MODEL 1
REMARK VINA RESULT:      -6.3      0.000      0.000
REMARK  31 active torsions:
REMARK  status: ('A' for Active; 'I' for Inactive)
REMARK    1  A    between atoms: O_7  and  C_28 
REMARK    2  A    between atoms: O_14  and  C_55 
REMARK    3  A    between atoms: O_15  and  C_56 
REMARK    4  A    between atoms: O_16  and  C_57 
REMARK    5  A    between atoms: O_17  and  C_58 
REMARK    6  A    between atoms: O_18  and  C_59 
REMARK    7  A    between atoms: O_19  and  C_60 
REMARK    8  A    between atoms: O_20  and  C_61 
REMARK    9  A    between atoms: O_21  and  C_62 
REMARK   10  A    between atoms: N_22  and  C_29 
REMARK   11  A    between atoms: N_22  and  C_31 
REMARK       I    between atoms: N_22  and  C_33 
REMARK   12  A    between atoms: N_23  and  C_30 
REMARK   13  A    between atoms: N_23  and  C_32 
REMARK       I    between atoms: N_23  and  C_34 
REMARK       I    between atoms: N_24  and  C_47 
REMARK   14  A    between atoms: N_24  and  C_51 
REMARK       I    between atoms: N_25  and  C_48 
REMARK   15  A    between atoms: N_25  and  C_52 
REMARK       I    between atoms: N_26  and  C_49 
REMARK   16  A    between atoms: N_26  and  C_53 
REMARK       I    between atoms: N_27  and  C_50 
REMARK   17  A    between atoms: N_27  and  C_54 
REMARK   18  A    between atoms: C_28  and  C_29 
REMARK   19  A    between atoms: C_28  and  C_30 
REMARK   20  A    between atoms: C_39  and  C_49 
REMARK   21  A    between atoms: C_40  and  C_50 
REMARK   22  A    between atoms: C_41  and  C_47 
REMARK   23  A    between atoms: C_42  and  C_48 
REMARK   24  A    between atoms: C_51  and  C_55 
REMARK   25  A    between atoms: C_52  and  C_56 
REMARK   26  A    between atoms: C_53  and  C_57 
REMARK   27  A    between atoms: C_54  and  C_58 
REMARK   28  A    between atoms: C_55  and  C_59 
REMARK   29  A    between atoms: C_56  and  C_60 
REMARK   30  A    between atoms: C_57  and  C_61 
REMARK   31  A    between atoms: C_58  and  C_62 
ROOT
HETATM    1  C   UNK N   1      25.498  14.066   2.432  0.00  0.00     0.155 C 
ENDROOT
BRANCH   1   2
HETATM    2  O   UNK N   1      25.530  15.271   1.731  0.00  0.00    -0.392 OA
HETATM    3  H   UNK N   1      26.000  15.336   0.884  0.00  0.00     0.210 HD
ENDBRANCH   1   2
BRANCH   1   4
HETATM    4  C   UNK N   1      24.505  13.187   1.659  0.00  0.00     0.165 C 
BRANCH   4   5
HETATM    5  N   UNK N   1      23.319  12.997   2.391  0.00  0.00    -0.317 N 
HETATM    6  C   UNK N   1      22.466  11.996   2.119  0.00  0.00     0.220 C 
HETATM    7  O   UNK N   1      22.921  11.035   1.430  0.00  0.00    -0.273 OA
HETATM    8  C   UNK N   1      21.053  12.034   2.526  0.00  0.00     0.117 C 
BRANCH   5   9
HETATM    9  C   UNK N   1      22.842  13.891   3.462  0.00  0.00     0.050 C 
HETATM   10  C   UNK N   1      22.303  15.175   3.233  0.00  0.00     0.144 C 
HETATM   11  I   UNK N   1      20.707  15.581   1.869  0.00  0.00    -0.073 I 
HETATM   12  C   UNK N   1      21.854  15.860   4.314  0.00  0.00     0.047 C 
HETATM   13  C   UNK N   1      21.397  15.177   5.444  0.00  0.00     0.036 C 
HETATM   14  I   UNK N   1      20.062  16.291   6.660  0.00  0.00    -0.043 I 
HETATM   15  C   UNK N   1      21.699  13.811   5.575  0.00  0.00     0.067 C 
HETATM   16  C   UNK N   1      22.682  13.294   4.727  0.00  0.00     0.047 C 
HETATM   17  I   UNK N   1      23.702  11.453   5.340  0.00  0.00    -0.041 I 
BRANCH  12  18
HETATM   18  C   UNK N   1      22.477  17.147   4.481  0.00  0.00     0.250 C 
HETATM   19  O   UNK N   1      23.298  17.380   5.355  0.00  0.00    -0.268 OA
HETATM   20  N   UNK N   1      21.948  18.128   3.723  0.00  0.00    -0.355 N 
HETATM   21  H   UNK N   1      21.128  17.930   3.217  0.00  0.00     0.162 HD
BRANCH  20  22
HETATM   22  C   UNK N   1      22.503  19.430   3.611  0.00  0.00     0.156 C 
BRANCH  22  23
HETATM   23  C   UNK N   1      21.586  20.233   2.702  0.00  0.00     0.159 C 
BRANCH  23  24
HETATM   24  O   UNK N   1      21.810  21.616   2.784  0.00  0.00    -0.392 OA
HETATM   25  H   UNK N   1      21.159  22.267   3.090  0.00  0.00     0.210 HD
ENDBRANCH  23  24
BRANCH  23  26
HETATM   26  C   UNK N   1      20.173  19.951   3.115  0.00  0.00     0.197 C 
BRANCH  26  27
HETATM   27  O   UNK N   1      19.549  19.264   2.081  0.00  0.00    -0.398 OA
HETATM   28  H   UNK N   1      19.177  19.727   1.314  0.00  0.00     0.209 HD
ENDBRANCH  26  27
ENDBRANCH  23  26
ENDBRANCH  22  23
ENDBRANCH  20  22
ENDBRANCH  12  18
BRANCH  15  29
HETATM   29  C   UNK N   1      20.958  12.797   6.405  0.00  0.00     0.254 C 
HETATM   30  O   UNK N   1      20.123  12.113   5.828  0.00  0.00    -0.268 OA
HETATM   31  N   UNK N   1      21.098  12.609   7.733  0.00  0.00    -0.354 N 
HETATM   32  H   UNK N   1      20.462  12.007   8.183  0.00  0.00     0.162 HD
BRANCH  31  33
HETATM   33  C   UNK N   1      22.106  13.229   8.525  0.00  0.00     0.156 C 
BRANCH  33  34
HETATM   34  C   UNK N   1      21.686  13.247   9.973  0.00  0.00     0.159 C 
BRANCH  34  35
HETATM   35  O   UNK N   1      20.306  13.086  10.036  0.00  0.00    -0.392 OA
HETATM   36  H   UNK N   1      19.913  12.211  10.175  0.00  0.00     0.210 HD
ENDBRANCH  34  35
BRANCH  34  37
HETATM   37  C   UNK N   1      22.370  12.114  10.715  0.00  0.00     0.197 C 
BRANCH  37  38
HETATM   38  O   UNK N   1      23.404  12.616  11.508  0.00  0.00    -0.398 OA
HETATM   39  H   UNK N   1      24.336  12.354  11.443  0.00  0.00     0.209 HD
ENDBRANCH  37  38
ENDBRANCH  34  37
ENDBRANCH  33  34
ENDBRANCH  31  33
ENDBRANCH  15  29
ENDBRANCH   5   9
ENDBRANCH   4   5
ENDBRANCH   1   4
BRANCH   1  40
HETATM   40  C   UNK N   1      26.932  13.467   2.446  0.00  0.00     0.165 C 
BRANCH  40  41
HETATM   41  N   UNK N   1      27.467  12.948   3.669  0.00  0.00    -0.313 N 
HETATM   42  C   UNK N   1      27.365  11.606   3.928  0.00  0.00     0.220 C 
HETATM   43  O   UNK N   1      27.899  11.121   4.909  0.00  0.00    -0.273 OA
HETATM   44  C   UNK N   1      26.636  10.693   2.983  0.00  0.00     0.117 C 
BRANCH  41  45
HETATM   45  C   UNK N   1      28.346  13.777   4.436  0.00  0.00     0.072 C 
HETATM   46  C   UNK N   1      29.686  13.619   4.177  0.00  0.00     0.051 C 
HETATM   47  I   UNK N   1      30.378  12.413   2.499  0.00  0.00    -0.041 I 
HETATM   48  C   UNK N   1      30.594  14.257   4.993  0.00  0.00     0.068 C 
HETATM   49  C   UNK N   1      30.237  15.466   5.631  0.00  0.00     0.040 C 
HETATM   50  I   UNK N   1      31.737  16.795   6.373  0.00  0.00    -0.042 I 
HETATM   51  C   UNK N   1      28.881  15.775   5.789  0.00  0.00     0.068 C 
HETATM   52  C   UNK N   1      27.924  14.762   5.406  0.00  0.00     0.051 C 
HETATM   53  I   UNK N   1      25.943  14.757   6.249  0.00  0.00    -0.041 I 
BRANCH  48  54
HETATM   54  C   UNK N   1      31.797  13.485   5.373  0.00  0.00     0.254 C 
HETATM   55  O   UNK N   1      32.125  13.480   6.550  0.00  0.00    -0.268 OA
HETATM   56  N   UNK N   1      32.801  13.469   4.487  0.00  0.00    -0.354 N 
HETATM   57  H   UNK N   1      33.062  12.632   4.039  0.00  0.00     0.162 HD
BRANCH  56  58
HETATM   58  C   UNK N   1      33.496  14.708   4.202  0.00  0.00     0.156 C 
BRANCH  58  59
HETATM   59  C   UNK N   1      34.973  14.498   4.401  0.00  0.00     0.159 C 
BRANCH  59  60
HETATM   60  O   UNK N   1      35.249  13.136   4.249  0.00  0.00    -0.392 OA
HETATM   61  H   UNK N   1      35.620  12.618   3.518  0.00  0.00     0.210 HD
ENDBRANCH  59  60
BRANCH  59  62
HETATM   62  C   UNK N   1      35.347  15.011   5.791  0.00  0.00     0.197 C 
BRANCH  62  63
HETATM   63  O   UNK N   1      34.925  14.140   6.796  0.00  0.00    -0.398 OA
HETATM   64  H   UNK N   1      34.858  13.182   6.933  0.00  0.00     0.209 HD
ENDBRANCH  62  63
ENDBRANCH  59  62
ENDBRANCH  58  59
ENDBRANCH  56  58
ENDBRANCH  48  54
BRANCH  51  65
HETATM   65  C   UNK N   1      28.466  17.210   6.088  0.00  0.00     0.254 C 
HETATM   66  O   UNK N   1      28.178  17.488   7.247  0.00  0.00    -0.268 OA
HETATM   67  N   UNK N   1      28.491  18.220   5.208  0.00  0.00    -0.354 N 
HETATM   68  H   UNK N   1      28.936  19.068   5.440  0.00  0.00     0.162 HD
BRANCH  67  69
HETATM   69  C   UNK N   1      27.875  18.060   3.941  0.00  0.00     0.156 C 
BRANCH  69  70
HETATM   70  C   UNK N   1      26.385  18.201   4.245  0.00  0.00     0.159 C 
BRANCH  70  71
HETATM   71  O   UNK N   1      25.616  17.842   3.146  0.00  0.00    -0.392 OA
HETATM   72  H   UNK N   1      26.019  17.694   2.277  0.00  0.00     0.210 HD
ENDBRANCH  70  71
BRANCH  70  73
HETATM   73  C   UNK N   1      26.055  19.611   4.725  0.00  0.00     0.197 C 
BRANCH  73  74
HETATM   74  O   UNK N   1      26.012  19.653   6.120  0.00  0.00    -0.398 OA
HETATM   75  H   UNK N   1      25.547  19.408   6.935  0.00  0.00     0.209 HD
ENDBRANCH  73  74
ENDBRANCH  70  73
ENDBRANCH  69  70
ENDBRANCH  67  69
ENDBRANCH  51  65
ENDBRANCH  41  45
ENDBRANCH  40  41
ENDBRANCH   1  40
TORSDOF 31
ENDMDL
MODEL 2
REMARK VINA RESULT:      -6.2      2.676      6.612
REMARK  31 active torsions:
REMARK  status: ('A' for Active; 'I' for Inactive)
REMARK    1  A    between atoms: O_7  and  C_28 
REMARK    2  A    between atoms: O_14  and  C_55 
REMARK    3  A    between atoms: O_15  and  C_56 
REMARK    4  A    between atoms: O_16  and  C_57 
REMARK    5  A    between atoms: O_17  and  C_58 
REMARK    6  A    between atoms: O_18  and  C_59 
REMARK    7  A    between atoms: O_19  and  C_60 
REMARK    8  A    between atoms: O_20  and  C_61 
REMARK    9  A    between atoms: O_21  and  C_62 
REMARK   10  A    between atoms: N_22  and  C_29 
REMARK   11  A    between atoms: N_22  and  C_31 
REMARK       I    between atoms: N_22  and  C_33 
REMARK   12  A    between atoms: N_23  and  C_30 
REMARK   13  A    between atoms: N_23  and  C_32 
REMARK       I    between atoms: N_23  and  C_34 
REMARK       I    between atoms: N_24  and  C_47 
REMARK   14  A    between atoms: N_24  and  C_51 
REMARK       I    between atoms: N_25  and  C_48 
REMARK   15  A    between atoms: N_25  and  C_52 
REMARK       I    between atoms: N_26  and  C_49 
REMARK   16  A    between atoms: N_26  and  C_53 
REMARK       I    between atoms: N_27  and  C_50 
REMARK   17  A    between atoms: N_27  and  C_54 
REMARK   18  A    between atoms: C_28  and  C_29 
REMARK   19  A    between atoms: C_28  and  C_30 
REMARK   20  A    between atoms: C_39  and  C_49 
REMARK   21  A    between atoms: C_40  and  C_50 
REMARK   22  A    between atoms: C_41  and  C_47 
REMARK   23  A    between atoms: C_42  and  C_48 
REMARK   24  A    between atoms: C_51  and  C_55 
REMARK   25  A    between atoms: C_52  and  C_56 
REMARK   26  A    between atoms: C_53  and  C_57 
REMARK   27  A    between atoms: C_54  and  C_58 
REMARK   28  A    between atoms: C_55  and  C_59 
REMARK   29  A    between atoms: C_56  and  C_60 
REMARK   30  A    between atoms: C_57  and  C_61 
REMARK   31  A    between atoms: C_58  and  C_62 
ROOT
HETATM    1  C   UNK N   1      25.155  14.900   5.743  0.00  0.00     0.155 C 
ENDROOT
BRANCH   1   2
HETATM    2  O   UNK N   1      25.907  13.739   5.572  0.00  0.00    -0.392 OA
HETATM    3  H   UNK N   1      26.814  13.785   5.230  0.00  0.00     0.210 HD
ENDBRANCH   1   2
BRANCH   1   4
HETATM    4  C   UNK N   1      24.160  14.563   6.862  0.00  0.00     0.165 C 
BRANCH   4   5
HETATM    5  N   UNK N   1      22.834  14.611   6.395  0.00  0.00    -0.317 N 
HETATM    6  C   UNK N   1      21.783  14.439   7.213  0.00  0.00     0.220 C 
HETATM    7  O   UNK N   1      22.000  14.581   8.453  0.00  0.00    -0.273 OA
HETATM    8  C   UNK N   1      20.460  14.030   6.718  0.00  0.00     0.117 C 
BRANCH   5   9
HETATM    9  C   UNK N   1      22.449  14.772   4.981  0.00  0.00     0.050 C 
HETATM   10  C   UNK N   1      22.486  13.729   4.031  0.00  0.00     0.144 C 
HETATM   11  I   UNK N   1      21.557  11.823   4.305  0.00  0.00    -0.073 I 
HETATM   12  C   UNK N   1      22.049  14.014   2.780  0.00  0.00     0.047 C 
HETATM   13  C   UNK N   1      21.100  15.019   2.575  0.00  0.00     0.036 C 
HETATM   14  I   UNK N   1      19.986  14.819   0.780  0.00  0.00    -0.043 I 
HETATM   15  C   UNK N   1      20.846  15.929   3.615  0.00  0.00     0.067 C 
HETATM   16  C   UNK N   1      21.762  15.960   4.669  0.00  0.00     0.047 C 
HETATM   17  I   UNK N   1      21.855  17.775   5.895  0.00  0.00    -0.041 I 
BRANCH  12  18
HETATM   18  C   UNK N   1      23.025  13.758   1.754  0.00  0.00     0.250 C 
HETATM   19  O   UNK N   1      23.809  14.605   1.355  0.00  0.00    -0.268 OA
HETATM   20  N   UNK N   1      22.886  12.570   1.133  0.00  0.00    -0.355 N 
HETATM   21  H   UNK N   1      22.086  12.034   1.334  0.00  0.00     0.162 HD
BRANCH  20  22
HETATM   22  C   UNK N   1      23.824  12.046   0.205  0.00  0.00     0.156 C 
BRANCH  22  23
HETATM   23  C   UNK N   1      24.377  10.761   0.801  0.00  0.00     0.159 C 
BRANCH  23  24
HETATM   24  O   UNK N   1      23.413  10.030   1.513  0.00  0.00    -0.392 OA
HETATM   25  H   UNK N   1      23.582   9.542   2.334  0.00  0.00     0.210 HD
ENDBRANCH  23  24
BRANCH  23  26
HETATM   26  C   UNK N   1      25.486  11.133   1.738  0.00  0.00     0.197 C 
BRANCH  26  27
HETATM   27  O   UNK N   1      26.689  11.015   1.053  0.00  0.00    -0.398 OA
HETATM   28  H   UNK N   1      27.392  10.419   1.358  0.00  0.00     0.209 HD
ENDBRANCH  26  27
ENDBRANCH  23  26
ENDBRANCH  22  23
ENDBRANCH  20  22
ENDBRANCH  12  18
BRANCH  15  29
HETATM   29  C   UNK N   1      19.601  16.754   3.811  0.00  0.00     0.254 C 
HETATM   30  O   UNK N   1      18.796  16.352   4.640  0.00  0.00    -0.268 OA
HETATM   31  N   UNK N   1      19.273  17.865   3.121  0.00  0.00    -0.354 N 
HETATM   32  H   UNK N   1      18.371  18.238   3.250  0.00  0.00     0.162 HD
BRANCH  31  33
HETATM   33  C   UNK N   1      20.149  18.531   2.217  0.00  0.00     0.156 C 
BRANCH  33  34
HETATM   34  C   UNK N   1      20.026  20.024   2.385  0.00  0.00     0.159 C 
BRANCH  34  35
HETATM   35  O   UNK N   1      20.355  20.351   3.696  0.00  0.00    -0.392 OA
HETATM   36  H   UNK N   1      21.011  19.834   4.188  0.00  0.00     0.210 HD
ENDBRANCH  34  35
BRANCH  34  37
HETATM   37  C   UNK N   1      20.975  20.722   1.429  0.00  0.00     0.197 C 
BRANCH  37  38
HETATM   38  O   UNK N   1      20.539  20.552   0.112  0.00  0.00    -0.398 OA
HETATM   39  H   UNK N   1      19.633  20.699  -0.200  0.00  0.00     0.209 HD
ENDBRANCH  37  38
ENDBRANCH  34  37
ENDBRANCH  33  34
ENDBRANCH  31  33
ENDBRANCH  15  29
ENDBRANCH   5   9
ENDBRANCH   4   5
ENDBRANCH   1   4
BRANCH   1  40
HETATM   40  C   UNK N   1      26.116  16.056   6.134  0.00  0.00     0.165 C 
BRANCH  40  41
HETATM   41  N   UNK N   1      27.035  16.569   5.163  0.00  0.00    -0.313 N 
HETATM   42  C   UNK N   1      26.774  17.775   4.568  0.00  0.00     0.220 C 
HETATM   43  O   UNK N   1      27.585  18.285   3.815  0.00  0.00    -0.273 OA
HETATM   44  C   UNK N   1      25.505  18.524   4.866  0.00  0.00     0.117 C 
BRANCH  41  45
HETATM   45  C   UNK N   1      28.330  15.968   5.062  0.00  0.00     0.072 C 
HETATM   46  C   UNK N   1      29.251  16.385   5.992  0.00  0.00     0.051 C 
HETATM   47  I   UNK N   1      28.669  17.640   7.676  0.00  0.00    -0.041 I 
HETATM   48  C   UNK N   1      30.559  15.978   5.850  0.00  0.00     0.068 C 
HETATM   49  C   UNK N   1      30.848  14.748   5.220  0.00  0.00     0.040 C 
HETATM   50  I   UNK N   1      32.732  13.783   5.515  0.00  0.00    -0.042 I 
HETATM   51  C   UNK N   1      29.887  14.176   4.378  0.00  0.00     0.068 C 
HETATM   52  C   UNK N   1      28.704  14.957   4.099  0.00  0.00     0.051 C 
HETATM   53  I   UNK N   1      27.546  14.591   2.322  0.00  0.00    -0.041 I 
BRANCH  48  54
HETATM   54  C   UNK N   1      31.600  16.994   6.123  0.00  0.00     0.254 C 
HETATM   55  O   UNK N   1      32.544  17.065   5.351  0.00  0.00    -0.268 OA
HETATM   56  N   UNK N   1      31.879  17.232   7.410  0.00  0.00    -0.354 N 
HETATM   57  H   UNK N   1      31.678  18.108   7.814  0.00  0.00     0.162 HD
BRANCH  56  58
HETATM   58  C   UNK N   1      32.483  16.177   8.198  0.00  0.00     0.156 C 
BRANCH  58  59
HETATM   59  C   UNK N   1      33.850  16.620   8.645  0.00  0.00     0.159 C 
BRANCH  59  60
HETATM   60  O   UNK N   1      33.960  16.390  10.019  0.00  0.00    -0.392 OA
HETATM   61  H   UNK N   1      33.684  16.902  10.796  0.00  0.00     0.210 HD
ENDBRANCH  59  60
BRANCH  59  62
HETATM   62  C   UNK N   1      34.015  18.098   8.292  0.00  0.00     0.197 C 
BRANCH  62  63
HETATM   63  O   UNK N   1      34.675  18.269   7.074  0.00  0.00    -0.398 OA
HETATM   64  H   UNK N   1      34.479  18.633   6.197  0.00  0.00     0.209 HD
ENDBRANCH  62  63
ENDBRANCH  59  62
ENDBRANCH  58  59
ENDBRANCH  56  58
ENDBRANCH  48  54
BRANCH  51  65
HETATM   65  C   UNK N   1      29.988  12.699   4.016  0.00  0.00     0.254 C 
HETATM   66  O   UNK N   1      29.767  11.881   4.902  0.00  0.00    -0.268 OA
HETATM   67  N   UNK N   1      30.195  12.220   2.782  0.00  0.00    -0.354 N 
HETATM   68  H   UNK N   1      29.603  11.524   2.415  0.00  0.00     0.162 HD
BRANCH  67  69
HETATM   69  C   UNK N   1      31.272  12.723   2.007  0.00  0.00     0.156 C 
BRANCH  69  70
HETATM   70  C   UNK N   1      31.362  11.744   0.839  0.00  0.00     0.159 C 
BRANCH  70  71
HETATM   71  O   UNK N   1      32.432  12.053   0.010  0.00  0.00    -0.392 OA
HETATM   72  H   UNK N   1      32.924  12.882   0.112  0.00  0.00     0.210 HD
ENDBRANCH  70  71
BRANCH  70  73
HETATM   73  C   UNK N   1      30.048  11.693   0.063  0.00  0.00     0.197 C 
BRANCH  73  74
HETATM   74  O   UNK N   1      30.164  12.396  -1.137  0.00  0.00    -0.398 OA
HETATM   75  H   UNK N   1      29.836  12.543  -2.038  0.00  0.00     0.209 HD
ENDBRANCH  73  74
ENDBRANCH  70  73
ENDBRANCH  69  70
ENDBRANCH  67  69
ENDBRANCH  51  65
ENDBRANCH  41  45
ENDBRANCH  40  41
ENDBRANCH   1  40
TORSDOF 31
ENDMDL
MODEL 3
REMARK VINA RESULT:      -6.1      2.777      5.945
REMARK  31 active torsions:
REMARK  status: ('A' for Active; 'I' for Inactive)
REMARK    1  A    between atoms: O_7  and  C_28 
REMARK    2  A    between atoms: O_14  and  C_55 
REMARK    3  A    between atoms: O_15  and  C_56 
REMARK    4  A    between atoms: O_16  and  C_57 
REMARK    5  A    between atoms: O_17  and  C_58 
REMARK    6  A    between atoms: O_18  and  C_59 
REMARK    7  A    between atoms: O_19  and  C_60 
REMARK    8  A    between atoms: O_20  and  C_61 
REMARK    9  A    between atoms: O_21  and  C_62 
REMARK   10  A    between atoms: N_22  and  C_29 
REMARK   11  A    between atoms: N_22  and  C_31 
REMARK       I    between atoms: N_22  and  C_33 
REMARK   12  A    between atoms: N_23  and  C_30 
REMARK   13  A    between atoms: N_23  and  C_32 
REMARK       I    between atoms: N_23  and  C_34 
REMARK       I    between atoms: N_24  and  C_47 
REMARK   14  A    between atoms: N_24  and  C_51 
REMARK       I    between atoms: N_25  and  C_48 
REMARK   15  A    between atoms: N_25  and  C_52 
REMARK       I    between atoms: N_26  and  C_49 
REMARK   16  A    between atoms: N_26  and  C_53 
REMARK       I    between atoms: N_27  and  C_50 
REMARK   17  A    between atoms: N_27  and  C_54 
REMARK   18  A    between atoms: C_28  and  C_29 
REMARK   19  A    between atoms: C_28  and  C_30 
REMARK   20  A    between atoms: C_39  and  C_49 
REMARK   21  A    between atoms: C_40  and  C_50 
REMARK   22  A    between atoms: C_41  and  C_47 
REMARK   23  A    between atoms: C_42  and  C_48 
REMARK   24  A    between atoms: C_51  and  C_55 
REMARK   25  A    between atoms: C_52  and  C_56 
REMARK   26  A    between atoms: C_53  and  C_57 
REMARK   27  A    between atoms: C_54  and  C_58 
REMARK   28  A    between atoms: C_55  and  C_59 
REMARK   29  A    between atoms: C_56  and  C_60 
REMARK   30  A    between atoms: C_57  and  C_61 
REMARK   31  A    between atoms: C_58  and  C_62 
ROOT
HETATM    1  C   UNK N   1      26.342  15.578   6.569  0.00  0.00     0.155 C 
ENDROOT
BRANCH   1   2
HETATM    2  O   UNK N   1      26.091  14.807   7.703  0.00  0.00    -0.392 OA
HETATM    3  H   UNK N   1      26.325  13.865   7.720  0.00  0.00     0.210 HD
ENDBRANCH   1   2
BRANCH   1   4
HETATM    4  C   UNK N   1      24.956  16.025   6.082  0.00  0.00     0.165 C 
BRANCH   4   5
HETATM    5  N   UNK N   1      24.571  15.319   4.928  0.00  0.00    -0.317 N 
HETATM    6  C   UNK N   1      24.571  15.888   3.712  0.00  0.00     0.220 C 
HETATM    7  O   UNK N   1      25.250  16.950   3.582  0.00  0.00    -0.273 OA
HETATM    8  C   UNK N   1      23.768  15.363   2.598  0.00  0.00     0.117 C 
BRANCH   5   9
HETATM    9  C   UNK N   1      24.061  13.936   4.922  0.00  0.00     0.050 C 
HETATM   10  C   UNK N   1      24.770  12.839   4.388  0.00  0.00     0.144 C 
HETATM   11  I   UNK N   1      26.782  12.339   4.911  0.00  0.00    -0.073 I 
HETATM   12  C   UNK N   1      24.198  11.615   4.505  0.00  0.00     0.047 C 
HETATM   13  C   UNK N   1      23.315  11.345   5.554  0.00  0.00     0.036 C 
HETATM   14  I   UNK N   1      23.137   9.287   6.041  0.00  0.00    -0.043 I 
HETATM   15  C   UNK N   1      22.788  12.422   6.287  0.00  0.00     0.067 C 
HETATM   16  C   UNK N   1      22.939  13.698   5.737  0.00  0.00     0.047 C 
HETATM   17  I   UNK N   1      21.561  15.269   6.398  0.00  0.00    -0.041 I 
BRANCH  12  18
HETATM   18  C   UNK N   1      24.010  10.942   3.247  0.00  0.00     0.250 C 
HETATM   19  O   UNK N   1      24.696   9.996   2.889  0.00  0.00    -0.268 OA
HETATM   20  N   UNK N   1      23.147  11.549   2.409  0.00  0.00    -0.355 N 
HETATM   21  H   UNK N   1      22.809  12.440   2.659  0.00  0.00     0.162 HD
BRANCH  20  22
HETATM   22  C   UNK N   1      22.694  10.983   1.188  0.00  0.00     0.156 C 
BRANCH  22  23
HETATM   23  C   UNK N   1      23.533  11.589   0.074  0.00  0.00     0.159 C 
BRANCH  23  24
HETATM   24  O   UNK N   1      24.912  11.436   0.283  0.00  0.00    -0.392 OA
HETATM   25  H   UNK N   1      25.399  11.776   1.051  0.00  0.00     0.210 HD
ENDBRANCH  23  24
BRANCH  23  26
HETATM   26  C   UNK N   1      23.218  13.053   0.008  0.00  0.00     0.197 C 
BRANCH  26  27
HETATM   27  O   UNK N   1      21.882  13.223   0.351  0.00  0.00    -0.398 OA
HETATM   28  H   UNK N   1      21.477  12.726   1.080  0.00  0.00     0.209 HD
ENDBRANCH  26  27
ENDBRANCH  23  26
ENDBRANCH  22  23
ENDBRANCH  20  22
ENDBRANCH  12  18
BRANCH  15  29
HETATM   29  C   UNK N   1      22.234  12.378   7.686  0.00  0.00     0.254 C 
HETATM   30  O   UNK N   1      21.015  12.353   7.798  0.00  0.00    -0.268 OA
HETATM   31  N   UNK N   1      22.957  12.413   8.823  0.00  0.00    -0.354 N 
HETATM   32  H   UNK N   1      22.472  12.513   9.675  0.00  0.00     0.162 HD
BRANCH  31  33
HETATM   33  C   UNK N   1      24.376  12.318   8.870  0.00  0.00     0.156 C 
BRANCH  33  34
HETATM   34  C   UNK N   1      24.847  12.317  10.302  0.00  0.00     0.159 C 
BRANCH  34  35
HETATM   35  O   UNK N   1      25.549  13.495  10.538  0.00  0.00    -0.392 OA
HETATM   36  H   UNK N   1      26.036  13.936   9.824  0.00  0.00     0.210 HD
ENDBRANCH  34  35
BRANCH  34  37
HETATM   37  C   UNK N   1      23.650  12.239  11.231  0.00  0.00     0.197 C 
BRANCH  37  38
HETATM   38  O   UNK N   1      24.072  12.300  12.562  0.00  0.00    -0.398 OA
HETATM   39  H   UNK N   1      23.639  12.812  13.262  0.00  0.00     0.209 HD
ENDBRANCH  37  38
ENDBRANCH  34  37
ENDBRANCH  33  34
ENDBRANCH  31  33
ENDBRANCH  15  29
ENDBRANCH   5   9
ENDBRANCH   4   5
ENDBRANCH   1   4
BRANCH   1  40
HETATM   40  C   UNK N   1      27.240  16.778   6.978  0.00  0.00     0.165 C 
BRANCH  40  41
HETATM   41  N   UNK N   1      28.161  17.325   6.029  0.00  0.00    -0.313 N 
HETATM   42  C   UNK N   1      27.911  18.559   5.489  0.00  0.00     0.220 C 
HETATM   43  O   UNK N   1      28.726  19.094   4.758  0.00  0.00    -0.273 OA
HETATM   44  C   UNK N   1      26.650  19.305   5.823  0.00  0.00     0.117 C 
BRANCH  41  45
HETATM   45  C   UNK N   1      29.450  16.716   5.897  0.00  0.00     0.072 C 
HETATM   46  C   UNK N   1      30.349  17.012   6.894  0.00  0.00     0.051 C 
HETATM   47  I   UNK N   1      29.735  18.082   8.690  0.00  0.00    -0.041 I 
HETATM   48  C   UNK N   1      31.656  16.601   6.744  0.00  0.00     0.068 C 
HETATM   49  C   UNK N   1      31.946  15.444   5.988  0.00  0.00     0.040 C 
HETATM   50  I   UNK N   1      33.806  14.420   6.227  0.00  0.00    -0.042 I 
HETATM   51  C   UNK N   1      31.003  14.986   5.061  0.00  0.00     0.068 C 
HETATM   52  C   UNK N   1      29.839  15.813   4.839  0.00  0.00     0.051 C 
HETATM   53  I   UNK N   1      28.730  15.667   3.000  0.00  0.00    -0.041 I 
BRANCH  48  54
HETATM   54  C   UNK N   1      32.701  17.562   7.158  0.00  0.00     0.254 C 
HETATM   55  O   UNK N   1      33.613  17.786   6.375  0.00  0.00    -0.268 OA
HETATM   56  N   UNK N   1      33.032  17.564   8.455  0.00  0.00    -0.354 N 
HETATM   57  H   UNK N   1      32.844  18.348   9.019  0.00  0.00     0.162 HD
BRANCH  56  58
HETATM   58  C   UNK N   1      33.673  16.390   9.011  0.00  0.00     0.156 C 
BRANCH  58  59
HETATM   59  C   UNK N   1      34.765  16.826   9.949  0.00  0.00     0.159 C 
BRANCH  59  60
HETATM   60  O   UNK N   1      35.337  17.998   9.446  0.00  0.00    -0.392 OA
HETATM   61  H   UNK N   1      35.028  18.658   8.806  0.00  0.00     0.210 HD
ENDBRANCH  59  60
BRANCH  59  62
HETATM   62  C   UNK N   1      35.782  15.691  10.062  0.00  0.00     0.197 C 
BRANCH  62  63
HETATM   63  O   UNK N   1      36.886  16.059  10.832  0.00  0.00    -0.398 OA
HETATM   64  H   UNK N   1      37.739  15.678  11.092  0.00  0.00     0.209 HD
ENDBRANCH  62  63
ENDBRANCH  59  62
ENDBRANCH  58  59
ENDBRANCH  56  58
ENDBRANCH  48  54
BRANCH  51  65
HETATM   65  C   UNK N   1      31.093  13.557   4.540  0.00  0.00     0.254 C 
HETATM   66  O   UNK N   1      30.769  12.652   5.301  0.00  0.00    -0.268 OA
HETATM   67  N   UNK N   1      31.399  13.213   3.281  0.00  0.00    -0.354 N 
HETATM   68  H   UNK N   1      30.823  12.587   2.785  0.00  0.00     0.162 HD
BRANCH  67  69
HETATM   69  C   UNK N   1      32.555  13.758   2.667  0.00  0.00     0.156 C 
BRANCH  69  70
HETATM   70  C   UNK N   1      33.004  12.660   1.706  0.00  0.00     0.159 C 
BRANCH  70  71
HETATM   71  O   UNK N   1      31.954  11.801   1.404  0.00  0.00    -0.392 OA
HETATM   72  H   UNK N   1      32.085  11.029   0.833  0.00  0.00     0.210 HD
ENDBRANCH  70  71
BRANCH  70  73
HETATM   73  C   UNK N   1      34.206  11.902   2.262  0.00  0.00     0.197 C 
BRANCH  73  74
HETATM   74  O   UNK N   1      33.984  11.546   3.593  0.00  0.00    -0.398 OA
HETATM   75  H   UNK N   1      34.352  11.222   4.430  0.00  0.00     0.209 HD
ENDBRANCH  73  74
ENDBRANCH  70  73
ENDBRANCH  69  70
ENDBRANCH  67  69
ENDBRANCH  51  65
ENDBRANCH  41  45
ENDBRANCH  40  41
ENDBRANCH   1  40
TORSDOF 31
ENDMDL
MODEL 4
REMARK VINA RESULT:      -6.1      1.403      2.520
REMARK  31 active torsions:
REMARK  status: ('A' for Active; 'I' for Inactive)
REMARK    1  A    between atoms: O_7  and  C_28 
REMARK    2  A    between atoms: O_14  and  C_55 
REMARK    3  A    between atoms: O_15  and  C_56 
REMARK    4  A    between atoms: O_16  and  C_57 
REMARK    5  A    between atoms: O_17  and  C_58 
REMARK    6  A    between atoms: O_18  and  C_59 
REMARK    7  A    between atoms: O_19  and  C_60 
REMARK    8  A    between atoms: O_20  and  C_61 
REMARK    9  A    between atoms: O_21  and  C_62 
REMARK   10  A    between atoms: N_22  and  C_29 
REMARK   11  A    between atoms: N_22  and  C_31 
REMARK       I    between atoms: N_22  and  C_33 
REMARK   12  A    between atoms: N_23  and  C_30 
REMARK   13  A    between atoms: N_23  and  C_32 
REMARK       I    between atoms: N_23  and  C_34 
REMARK       I    between atoms: N_24  and  C_47 
REMARK   14  A    between atoms: N_24  and  C_51 
REMARK       I    between atoms: N_25  and  C_48 
REMARK   15  A    between atoms: N_25  and  C_52 
REMARK       I    between atoms: N_26  and  C_49 
REMARK   16  A    between atoms: N_26  and  C_53 
REMARK       I    between atoms: N_27  and  C_50 
REMARK   17  A    between atoms: N_27  and  C_54 
REMARK   18  A    between atoms: C_28  and  C_29 
REMARK   19  A    between atoms: C_28  and  C_30 
REMARK   20  A    between atoms: C_39  and  C_49 
REMARK   21  A    between atoms: C_40  and  C_50 
REMARK   22  A    between atoms: C_41  and  C_47 
REMARK   23  A    between atoms: C_42  and  C_48 
REMARK   24  A    between atoms: C_51  and  C_55 
REMARK   25  A    between atoms: C_52  and  C_56 
REMARK   26  A    between atoms: C_53  and  C_57 
REMARK   27  A    between atoms: C_54  and  C_58 
REMARK   28  A    between atoms: C_55  and  C_59 
REMARK   29  A    between atoms: C_56  and  C_60 
REMARK   30  A    between atoms: C_57  and  C_61 
REMARK   31  A    between atoms: C_58  and  C_62 
ROOT
HETATM    1  C   UNK N   1      25.580  13.844   2.303  0.00  0.00     0.155 C 
ENDROOT
BRANCH   1   2
HETATM    2  O   UNK N   1      25.612  15.069   1.639  0.00  0.00    -0.392 OA
HETATM    3  H   UNK N   1      26.336  15.695   1.795  0.00  0.00     0.210 HD
ENDBRANCH   1   2
BRANCH   1   4
HETATM    4  C   UNK N   1      24.620  12.973   1.480  0.00  0.00     0.165 C 
BRANCH   4   5
HETATM    5  N   UNK N   1      23.418  12.745   2.175  0.00  0.00    -0.317 N 
HETATM    6  C   UNK N   1      22.641  11.680   1.923  0.00  0.00     0.220 C 
HETATM    7  O   UNK N   1      23.182  10.716   1.303  0.00  0.00    -0.273 OA
HETATM    8  C   UNK N   1      21.213  11.649   2.273  0.00  0.00     0.117 C 
BRANCH   5   9
HETATM    9  C   UNK N   1      22.844  13.660   3.179  0.00  0.00     0.050 C 
HETATM   10  C   UNK N   1      22.195  14.871   2.859  0.00  0.00     0.144 C 
HETATM   11  I   UNK N   1      20.594  15.041   1.452  0.00  0.00    -0.073 I 
HETATM   12  C   UNK N   1      21.667  15.582   3.886  0.00  0.00     0.047 C 
HETATM   13  C   UNK N   1      21.253  14.934   5.054  0.00  0.00     0.036 C 
HETATM   14  I   UNK N   1      19.802  15.998   6.177  0.00  0.00    -0.043 I 
HETATM   15  C   UNK N   1      21.676  13.613   5.278  0.00  0.00     0.067 C 
HETATM   16  C   UNK N   1      22.716  13.134   4.478  0.00  0.00     0.047 C 
HETATM   17  I   UNK N   1      23.887  11.438   5.223  0.00  0.00    -0.041 I 
BRANCH  12  18
HETATM   18  C   UNK N   1      22.167  16.928   3.975  0.00  0.00     0.250 C 
HETATM   19  O   UNK N   1      21.651  17.870   3.393  0.00  0.00    -0.268 OA
HETATM   20  N   UNK N   1      23.356  17.043   4.598  0.00  0.00    -0.355 N 
HETATM   21  H   UNK N   1      23.838  16.217   4.832  0.00  0.00     0.162 HD
BRANCH  20  22
HETATM   22  C   UNK N   1      23.958  18.284   4.936  0.00  0.00     0.156 C 
BRANCH  22  23
HETATM   23  C   UNK N   1      24.992  18.590   3.863  0.00  0.00     0.159 C 
BRANCH  23  24
HETATM   24  O   UNK N   1      25.820  17.495   3.574  0.00  0.00    -0.392 OA
HETATM   25  H   UNK N   1      26.787  17.534   3.501  0.00  0.00     0.210 HD
ENDBRANCH  23  24
BRANCH  23  26
HETATM   26  C   UNK N   1      25.844  19.719   4.359  0.00  0.00     0.197 C 
BRANCH  26  27
HETATM   27  O   UNK N   1      25.895  19.645   5.745  0.00  0.00    -0.398 OA
HETATM   28  H   UNK N   1      25.090  19.675   6.286  0.00  0.00     0.209 HD
ENDBRANCH  26  27
ENDBRANCH  23  26
ENDBRANCH  22  23
ENDBRANCH  20  22
ENDBRANCH  12  18
BRANCH  15  29
HETATM   29  C   UNK N   1      21.014  12.591   6.165  0.00  0.00     0.254 C 
HETATM   30  O   UNK N   1      20.271  11.785   5.622  0.00  0.00    -0.268 OA
HETATM   31  N   UNK N   1      21.130  12.517   7.506  0.00  0.00    -0.354 N 
HETATM   32  H   UNK N   1      20.544  11.887   7.985  0.00  0.00     0.162 HD
BRANCH  31  33
HETATM   33  C   UNK N   1      22.044  13.293   8.273  0.00  0.00     0.156 C 
BRANCH  33  34
HETATM   34  C   UNK N   1      21.541  13.438   9.686  0.00  0.00     0.159 C 
BRANCH  34  35
HETATM   35  O   UNK N   1      20.188  13.116   9.709  0.00  0.00    -0.392 OA
HETATM   36  H   UNK N   1      19.828  12.523  10.387  0.00  0.00     0.210 HD
ENDBRANCH  34  35
BRANCH  34  37
HETATM   37  C   UNK N   1      22.307  12.497  10.598  0.00  0.00     0.197 C 
BRANCH  37  38
HETATM   38  O   UNK N   1      22.820  11.427   9.860  0.00  0.00    -0.398 OA
HETATM   39  H   UNK N   1      23.491  10.802  10.175  0.00  0.00     0.209 HD
ENDBRANCH  37  38
ENDBRANCH  34  37
ENDBRANCH  33  34
ENDBRANCH  31  33
ENDBRANCH  15  29
ENDBRANCH   5   9
ENDBRANCH   4   5
ENDBRANCH   1   4
BRANCH   1  40
HETATM   40  C   UNK N   1      27.021  13.264   2.337  0.00  0.00     0.165 C 
BRANCH  40  41
HETATM   41  N   UNK N   1      27.559  12.783   3.574  0.00  0.00    -0.313 N 
HETATM   42  C   UNK N   1      27.533  11.438   3.836  0.00  0.00     0.220 C 
HETATM   43  O   UNK N   1      28.073  10.988   4.831  0.00  0.00    -0.273 OA
HETATM   44  C   UNK N   1      26.882  10.479   2.879  0.00  0.00     0.117 C 
BRANCH  41  45
HETATM   45  C   UNK N   1      28.369  13.665   4.358  0.00  0.00     0.072 C 
HETATM   46  C   UNK N   1      29.721  13.594   4.123  0.00  0.00     0.051 C 
HETATM   47  I   UNK N   1      30.520  12.437   2.457  0.00  0.00    -0.041 I 
HETATM   48  C   UNK N   1      30.570  14.288   4.956  0.00  0.00     0.068 C 
HETATM   49  C   UNK N   1      30.125  15.470   5.587  0.00  0.00     0.040 C 
HETATM   50  I   UNK N   1      31.522  16.892   6.357  0.00  0.00    -0.042 I 
HETATM   51  C   UNK N   1      28.749  15.691   5.720  0.00  0.00     0.068 C 
HETATM   52  C   UNK N   1      27.866  14.619   5.320  0.00  0.00     0.051 C 
HETATM   53  I   UNK N   1      25.875  14.485   6.126  0.00  0.00    -0.041 I 
BRANCH  48  54
HETATM   54  C   UNK N   1      31.814  13.594   5.357  0.00  0.00     0.254 C 
HETATM   55  O   UNK N   1      32.052  13.496   6.552  0.00  0.00    -0.268 OA
HETATM   56  N   UNK N   1      32.876  13.764   4.561  0.00  0.00    -0.354 N 
HETATM   57  H   UNK N   1      33.252  13.007   4.057  0.00  0.00     0.162 HD
BRANCH  56  58
HETATM   58  C   UNK N   1      33.463  15.085   4.458  0.00  0.00     0.156 C 
BRANCH  58  59
HETATM   59  C   UNK N   1      33.640  15.430   3.004  0.00  0.00     0.159 C 
BRANCH  59  60
HETATM   60  O   UNK N   1      32.428  15.931   2.519  0.00  0.00    -0.392 OA
HETATM   61  H   UNK N   1      31.503  15.696   2.693  0.00  0.00     0.210 HD
ENDBRANCH  59  60
BRANCH  59  62
HETATM   62  C   UNK N   1      34.082  14.170   2.262  0.00  0.00     0.197 C 
BRANCH  62  63
HETATM   63  O   UNK N   1      34.820  14.475   1.117  0.00  0.00    -0.398 OA
HETATM   64  H   UNK N   1      34.897  15.209   0.487  0.00  0.00     0.209 HD
ENDBRANCH  62  63
ENDBRANCH  59  62
ENDBRANCH  58  59
ENDBRANCH  56  58
ENDBRANCH  48  54
BRANCH  51  65
HETATM   65  C   UNK N   1      28.237  17.096   6.013  0.00  0.00     0.254 C 
HETATM   66  O   UNK N   1      28.422  17.957   5.159  0.00  0.00    -0.268 OA
HETATM   67  N   UNK N   1      27.508  17.445   7.082  0.00  0.00    -0.354 N 
HETATM   68  H   UNK N   1      26.669  17.947   6.966  0.00  0.00     0.162 HD
BRANCH  67  69
HETATM   69  C   UNK N   1      27.952  17.084   8.380  0.00  0.00     0.156 C 
BRANCH  69  70
HETATM   70  C   UNK N   1      28.076  18.424   9.102  0.00  0.00     0.159 C 
BRANCH  70  71
HETATM   71  O   UNK N   1      27.379  19.420   8.429  0.00  0.00    -0.392 OA
HETATM   72  H   UNK N   1      27.711  19.791   7.598  0.00  0.00     0.210 HD
ENDBRANCH  70  71
BRANCH  70  73
HETATM   73  C   UNK N   1      29.540  18.803   9.307  0.00  0.00     0.197 C 
BRANCH  73  74
HETATM   74  O   UNK N   1      30.186  17.847  10.091  0.00  0.00    -0.398 OA
HETATM   75  H   UNK N   1      30.841  17.134  10.144  0.00  0.00     0.209 HD
ENDBRANCH  73  74
ENDBRANCH  70  73
ENDBRANCH  69  70
ENDBRANCH  67  69
ENDBRANCH  51  65
ENDBRANCH  41  45
ENDBRANCH  40  41
ENDBRANCH   1  40
TORSDOF 31
ENDMDL
MODEL 5
REMARK VINA RESULT:      -6.0      2.492      6.544
REMARK  31 active torsions:
REMARK  status: ('A' for Active; 'I' for Inactive)
REMARK    1  A    between atoms: O_7  and  C_28 
REMARK    2  A    between atoms: O_14  and  C_55 
REMARK    3  A    between atoms: O_15  and  C_56 
REMARK    4  A    between atoms: O_16  and  C_57 
REMARK    5  A    between atoms: O_17  and  C_58 
REMARK    6  A    between atoms: O_18  and  C_59 
REMARK    7  A    between atoms: O_19  and  C_60 
REMARK    8  A    between atoms: O_20  and  C_61 
REMARK    9  A    between atoms: O_21  and  C_62 
REMARK   10  A    between atoms: N_22  and  C_29 
REMARK   11  A    between atoms: N_22  and  C_31 
REMARK       I    between atoms: N_22  and  C_33 
REMARK   12  A    between atoms: N_23  and  C_30 
REMARK   13  A    between atoms: N_23  and  C_32 
REMARK       I    between atoms: N_23  and  C_34 
REMARK       I    between atoms: N_24  and  C_47 
REMARK   14  A    between atoms: N_24  and  C_51 
REMARK       I    between atoms: N_25  and  C_48 
REMARK   15  A    between atoms: N_25  and  C_52 
REMARK       I    between atoms: N_26  and  C_49 
REMARK   16  A    between atoms: N_26  and  C_53 
REMARK       I    between atoms: N_27  and  C_50 
REMARK   17  A    between atoms: N_27  and  C_54 
REMARK   18  A    between atoms: C_28  and  C_29 
REMARK   19  A    between atoms: C_28  and  C_30 
REMARK   20  A    between atoms: C_39  and  C_49 
REMARK   21  A    between atoms: C_40  and  C_50 
REMARK   22  A    between atoms: C_41  and  C_47 
REMARK   23  A    between atoms: C_42  and  C_48 
REMARK   24  A    between atoms: C_51  and  C_55 
REMARK   25  A    between atoms: C_52  and  C_56 
REMARK   26  A    between atoms: C_53  and  C_57 
REMARK   27  A    between atoms: C_54  and  C_58 
REMARK   28  A    between atoms: C_55  and  C_59 
REMARK   29  A    between atoms: C_56  and  C_60 
REMARK   30  A    between atoms: C_57  and  C_61 
REMARK   31  A    between atoms: C_58  and  C_62 
ROOT
HETATM    1  C   UNK N   1      25.182  15.140   5.582  0.00  0.00     0.155 C 
ENDROOT
BRANCH   1   2
HETATM    2  O   UNK N   1      25.818  13.988   5.122  0.00  0.00    -0.392 OA
HETATM    3  H   UNK N   1      25.727  13.711   4.197  0.00  0.00     0.210 HD
ENDBRANCH   1   2
BRANCH   1   4
HETATM    4  C   UNK N   1      24.227  14.652   6.680  0.00  0.00     0.165 C 
BRANCH   4   5
HETATM    5  N   UNK N   1      22.888  14.713   6.253  0.00  0.00    -0.317 N 
HETATM    6  C   UNK N   1      21.861  14.579   7.107  0.00  0.00     0.220 C 
HETATM    7  O   UNK N   1      22.120  14.746   8.336  0.00  0.00    -0.273 OA
HETATM    8  C   UNK N   1      20.516  14.183   6.664  0.00  0.00     0.117 C 
BRANCH   5   9
HETATM    9  C   UNK N   1      22.462  14.850   4.848  0.00  0.00     0.050 C 
HETATM   10  C   UNK N   1      22.447  13.784   3.924  0.00  0.00     0.144 C 
HETATM   11  I   UNK N   1      21.488  11.905   4.272  0.00  0.00    -0.073 I 
HETATM   12  C   UNK N   1      21.975  14.049   2.680  0.00  0.00     0.047 C 
HETATM   13  C   UNK N   1      21.041  15.069   2.481  0.00  0.00     0.036 C 
HETATM   14  I   UNK N   1      19.867  14.851   0.727  0.00  0.00    -0.043 I 
HETATM   15  C   UNK N   1      20.840  16.009   3.506  0.00  0.00     0.067 C 
HETATM   16  C   UNK N   1      21.790  16.045   4.530  0.00  0.00     0.047 C 
HETATM   17  I   UNK N   1      21.960  17.886   5.708  0.00  0.00    -0.041 I 
BRANCH  12  18
HETATM   18  C   UNK N   1      22.912  13.748   1.630  0.00  0.00     0.250 C 
HETATM   19  O   UNK N   1      23.721  14.559   1.208  0.00  0.00    -0.268 OA
HETATM   20  N   UNK N   1      22.707  12.565   1.018  0.00  0.00    -0.355 N 
HETATM   21  H   UNK N   1      21.890  12.064   1.243  0.00  0.00     0.162 HD
BRANCH  20  22
HETATM   22  C   UNK N   1      23.597  11.997   0.069  0.00  0.00     0.156 C 
BRANCH  22  23
HETATM   23  C   UNK N   1      24.431  10.957   0.799  0.00  0.00     0.159 C 
BRANCH  23  24
HETATM   24  O   UNK N   1      25.811  11.133   0.612  0.00  0.00    -0.392 OA
HETATM   25  H   UNK N   1      26.494  10.896   1.259  0.00  0.00     0.210 HD
ENDBRANCH  23  24
BRANCH  23  26
HETATM   26  C   UNK N   1      24.044   9.608   0.271  0.00  0.00     0.197 C 
BRANCH  26  27
HETATM   27  O   UNK N   1      23.073   9.790  -0.705  0.00  0.00    -0.398 OA
HETATM   28  H   UNK N   1      23.140   9.363  -1.575  0.00  0.00     0.209 HD
ENDBRANCH  26  27
ENDBRANCH  23  26
ENDBRANCH  22  23
ENDBRANCH  20  22
ENDBRANCH  12  18
BRANCH  15  29
HETATM   29  C   UNK N   1      19.619  16.864   3.721  0.00  0.00     0.254 C 
HETATM   30  O   UNK N   1      18.806  16.471   4.546  0.00  0.00    -0.268 OA
HETATM   31  N   UNK N   1      19.321  17.996   3.052  0.00  0.00    -0.354 N 
HETATM   32  H   UNK N   1      18.430  18.392   3.191  0.00  0.00     0.162 HD
BRANCH  31  33
HETATM   33  C   UNK N   1      20.211  18.653   2.157  0.00  0.00     0.156 C 
BRANCH  33  34
HETATM   34  C   UNK N   1      20.167  20.143   2.384  0.00  0.00     0.159 C 
BRANCH  34  35
HETATM   35  O   UNK N   1      21.024  20.456   3.434  0.00  0.00    -0.392 OA
HETATM   36  H   UNK N   1      21.146  21.374   3.721  0.00  0.00     0.210 HD
ENDBRANCH  34  35
BRANCH  34  37
HETATM   37  C   UNK N   1      20.614  20.863   1.126  0.00  0.00     0.197 C 
BRANCH  37  38
HETATM   38  O   UNK N   1      20.651  19.970   0.051  0.00  0.00    -0.398 OA
HETATM   39  H   UNK N   1      21.052  20.153  -0.813  0.00  0.00     0.209 HD
ENDBRANCH  37  38
ENDBRANCH  34  37
ENDBRANCH  33  34
ENDBRANCH  31  33
ENDBRANCH  15  29
ENDBRANCH   5   9
ENDBRANCH   4   5
ENDBRANCH   1   4
BRANCH   1  40
HETATM   40  C   UNK N   1      26.262  16.115   6.127  0.00  0.00     0.165 C 
BRANCH  40  41
HETATM   41  N   UNK N   1      27.244  16.652   5.234  0.00  0.00    -0.313 N 
HETATM   42  C   UNK N   1      27.021  17.871   4.650  0.00  0.00     0.220 C 
HETATM   43  O   UNK N   1      27.880  18.400   3.967  0.00  0.00    -0.273 OA
HETATM   44  C   UNK N   1      25.732  18.610   4.878  0.00  0.00     0.117 C 
BRANCH  41  45
HETATM   45  C   UNK N   1      28.545  16.055   5.208  0.00  0.00     0.072 C 
HETATM   46  C   UNK N   1      29.373  16.394   6.251  0.00  0.00     0.051 C 
HETATM   47  I   UNK N   1      28.629  17.513   7.967  0.00  0.00    -0.041 I 
HETATM   48  C   UNK N   1      30.690  15.994   6.202  0.00  0.00     0.068 C 
HETATM   49  C   UNK N   1      31.041  14.816   5.505  0.00  0.00     0.040 C 
HETATM   50  I   UNK N   1      32.892  13.823   5.900  0.00  0.00    -0.042 I 
HETATM   51  C   UNK N   1      30.166  14.317   4.534  0.00  0.00     0.068 C 
HETATM   52  C   UNK N   1      29.011  15.122   4.208  0.00  0.00     0.051 C 
HETATM   53  I   UNK N   1      28.029  14.904   2.305  0.00  0.00    -0.041 I 
BRANCH  48  54
HETATM   54  C   UNK N   1      31.696  16.980   6.652  0.00  0.00     0.254 C 
HETATM   55  O   UNK N   1      32.690  17.138   5.958  0.00  0.00    -0.268 OA
HETATM   56  N   UNK N   1      31.884  17.082   7.973  0.00  0.00    -0.354 N 
HETATM   57  H   UNK N   1      31.646  17.909   8.452  0.00  0.00     0.162 HD
BRANCH  56  58
HETATM   58  C   UNK N   1      32.447  15.952   8.684  0.00  0.00     0.156 C 
BRANCH  58  59
HETATM   59  C   UNK N   1      33.809  16.328   9.203  0.00  0.00     0.159 C 
BRANCH  59  60
HETATM   60  O   UNK N   1      34.710  16.302   8.135  0.00  0.00    -0.392 OA
HETATM   61  H   UNK N   1      34.949  16.955   7.460  0.00  0.00     0.210 HD
ENDBRANCH  59  60
BRANCH  59  62
HETATM   62  C   UNK N   1      34.191  15.342  10.306  0.00  0.00     0.197 C 
BRANCH  62  63
HETATM   63  O   UNK N   1      33.072  14.888  11.005  0.00  0.00    -0.398 OA
HETATM   64  H   UNK N   1      32.757  14.056  11.393  0.00  0.00     0.209 HD
ENDBRANCH  62  63
ENDBRANCH  59  62
ENDBRANCH  58  59
ENDBRANCH  56  58
ENDBRANCH  48  54
BRANCH  51  65
HETATM   65  C   UNK N   1      30.305  12.873   4.067  0.00  0.00     0.254 C 
HETATM   66  O   UNK N   1      31.057  12.651   3.123  0.00  0.00    -0.268 OA
HETATM   67  N   UNK N   1      29.754  11.811   4.669  0.00  0.00    -0.354 N 
HETATM   68  H   UNK N   1      30.307  11.028   4.896  0.00  0.00     0.162 HD
BRANCH  67  69
HETATM   69  C   UNK N   1      28.371  11.822   4.980  0.00  0.00     0.156 C 
BRANCH  69  70
HETATM   70  C   UNK N   1      27.732  11.088   3.804  0.00  0.00     0.159 C 
BRANCH  70  71
HETATM   71  O   UNK N   1      26.513  11.660   3.461  0.00  0.00    -0.392 OA
HETATM   72  H   UNK N   1      25.701  11.132   3.435  0.00  0.00     0.210 HD
ENDBRANCH  70  71
BRANCH  70  73
HETATM   73  C   UNK N   1      27.588   9.597   4.099  0.00  0.00     0.197 C 
BRANCH  73  74
HETATM   74  O   UNK N   1      28.479   9.212   5.102  0.00  0.00    -0.398 OA
HETATM   75  H   UNK N   1      28.608   8.837   5.988  0.00  0.00     0.209 HD
ENDBRANCH  73  74
ENDBRANCH  70  73
ENDBRANCH  69  70
ENDBRANCH  67  69
ENDBRANCH  51  65
ENDBRANCH  41  45
ENDBRANCH  40  41
ENDBRANCH   1  40
TORSDOF 31
ENDMDL
MODEL 6
REMARK VINA RESULT:      -6.0      2.797      6.059
REMARK  31 active torsions:
REMARK  status: ('A' for Active; 'I' for Inactive)
REMARK    1  A    between atoms: O_7  and  C_28 
REMARK    2  A    between atoms: O_14  and  C_55 
REMARK    3  A    between atoms: O_15  and  C_56 
REMARK    4  A    between atoms: O_16  and  C_57 
REMARK    5  A    between atoms: O_17  and  C_58 
REMARK    6  A    between atoms: O_18  and  C_59 
REMARK    7  A    between atoms: O_19  and  C_60 
REMARK    8  A    between atoms: O_20  and  C_61 
REMARK    9  A    between atoms: O_21  and  C_62 
REMARK   10  A    between atoms: N_22  and  C_29 
REMARK   11  A    between atoms: N_22  and  C_31 
REMARK       I    between atoms: N_22  and  C_33 
REMARK   12  A    between atoms: N_23  and  C_30 
REMARK   13  A    between atoms: N_23  and  C_32 
REMARK       I    between atoms: N_23  and  C_34 
REMARK       I    between atoms: N_24  and  C_47 
REMARK   14  A    between atoms: N_24  and  C_51 
REMARK       I    between atoms: N_25  and  C_48 
REMARK   15  A    between atoms: N_25  and  C_52 
REMARK       I    between atoms: N_26  and  C_49 
REMARK   16  A    between atoms: N_26  and  C_53 
REMARK       I    between atoms: N_27  and  C_50 
REMARK   17  A    between atoms: N_27  and  C_54 
REMARK   18  A    between atoms: C_28  and  C_29 
REMARK   19  A    between atoms: C_28  and  C_30 
REMARK   20  A    between atoms: C_39  and  C_49 
REMARK   21  A    between atoms: C_40  and  C_50 
REMARK   22  A    between atoms: C_41  and  C_47 
REMARK   23  A    between atoms: C_42  and  C_48 
REMARK   24  A    between atoms: C_51  and  C_55 
REMARK   25  A    between atoms: C_52  and  C_56 
REMARK   26  A    between atoms: C_53  and  C_57 
REMARK   27  A    between atoms: C_54  and  C_58 
REMARK   28  A    between atoms: C_55  and  C_59 
REMARK   29  A    between atoms: C_56  and  C_60 
REMARK   30  A    between atoms: C_57  and  C_61 
REMARK   31  A    between atoms: C_58  and  C_62 
ROOT
HETATM    1  C   UNK N   1      26.349  15.681   6.401  0.00  0.00     0.155 C 
ENDROOT
BRANCH   1   2
HETATM    2  O   UNK N   1      26.221  14.848   7.511  0.00  0.00    -0.392 OA
HETATM    3  H   UNK N   1      25.644  14.069   7.477  0.00  0.00     0.210 HD
ENDBRANCH   1   2
BRANCH   1   4
HETATM    4  C   UNK N   1      24.908  16.024   5.997  0.00  0.00     0.165 C 
BRANCH   4   5
HETATM    5  N   UNK N   1      24.510  15.293   4.863  0.00  0.00    -0.317 N 
HETATM    6  C   UNK N   1      24.489  15.836   3.636  0.00  0.00     0.220 C 
HETATM    7  O   UNK N   1      25.160  16.898   3.473  0.00  0.00    -0.273 OA
HETATM    8  C   UNK N   1      23.672  15.283   2.545  0.00  0.00     0.117 C 
BRANCH   5   9
HETATM    9  C   UNK N   1      24.008  13.907   4.894  0.00  0.00     0.050 C 
HETATM   10  C   UNK N   1      24.719  12.801   4.382  0.00  0.00     0.144 C 
HETATM   11  I   UNK N   1      26.737  12.325   4.903  0.00  0.00    -0.073 I 
HETATM   12  C   UNK N   1      24.154  11.577   4.532  0.00  0.00     0.047 C 
HETATM   13  C   UNK N   1      23.281  11.328   5.594  0.00  0.00     0.036 C 
HETATM   14  I   UNK N   1      23.118   9.282   6.131  0.00  0.00    -0.043 I 
HETATM   15  C   UNK N   1      22.753  12.419   6.304  0.00  0.00     0.067 C 
HETATM   16  C   UNK N   1      22.893  13.682   5.723  0.00  0.00     0.047 C 
HETATM   17  I   UNK N   1      21.511  15.262   6.355  0.00  0.00    -0.041 I 
BRANCH  12  18
HETATM   18  C   UNK N   1      23.962  10.873   3.292  0.00  0.00     0.250 C 
HETATM   19  O   UNK N   1      24.626   9.900   2.970  0.00  0.00    -0.268 OA
HETATM   20  N   UNK N   1      23.124  11.478   2.428  0.00  0.00    -0.355 N 
HETATM   21  H   UNK N   1      22.807  12.384   2.648  0.00  0.00     0.162 HD
BRANCH  20  22
HETATM   22  C   UNK N   1      22.669  10.890   1.219  0.00  0.00     0.156 C 
BRANCH  22  23
HETATM   23  C   UNK N   1      23.631  11.317   0.121  0.00  0.00     0.159 C 
BRANCH  23  24
HETATM   24  O   UNK N   1      23.331  12.582  -0.406  0.00  0.00    -0.392 OA
HETATM   25  H   UNK N   1      23.989  13.229  -0.705  0.00  0.00     0.210 HD
ENDBRANCH  23  24
BRANCH  23  26
HETATM   26  C   UNK N   1      23.543  10.305  -0.982  0.00  0.00     0.197 C 
BRANCH  26  27
HETATM   27  O   UNK N   1      24.186   9.148  -0.560  0.00  0.00    -0.398 OA
HETATM   28  H   UNK N   1      24.456   9.025   0.365  0.00  0.00     0.209 HD
ENDBRANCH  26  27
ENDBRANCH  23  26
ENDBRANCH  22  23
ENDBRANCH  20  22
ENDBRANCH  12  18
BRANCH  15  29
HETATM   29  C   UNK N   1      22.208  12.406   7.708  0.00  0.00     0.254 C 
HETATM   30  O   UNK N   1      20.992  12.350   7.829  0.00  0.00    -0.268 OA
HETATM   31  N   UNK N   1      22.937  12.500   8.838  0.00  0.00    -0.354 N 
HETATM   32  H   UNK N   1      22.455  12.614   9.689  0.00  0.00     0.162 HD
BRANCH  31  33
HETATM   33  C   UNK N   1      24.359  12.448   8.878  0.00  0.00     0.156 C 
BRANCH  33  34
HETATM   34  C   UNK N   1      24.830  12.276  10.300  0.00  0.00     0.159 C 
BRANCH  34  35
HETATM   35  O   UNK N   1      25.583  13.390  10.654  0.00  0.00    -0.392 OA
HETATM   36  H   UNK N   1      26.518  13.460  10.403  0.00  0.00     0.210 HD
ENDBRANCH  34  35
BRANCH  34  37
HETATM   37  C   UNK N   1      23.631  12.154  11.222  0.00  0.00     0.197 C 
BRANCH  37  38
HETATM   38  O   UNK N   1      24.039  12.247  12.555  0.00  0.00    -0.398 OA
HETATM   39  H   UNK N   1      24.877  12.631  12.857  0.00  0.00     0.209 HD
ENDBRANCH  37  38
ENDBRANCH  34  37
ENDBRANCH  33  34
ENDBRANCH  31  33
ENDBRANCH  15  29
ENDBRANCH   5   9
ENDBRANCH   4   5
ENDBRANCH   1   4
BRANCH   1  40
HETATM   40  C   UNK N   1      27.161  16.938   6.819  0.00  0.00     0.165 C 
BRANCH  40  41
HETATM   41  N   UNK N   1      28.245  17.384   5.996  0.00  0.00    -0.313 N 
HETATM   42  C   UNK N   1      28.129  18.573   5.325  0.00  0.00     0.220 C 
HETATM   43  O   UNK N   1      29.070  19.028   4.700  0.00  0.00    -0.273 OA
HETATM   44  C   UNK N   1      26.856  19.371   5.385  0.00  0.00     0.117 C 
BRANCH  41  45
HETATM   45  C   UNK N   1      29.516  16.740   6.130  0.00  0.00     0.072 C 
HETATM   46  C   UNK N   1      29.836  15.848   5.136  0.00  0.00     0.051 C 
HETATM   47  I   UNK N   1      28.618  15.674   3.337  0.00  0.00    -0.041 I 
HETATM   48  C   UNK N   1      30.962  15.069   5.288  0.00  0.00     0.068 C 
HETATM   49  C   UNK N   1      32.053  15.552   6.046  0.00  0.00     0.040 C 
HETATM   50  I   UNK N   1      34.004  14.712   5.812  0.00  0.00    -0.042 I 
HETATM   51  C   UNK N   1      31.834  16.579   6.971  0.00  0.00     0.068 C 
HETATM   52  C   UNK N   1      30.466  16.990   7.190  0.00  0.00     0.051 C 
HETATM   53  I   UNK N   1      29.897  17.957   9.027  0.00  0.00    -0.041 I 
BRANCH  48  54
HETATM   54  C   UNK N   1      30.847  13.653   4.876  0.00  0.00     0.254 C 
HETATM   55  O   UNK N   1      31.355  12.807   5.596  0.00  0.00    -0.268 OA
HETATM   56  N   UNK N   1      30.896  13.408   3.562  0.00  0.00    -0.354 N 
HETATM   57  H   UNK N   1      30.110  13.051   3.088  0.00  0.00     0.162 HD
BRANCH  56  58
HETATM   58  C   UNK N   1      32.129  13.675   2.850  0.00  0.00     0.156 C 
BRANCH  58  59
HETATM   59  C   UNK N   1      32.644  12.390   2.261  0.00  0.00     0.159 C 
BRANCH  59  60
HETATM   60  O   UNK N   1      32.964  11.522   3.309  0.00  0.00    -0.392 OA
HETATM   61  H   UNK N   1      33.626  11.561   4.016  0.00  0.00     0.210 HD
ENDBRANCH  59  60
BRANCH  59  62
HETATM   62  C   UNK N   1      33.857  12.714   1.389  0.00  0.00     0.197 C 
BRANCH  62  63
HETATM   63  O   UNK N   1      34.177  14.071   1.432  0.00  0.00    -0.398 OA
HETATM   64  H   UNK N   1      34.499  14.712   2.085  0.00  0.00     0.209 HD
ENDBRANCH  62  63
ENDBRANCH  59  62
ENDBRANCH  58  59
ENDBRANCH  56  58
ENDBRANCH  48  54
BRANCH  51  65
HETATM   65  C   UNK N   1      33.016  17.385   7.494  0.00  0.00     0.254 C 
HETATM   66  O   UNK N   1      33.548  18.179   6.725  0.00  0.00    -0.268 OA
HETATM   67  N   UNK N   1      33.458  17.375   8.759  0.00  0.00    -0.354 N 
HETATM   68  H   UNK N   1      33.598  18.222   9.241  0.00  0.00     0.162 HD
BRANCH  67  69
HETATM   69  C   UNK N   1      33.720  16.137   9.399  0.00  0.00     0.156 C 
BRANCH  69  70
HETATM   70  C   UNK N   1      34.881  16.456  10.338  0.00  0.00     0.159 C 
BRANCH  70  71
HETATM   71  O   UNK N   1      35.413  17.710  10.066  0.00  0.00    -0.392 OA
HETATM   72  H   UNK N   1      35.348  18.433  10.708  0.00  0.00     0.210 HD
ENDBRANCH  70  71
BRANCH  70  73
HETATM   73  C   UNK N   1      35.951  15.368  10.276  0.00  0.00     0.197 C 
BRANCH  73  74
HETATM   74  O   UNK N   1      37.165  15.850  10.767  0.00  0.00    -0.398 OA
HETATM   75  H   UNK N   1      37.626  16.417  11.405  0.00  0.00     0.209 HD
ENDBRANCH  73  74
ENDBRANCH  70  73
ENDBRANCH  69  70
ENDBRANCH  67  69
ENDBRANCH  51  65
ENDBRANCH  41  45
ENDBRANCH  40  41
ENDBRANCH   1  40
TORSDOF 31
ENDMDL
MODEL 7
REMARK VINA RESULT:      -6.0      3.058     10.342
REMARK  31 active torsions:
REMARK  status: ('A' for Active; 'I' for Inactive)
REMARK    1  A    between atoms: O_7  and  C_28 
REMARK    2  A    between atoms: O_14  and  C_55 
REMARK    3  A    between atoms: O_15  and  C_56 
REMARK    4  A    between atoms: O_16  and  C_57 
REMARK    5  A    between atoms: O_17  and  C_58 
REMARK    6  A    between atoms: O_18  and  C_59 
REMARK    7  A    between atoms: O_19  and  C_60 
REMARK    8  A    between atoms: O_20  and  C_61 
REMARK    9  A    between atoms: O_21  and  C_62 
REMARK   10  A    between atoms: N_22  and  C_29 
REMARK   11  A    between atoms: N_22  and  C_31 
REMARK       I    between atoms: N_22  and  C_33 
REMARK   12  A    between atoms: N_23  and  C_30 
REMARK   13  A    between atoms: N_23  and  C_32 
REMARK       I    between atoms: N_23  and  C_34 
REMARK       I    between atoms: N_24  and  C_47 
REMARK   14  A    between atoms: N_24  and  C_51 
REMARK       I    between atoms: N_25  and  C_48 
REMARK   15  A    between atoms: N_25  and  C_52 
REMARK       I    between atoms: N_26  and  C_49 
REMARK   16  A    between atoms: N_26  and  C_53 
REMARK       I    between atoms: N_27  and  C_50 
REMARK   17  A    between atoms: N_27  and  C_54 
REMARK   18  A    between atoms: C_28  and  C_29 
REMARK   19  A    between atoms: C_28  and  C_30 
REMARK   20  A    between atoms: C_39  and  C_49 
REMARK   21  A    between atoms: C_40  and  C_50 
REMARK   22  A    between atoms: C_41  and  C_47 
REMARK   23  A    between atoms: C_42  and  C_48 
REMARK   24  A    between atoms: C_51  and  C_55 
REMARK   25  A    between atoms: C_52  and  C_56 
REMARK   26  A    between atoms: C_53  and  C_57 
REMARK   27  A    between atoms: C_54  and  C_58 
REMARK   28  A    between atoms: C_55  and  C_59 
REMARK   29  A    between atoms: C_56  and  C_60 
REMARK   30  A    between atoms: C_57  and  C_61 
REMARK   31  A    between atoms: C_58  and  C_62 
ROOT
HETATM    1  C   UNK N   1      28.754  14.126   4.859  0.00  0.00     0.155 C 
ENDROOT
BRANCH   1   2
HETATM    2  O   UNK N   1      28.622  14.348   3.489  0.00  0.00    -0.392 OA
HETATM    3  H   UNK N   1      28.404  13.617   2.890  0.00  0.00     0.210 HD
ENDBRANCH   1   2
BRANCH   1   4
HETATM    4  C   UNK N   1      28.992  15.517   5.463  0.00  0.00     0.165 C 
BRANCH   4   5
HETATM    5  N   UNK N   1      30.333  15.915   5.310  0.00  0.00    -0.317 N 
HETATM    6  C   UNK N   1      30.677  17.002   4.602  0.00  0.00     0.220 C 
HETATM    7  O   UNK N   1      29.759  17.845   4.374  0.00  0.00    -0.273 OA
HETATM    8  C   UNK N   1      32.027  17.184   4.047  0.00  0.00     0.117 C 
BRANCH   5   9
HETATM    9  C   UNK N   1      31.493  15.166   5.827  0.00  0.00     0.050 C 
HETATM   10  C   UNK N   1      32.093  14.081   5.154  0.00  0.00     0.144 C 
HETATM   11  I   UNK N   1      32.750  14.145   3.120  0.00  0.00    -0.073 I 
HETATM   12  C   UNK N   1      33.190  13.526   5.726  0.00  0.00     0.047 C 
HETATM   13  C   UNK N   1      34.017  14.289   6.554  0.00  0.00     0.036 C 
HETATM   14  I   UNK N   1      36.003  13.560   6.719  0.00  0.00    -0.043 I 
HETATM   15  C   UNK N   1      33.540  15.520   7.036  0.00  0.00     0.067 C 
HETATM   16  C   UNK N   1      32.170  15.764   6.907  0.00  0.00     0.047 C 
HETATM   17  I   UNK N   1      31.262  17.248   8.240  0.00  0.00    -0.041 I 
BRANCH  12  18
HETATM   18  C   UNK N   1      33.057  12.116   5.983  0.00  0.00     0.250 C 
HETATM   19  O   UNK N   1      32.780  11.305   5.113  0.00  0.00    -0.268 OA
HETATM   20  N   UNK N   1      33.077  11.780   7.288  0.00  0.00    -0.355 N 
HETATM   21  H   UNK N   1      33.060  12.505   7.952  0.00  0.00     0.162 HD
BRANCH  20  22
HETATM   22  C   UNK N   1      33.119  10.442   7.762  0.00  0.00     0.156 C 
BRANCH  22  23
HETATM   23  C   UNK N   1      32.778  10.479   9.243  0.00  0.00     0.159 C 
BRANCH  23  24
HETATM   24  O   UNK N   1      32.041  11.617   9.606  0.00  0.00    -0.392 OA
HETATM   25  H   UNK N   1      32.425  12.483   9.816  0.00  0.00     0.210 HD
ENDBRANCH  23  24
BRANCH  23  26
HETATM   26  C   UNK N   1      34.067  10.478  10.009  0.00  0.00     0.197 C 
BRANCH  26  27
HETATM   27  O   UNK N   1      33.896  11.259  11.144  0.00  0.00    -0.398 OA
HETATM   28  H   UNK N   1      33.956  10.880  12.036  0.00  0.00     0.209 HD
ENDBRANCH  26  27
ENDBRANCH  23  26
ENDBRANCH  22  23
ENDBRANCH  20  22
ENDBRANCH  12  18
BRANCH  15  29
HETATM   29  C   UNK N   1      34.365  16.684   7.517  0.00  0.00     0.254 C 
HETATM   30  O   UNK N   1      34.606  17.565   6.704  0.00  0.00    -0.268 OA
HETATM   31  N   UNK N   1      34.901  16.817   8.748  0.00  0.00    -0.354 N 
HETATM   32  H   UNK N   1      35.530  17.559   8.899  0.00  0.00     0.162 HD
BRANCH  31  33
HETATM   33  C   UNK N   1      34.615  15.951   9.841  0.00  0.00     0.156 C 
BRANCH  33  34
HETATM   34  C   UNK N   1      35.879  15.273  10.307  0.00  0.00     0.159 C 
BRANCH  34  35
HETATM   35  O   UNK N   1      36.696  16.226  10.906  0.00  0.00    -0.392 OA
HETATM   36  H   UNK N   1      36.907  17.057  10.453  0.00  0.00     0.210 HD
ENDBRANCH  34  35
BRANCH  34  37
HETATM   37  C   UNK N   1      35.534  14.190  11.311  0.00  0.00     0.197 C 
BRANCH  37  38
HETATM   38  O   UNK N   1      34.202  14.316  11.714  0.00  0.00    -0.398 OA
HETATM   39  H   UNK N   1      33.481  13.722  11.454  0.00  0.00     0.209 HD
ENDBRANCH  37  38
ENDBRANCH  34  37
ENDBRANCH  33  34
ENDBRANCH  31  33
ENDBRANCH  15  29
ENDBRANCH   5   9
ENDBRANCH   4   5
ENDBRANCH   1   4
BRANCH   1  40
HETATM   40  C   UNK N   1      27.446  13.470   5.380  0.00  0.00     0.165 C 
BRANCH  40  41
HETATM   41  N   UNK N   1      26.244  13.586   4.611  0.00  0.00    -0.313 N 
HETATM   42  C   UNK N   1      25.891  12.568   3.765  0.00  0.00     0.220 C 
HETATM   43  O   UNK N   1      24.825  12.591   3.175  0.00  0.00    -0.273 OA
HETATM   44  C   UNK N   1      26.784  11.373   3.581  0.00  0.00     0.117 C 
BRANCH  41  45
HETATM   45  C   UNK N   1      25.302  14.606   4.962  0.00  0.00     0.072 C 
HETATM   46  C   UNK N   1      25.245  15.680   4.107  0.00  0.00     0.051 C 
HETATM   47  I   UNK N   1      26.298  15.663   2.199  0.00  0.00    -0.041 I 
HETATM   48  C   UNK N   1      24.489  16.771   4.472  0.00  0.00     0.068 C 
HETATM   49  C   UNK N   1      23.361  16.598   5.305  0.00  0.00     0.040 C 
HETATM   50  I   UNK N   1      21.829  18.084   5.395  0.00  0.00    -0.042 I 
HETATM   51  C   UNK N   1      23.270  15.443   6.091  0.00  0.00     0.068 C 
HETATM   52  C   UNK N   1      24.413  14.559   6.100  0.00  0.00     0.051 C 
HETATM   53  I   UNK N   1      24.741  13.215   7.749  0.00  0.00    -0.041 I 
BRANCH  48  54
HETATM   54  C   UNK N   1      25.070  18.102   4.191  0.00  0.00     0.254 C 
HETATM   55  O   UNK N   1      25.670  18.251   3.136  0.00  0.00    -0.268 OA
HETATM   56  N   UNK N   1      25.558  18.775   5.240  0.00  0.00    -0.354 N 
HETATM   57  H   UNK N   1      25.139  19.615   5.536  0.00  0.00     0.162 HD
BRANCH  56  58
HETATM   58  C   UNK N   1      26.715  18.243   5.930  0.00  0.00     0.156 C 
BRANCH  58  59
HETATM   59  C   UNK N   1      27.583  19.386   6.385  0.00  0.00     0.159 C 
BRANCH  59  60
HETATM   60  O   UNK N   1      27.088  19.854   7.606  0.00  0.00    -0.392 OA
HETATM   61  H   UNK N   1      27.461  19.879   8.501  0.00  0.00     0.210 HD
ENDBRANCH  59  60
BRANCH  59  62
HETATM   62  C   UNK N   1      27.563  20.464   5.303  0.00  0.00     0.197 C 
BRANCH  62  63
HETATM   63  O   UNK N   1      28.044  19.982   4.084  0.00  0.00    -0.398 OA
HETATM   64  H   UNK N   1      28.073  20.273   3.159  0.00  0.00     0.209 HD
ENDBRANCH  62  63
ENDBRANCH  59  62
ENDBRANCH  58  59
ENDBRANCH  56  58
ENDBRANCH  48  54
BRANCH  51  65
HETATM   65  C   UNK N   1      21.923  15.033   6.672  0.00  0.00     0.254 C 
HETATM   66  O   UNK N   1      21.672  15.374   7.823  0.00  0.00    -0.268 OA
HETATM   67  N   UNK N   1      20.945  14.418   5.993  0.00  0.00    -0.354 N 
HETATM   68  H   UNK N   1      20.027  14.776   6.013  0.00  0.00     0.162 HD
BRANCH  67  69
HETATM   69  C   UNK N   1      21.239  13.251   5.243  0.00  0.00     0.156 C 
BRANCH  69  70
HETATM   70  C   UNK N   1      20.989  13.679   3.799  0.00  0.00     0.159 C 
BRANCH  70  71
HETATM   71  O   UNK N   1      22.183  13.958   3.146  0.00  0.00    -0.392 OA
HETATM   72  H   UNK N   1      22.310  14.792   2.668  0.00  0.00     0.210 HD
ENDBRANCH  70  71
BRANCH  70  73
HETATM   73  C   UNK N   1      20.025  14.861   3.737  0.00  0.00     0.197 C 
BRANCH  73  74
HETATM   74  O   UNK N   1      18.704  14.417   3.808  0.00  0.00    -0.398 OA
HETATM   75  H   UNK N   1      17.991  14.043   4.349  0.00  0.00     0.209 HD
ENDBRANCH  73  74
ENDBRANCH  70  73
ENDBRANCH  69  70
ENDBRANCH  67  69
ENDBRANCH  51  65
ENDBRANCH  41  45
ENDBRANCH  40  41
ENDBRANCH   1  40
TORSDOF 31
ENDMDL
MODEL 8
REMARK VINA RESULT:      -5.9      2.845      5.292
REMARK  31 active torsions:
REMARK  status: ('A' for Active; 'I' for Inactive)
REMARK    1  A    between atoms: O_7  and  C_28 
REMARK    2  A    between atoms: O_14  and  C_55 
REMARK    3  A    between atoms: O_15  and  C_56 
REMARK    4  A    between atoms: O_16  and  C_57 
REMARK    5  A    between atoms: O_17  and  C_58 
REMARK    6  A    between atoms: O_18  and  C_59 
REMARK    7  A    between atoms: O_19  and  C_60 
REMARK    8  A    between atoms: O_20  and  C_61 
REMARK    9  A    between atoms: O_21  and  C_62 
REMARK   10  A    between atoms: N_22  and  C_29 
REMARK   11  A    between atoms: N_22  and  C_31 
REMARK       I    between atoms: N_22  and  C_33 
REMARK   12  A    between atoms: N_23  and  C_30 
REMARK   13  A    between atoms: N_23  and  C_32 
REMARK       I    between atoms: N_23  and  C_34 
REMARK       I    between atoms: N_24  and  C_47 
REMARK   14  A    between atoms: N_24  and  C_51 
REMARK       I    between atoms: N_25  and  C_48 
REMARK   15  A    between atoms: N_25  and  C_52 
REMARK       I    between atoms: N_26  and  C_49 
REMARK   16  A    between atoms: N_26  and  C_53 
REMARK       I    between atoms: N_27  and  C_50 
REMARK   17  A    between atoms: N_27  and  C_54 
REMARK   18  A    between atoms: C_28  and  C_29 
REMARK   19  A    between atoms: C_28  and  C_30 
REMARK   20  A    between atoms: C_39  and  C_49 
REMARK   21  A    between atoms: C_40  and  C_50 
REMARK   22  A    between atoms: C_41  and  C_47 
REMARK   23  A    between atoms: C_42  and  C_48 
REMARK   24  A    between atoms: C_51  and  C_55 
REMARK   25  A    between atoms: C_52  and  C_56 
REMARK   26  A    between atoms: C_53  and  C_57 
REMARK   27  A    between atoms: C_54  and  C_58 
REMARK   28  A    between atoms: C_55  and  C_59 
REMARK   29  A    between atoms: C_56  and  C_60 
REMARK   30  A    between atoms: C_57  and  C_61 
REMARK   31  A    between atoms: C_58  and  C_62 
ROOT
HETATM    1  C   UNK N   1      25.764  16.015   5.588  0.00  0.00     0.155 C 
ENDROOT
BRANCH   1   2
HETATM    2  O   UNK N   1      26.208  14.734   5.909  0.00  0.00    -0.392 OA
HETATM    3  H   UNK N   1      25.833  14.259   6.668  0.00  0.00     0.210 HD
ENDBRANCH   1   2
BRANCH   1   4
HETATM    4  C   UNK N   1      24.298  16.050   6.043  0.00  0.00     0.165 C 
BRANCH   4   5
HETATM    5  N   UNK N   1      23.424  16.080   4.941  0.00  0.00    -0.317 N 
HETATM    6  C   UNK N   1      23.083  17.228   4.333  0.00  0.00     0.220 C 
HETATM    7  O   UNK N   1      23.830  18.228   4.549  0.00  0.00    -0.273 OA
HETATM    8  C   UNK N   1      21.866  17.354   3.517  0.00  0.00     0.117 C 
BRANCH   5   9
HETATM    9  C   UNK N   1      22.735  14.901   4.385  0.00  0.00     0.050 C 
HETATM   10  C   UNK N   1      23.091  14.284   3.167  0.00  0.00     0.144 C 
HETATM   11  I   UNK N   1      25.072  13.643   2.679  0.00  0.00    -0.073 I 
HETATM   12  C   UNK N   1      22.402  13.172   2.810  0.00  0.00     0.047 C 
HETATM   13  C   UNK N   1      21.827  12.354   3.787  0.00  0.00     0.036 C 
HETATM   14  I   UNK N   1      21.494  10.353   3.167  0.00  0.00    -0.043 I 
HETATM   15  C   UNK N   1      21.697  12.853   5.094  0.00  0.00     0.067 C 
HETATM   16  C   UNK N   1      21.871  14.228   5.269  0.00  0.00     0.047 C 
HETATM   17  I   UNK N   1      20.988  15.157   7.047  0.00  0.00    -0.041 I 
BRANCH  12  18
HETATM   18  C   UNK N   1      21.766  13.274   1.524  0.00  0.00     0.250 C 
HETATM   19  O   UNK N   1      22.351  13.061   0.473  0.00  0.00    -0.268 OA
HETATM   20  N   UNK N   1      20.527  13.803   1.552  0.00  0.00    -0.355 N 
HETATM   21  H   UNK N   1      20.204  14.180   2.402  0.00  0.00     0.162 HD
BRANCH  20  22
HETATM   22  C   UNK N   1      19.659  13.852   0.429  0.00  0.00     0.156 C 
BRANCH  22  23
HETATM   23  C   UNK N   1      18.872  15.150   0.525  0.00  0.00     0.159 C 
BRANCH  23  24
HETATM   24  O   UNK N   1      18.003  15.343  -0.559  0.00  0.00    -0.392 OA
HETATM   25  H   UNK N   1      17.983  14.796  -1.360  0.00  0.00     0.210 HD
ENDBRANCH  23  24
BRANCH  23  26
HETATM   26  C   UNK N   1      19.856  16.280   0.558  0.00  0.00     0.197 C 
BRANCH  26  27
HETATM   27  O   UNK N   1      19.214  17.399   1.072  0.00  0.00    -0.398 OA
HETATM   28  H   UNK N   1      18.250  17.500   1.021  0.00  0.00     0.209 HD
ENDBRANCH  26  27
ENDBRANCH  23  26
ENDBRANCH  22  23
ENDBRANCH  20  22
ENDBRANCH  12  18
BRANCH  15  29
HETATM   29  C   UNK N   1      21.566  12.049   6.360  0.00  0.00     0.254 C 
HETATM   30  O   UNK N   1      20.476  11.539   6.582  0.00  0.00    -0.268 OA
HETATM   31  N   UNK N   1      22.525  11.881   7.292  0.00  0.00    -0.354 N 
HETATM   32  H   UNK N   1      22.275  11.444   8.138  0.00  0.00     0.162 HD
BRANCH  31  33
HETATM   33  C   UNK N   1      23.877  12.298   7.130  0.00  0.00     0.156 C 
BRANCH  33  34
HETATM   34  C   UNK N   1      24.511  12.530   8.478  0.00  0.00     0.159 C 
BRANCH  34  35
HETATM   35  O   UNK N   1      25.325  13.654   8.397  0.00  0.00    -0.392 OA
HETATM   36  H   UNK N   1      26.226  13.593   8.042  0.00  0.00     0.210 HD
ENDBRANCH  34  35
BRANCH  34  37
HETATM   37  C   UNK N   1      23.428  12.755   9.517  0.00  0.00     0.197 C 
BRANCH  37  38
HETATM   38  O   UNK N   1      23.182  11.570  10.217  0.00  0.00    -0.398 OA
HETATM   39  H   UNK N   1      22.824  11.517  11.116  0.00  0.00     0.209 HD
ENDBRANCH  37  38
ENDBRANCH  34  37
ENDBRANCH  33  34
ENDBRANCH  31  33
ENDBRANCH  15  29
ENDBRANCH   5   9
ENDBRANCH   4   5
ENDBRANCH   1   4
BRANCH   1  40
HETATM   40  C   UNK N   1      26.643  17.047   6.347  0.00  0.00     0.165 C 
BRANCH  40  41
HETATM   41  N   UNK N   1      27.885  17.472   5.775  0.00  0.00    -0.313 N 
HETATM   42  C   UNK N   1      27.997  18.750   5.294  0.00  0.00     0.220 C 
HETATM   43  O   UNK N   1      29.068  19.172   4.896  0.00  0.00    -0.273 OA
HETATM   44  C   UNK N   1      26.815  19.679   5.293  0.00  0.00     0.117 C 
BRANCH  41  45
HETATM   45  C   UNK N   1      29.048  16.666   5.991  0.00  0.00     0.072 C 
HETATM   46  C   UNK N   1      29.407  15.852   4.944  0.00  0.00     0.051 C 
HETATM   47  I   UNK N   1      28.442  16.020   2.997  0.00  0.00    -0.041 I 
HETATM   48  C   UNK N   1      30.411  14.929   5.142  0.00  0.00     0.068 C 
HETATM   49  C   UNK N   1      31.430  15.191   6.085  0.00  0.00     0.040 C 
HETATM   50  I   UNK N   1      33.292  14.148   6.000  0.00  0.00    -0.042 I 
HETATM   51  C   UNK N   1      31.195  16.133   7.093  0.00  0.00     0.068 C 
HETATM   52  C   UNK N   1      29.862  16.684   7.185  0.00  0.00     0.051 C 
HETATM   53  I   UNK N   1      29.148  17.513   9.038  0.00  0.00    -0.041 I 
BRANCH  48  54
HETATM   54  C   UNK N   1      30.203  13.590   4.550  0.00  0.00     0.254 C 
HETATM   55  O   UNK N   1      30.487  12.615   5.230  0.00  0.00    -0.268 OA
HETATM   56  N   UNK N   1      30.435  13.474   3.237  0.00  0.00    -0.354 N 
HETATM   57  H   UNK N   1      29.701  13.274   2.613  0.00  0.00     0.162 HD
BRANCH  56  58
HETATM   58  C   UNK N   1      31.790  13.648   2.753  0.00  0.00     0.156 C 
BRANCH  58  59
HETATM   59  C   UNK N   1      32.256  12.362   2.126  0.00  0.00     0.159 C 
BRANCH  59  60
HETATM   60  O   UNK N   1      32.395  11.405   3.135  0.00  0.00    -0.392 OA
HETATM   61  H   UNK N   1      31.909  11.241   3.958  0.00  0.00     0.210 HD
ENDBRANCH  59  60
BRANCH  59  62
HETATM   62  C   UNK N   1      33.573  12.631   1.400  0.00  0.00     0.197 C 
BRANCH  62  63
HETATM   63  O   UNK N   1      33.973  13.962   1.530  0.00  0.00    -0.398 OA
HETATM   64  H   UNK N   1      33.583  14.843   1.415  0.00  0.00     0.209 HD
ENDBRANCH  62  63
ENDBRANCH  59  62
ENDBRANCH  58  59
ENDBRANCH  56  58
ENDBRANCH  48  54
BRANCH  51  65
HETATM   65  C   UNK N   1      32.372  16.729   7.855  0.00  0.00     0.254 C 
HETATM   66  O   UNK N   1      33.034  17.595   7.293  0.00  0.00    -0.268 OA
HETATM   67  N   UNK N   1      32.681  16.458   9.131  0.00  0.00    -0.354 N 
HETATM   68  H   UNK N   1      32.831  17.192   9.770  0.00  0.00     0.162 HD
BRANCH  67  69
HETATM   69  C   UNK N   1      32.788  15.109   9.555  0.00  0.00     0.156 C 
BRANCH  69  70
HETATM   70  C   UNK N   1      34.162  15.048  10.217  0.00  0.00     0.159 C 
BRANCH  70  71
HETATM   71  O   UNK N   1      34.057  14.685  11.553  0.00  0.00    -0.392 OA
HETATM   72  H   UNK N   1      34.829  14.695  12.139  0.00  0.00     0.210 HD
ENDBRANCH  70  71
BRANCH  70  73
HETATM   73  C   UNK N   1      34.909  16.369  10.052  0.00  0.00     0.197 C 
BRANCH  73  74
HETATM   74  O   UNK N   1      34.928  17.072  11.258  0.00  0.00    -0.398 OA
HETATM   75  H   UNK N   1      34.615  17.141  12.173  0.00  0.00     0.209 HD
ENDBRANCH  73  74
ENDBRANCH  70  73
ENDBRANCH  69  70
ENDBRANCH  67  69
ENDBRANCH  51  65
ENDBRANCH  41  45
ENDBRANCH  40  41
ENDBRANCH   1  40
TORSDOF 31
ENDMDL
MODEL 9
REMARK VINA RESULT:      -5.9      2.203      8.769
REMARK  31 active torsions:
REMARK  status: ('A' for Active; 'I' for Inactive)
REMARK    1  A    between atoms: O_7  and  C_28 
REMARK    2  A    between atoms: O_14  and  C_55 
REMARK    3  A    between atoms: O_15  and  C_56 
REMARK    4  A    between atoms: O_16  and  C_57 
REMARK    5  A    between atoms: O_17  and  C_58 
REMARK    6  A    between atoms: O_18  and  C_59 
REMARK    7  A    between atoms: O_19  and  C_60 
REMARK    8  A    between atoms: O_20  and  C_61 
REMARK    9  A    between atoms: O_21  and  C_62 
REMARK   10  A    between atoms: N_22  and  C_29 
REMARK   11  A    between atoms: N_22  and  C_31 
REMARK       I    between atoms: N_22  and  C_33 
REMARK   12  A    between atoms: N_23  and  C_30 
REMARK   13  A    between atoms: N_23  and  C_32 
REMARK       I    between atoms: N_23  and  C_34 
REMARK       I    between atoms: N_24  and  C_47 
REMARK   14  A    between atoms: N_24  and  C_51 
REMARK       I    between atoms: N_25  and  C_48 
REMARK   15  A    between atoms: N_25  and  C_52 
REMARK       I    between atoms: N_26  and  C_49 
REMARK   16  A    between atoms: N_26  and  C_53 
REMARK       I    between atoms: N_27  and  C_50 
REMARK   17  A    between atoms: N_27  and  C_54 
REMARK   18  A    between atoms: C_28  and  C_29 
REMARK   19  A    between atoms: C_28  and  C_30 
REMARK   20  A    between atoms: C_39  and  C_49 
REMARK   21  A    between atoms: C_40  and  C_50 
REMARK   22  A    between atoms: C_41  and  C_47 
REMARK   23  A    between atoms: C_42  and  C_48 
REMARK   24  A    between atoms: C_51  and  C_55 
REMARK   25  A    between atoms: C_52  and  C_56 
REMARK   26  A    between atoms: C_53  and  C_57 
REMARK   27  A    between atoms: C_54  and  C_58 
REMARK   28  A    between atoms: C_55  and  C_59 
REMARK   29  A    between atoms: C_56  and  C_60 
REMARK   30  A    between atoms: C_57  and  C_61 
REMARK   31  A    between atoms: C_58  and  C_62 
ROOT
HETATM    1  C   UNK N   1      27.065  13.174   3.470  0.00  0.00     0.155 C 
ENDROOT
BRANCH   1   2
HETATM    2  O   UNK N   1      26.484  14.420   3.241  0.00  0.00    -0.392 OA
HETATM    3  H   UNK N   1      25.587  14.485   2.876  0.00  0.00     0.210 HD
ENDBRANCH   1   2
BRANCH   1   4
HETATM    4  C   UNK N   1      28.404  13.484   4.154  0.00  0.00     0.165 C 
BRANCH   4   5
HETATM    5  N   UNK N   1      28.834  14.791   3.861  0.00  0.00    -0.317 N 
HETATM    6  C   UNK N   1      29.128  15.181   2.611  0.00  0.00     0.220 C 
HETATM    7  O   UNK N   1      28.679  14.460   1.671  0.00  0.00    -0.273 OA
HETATM    8  C   UNK N   1      29.990  16.340   2.331  0.00  0.00     0.117 C 
BRANCH   5   9
HETATM    9  C   UNK N   1      29.081  15.838   4.870  0.00  0.00     0.050 C 
HETATM   10  C   UNK N   1      28.059  16.561   5.519  0.00  0.00     0.144 C 
HETATM   11  I   UNK N   1      26.403  15.660   6.528  0.00  0.00    -0.073 I 
HETATM   12  C   UNK N   1      28.438  17.455   6.467  0.00  0.00     0.047 C 
HETATM   13  C   UNK N   1      29.628  17.271   7.176  0.00  0.00     0.036 C 
HETATM   14  I   UNK N   1      29.685  18.247   9.059  0.00  0.00    -0.043 I 
HETATM   15  C   UNK N   1      30.568  16.348   6.688  0.00  0.00     0.067 C 
HETATM   16  C   UNK N   1      30.393  15.895   5.378  0.00  0.00     0.047 C 
HETATM   17  I   UNK N   1      32.138  15.081   4.330  0.00  0.00    -0.041 I 
BRANCH  12  18
HETATM   18  C   UNK N   1      27.977  18.795   6.215  0.00  0.00     0.250 C 
HETATM   19  O   UNK N   1      27.719  19.588   7.107  0.00  0.00    -0.268 OA
HETATM   20  N   UNK N   1      27.671  19.050   4.927  0.00  0.00    -0.355 N 
HETATM   21  H   UNK N   1      27.671  18.296   4.295  0.00  0.00     0.162 HD
BRANCH  20  22
HETATM   22  C   UNK N   1      27.350  20.339   4.428  0.00  0.00     0.156 C 
BRANCH  22  23
HETATM   23  C   UNK N   1      26.219  20.165   3.427  0.00  0.00     0.159 C 
BRANCH  23  24
HETATM   24  O   UNK N   1      26.227  21.141   2.419  0.00  0.00    -0.392 OA
HETATM   25  H   UNK N   1      27.020  21.590   2.086  0.00  0.00     0.210 HD
ENDBRANCH  23  24
BRANCH  23  26
HETATM   26  C   UNK N   1      24.925  20.262   4.178  0.00  0.00     0.197 C 
BRANCH  26  27
HETATM   27  O   UNK N   1      23.900  19.872   3.326  0.00  0.00    -0.398 OA
HETATM   28  H   UNK N   1      23.001  20.227   3.415  0.00  0.00     0.209 HD
ENDBRANCH  26  27
ENDBRANCH  23  26
ENDBRANCH  22  23
ENDBRANCH  20  22
ENDBRANCH  12  18
BRANCH  15  29
HETATM   29  C   UNK N   1      31.646  15.652   7.477  0.00  0.00     0.254 C 
HETATM   30  O   UNK N   1      31.436  14.490   7.797  0.00  0.00    -0.268 OA
HETATM   31  N   UNK N   1      32.797  16.210   7.904  0.00  0.00    -0.354 N 
HETATM   32  H   UNK N   1      33.359  15.691   8.524  0.00  0.00     0.162 HD
BRANCH  31  33
HETATM   33  C   UNK N   1      33.249  17.503   7.516  0.00  0.00     0.156 C 
BRANCH  33  34
HETATM   34  C   UNK N   1      34.605  17.777   8.114  0.00  0.00     0.159 C 
BRANCH  34  35
HETATM   35  O   UNK N   1      34.739  19.149   8.298  0.00  0.00    -0.392 OA
HETATM   36  H   UNK N   1      34.040  19.665   8.730  0.00  0.00     0.210 HD
ENDBRANCH  34  35
BRANCH  34  37
HETATM   37  C   UNK N   1      34.724  17.067   9.450  0.00  0.00     0.197 C 
BRANCH  37  38
HETATM   38  O   UNK N   1      35.332  15.821   9.278  0.00  0.00    -0.398 OA
HETATM   39  H   UNK N   1      35.889  15.376   9.935  0.00  0.00     0.209 HD
ENDBRANCH  37  38
ENDBRANCH  34  37
ENDBRANCH  33  34
ENDBRANCH  31  33
ENDBRANCH  15  29
ENDBRANCH   5   9
ENDBRANCH   4   5
ENDBRANCH   1   4
BRANCH   1  40
HETATM   40  C   UNK N   1      26.115  12.346   4.379  0.00  0.00     0.165 C 
BRANCH  40  41
HETATM   41  N   UNK N   1      24.740  12.193   4.007  0.00  0.00    -0.313 N 
HETATM   42  C   UNK N   1      24.344  11.048   3.368  0.00  0.00     0.220 C 
HETATM   43  O   UNK N   1      23.167  10.844   3.131  0.00  0.00    -0.273 OA
HETATM   44  C   UNK N   1      25.344   9.992   2.988  0.00  0.00     0.117 C 
BRANCH  41  45
HETATM   45  C   UNK N   1      23.776  13.087   4.571  0.00  0.00     0.072 C 
HETATM   46  C   UNK N   1      23.425  12.835   5.876  0.00  0.00     0.051 C 
HETATM   47  I   UNK N   1      24.503  11.366   7.072  0.00  0.00    -0.041 I 
HETATM   48  C   UNK N   1      22.382  13.547   6.426  0.00  0.00     0.068 C 
HETATM   49  C   UNK N   1      22.100  14.851   5.963  0.00  0.00     0.040 C 
HETATM   50  I   UNK N   1      20.954  16.209   7.151  0.00  0.00    -0.042 I 
HETATM   51  C   UNK N   1      22.566  15.238   4.702  0.00  0.00     0.068 C 
HETATM   52  C   UNK N   1      23.195  14.222   3.889  0.00  0.00     0.051 C 
HETATM   53  I   UNK N   1      23.273  14.427   1.748  0.00  0.00    -0.041 I 
BRANCH  48  54
HETATM   54  C   UNK N   1      21.444  12.788   7.282  0.00  0.00     0.254 C 
HETATM   55  O   UNK N   1      20.261  13.087   7.236  0.00  0.00    -0.268 OA
HETATM   56  N   UNK N   1      21.904  12.405   8.480  0.00  0.00    -0.354 N 
HETATM   57  H   UNK N   1      22.025  11.451   8.689  0.00  0.00     0.162 HD
BRANCH  56  58
HETATM   58  C   UNK N   1      22.219  13.423   9.461  0.00  0.00     0.156 C 
BRANCH  58  59
HETATM   59  C   UNK N   1      22.116  12.825  10.838  0.00  0.00     0.159 C 
BRANCH  59  60
HETATM   60  O   UNK N   1      23.025  11.766  10.927  0.00  0.00    -0.392 OA
HETATM   61  H   UNK N   1      23.088  11.002  11.521  0.00  0.00     0.210 HD
ENDBRANCH  59  60
BRANCH  59  62
HETATM   62  C   UNK N   1      20.675  12.368  11.057  0.00  0.00     0.197 C 
BRANCH  62  63
HETATM   63  O   UNK N   1      19.766  13.177  10.372  0.00  0.00    -0.398 OA
HETATM   64  H   UNK N   1      18.995  13.060   9.795  0.00  0.00     0.209 HD
ENDBRANCH  62  63
ENDBRANCH  59  62
ENDBRANCH  58  59
ENDBRANCH  56  58
ENDBRANCH  48  54
BRANCH  51  65
HETATM   65  C   UNK N   1      22.638  16.718   4.347  0.00  0.00     0.254 C 
HETATM   66  O   UNK N   1      23.546  17.377   4.841  0.00  0.00    -0.268 OA
HETATM   67  N   UNK N   1      21.851  17.337   3.457  0.00  0.00    -0.354 N 
HETATM   68  H   UNK N   1      22.248  17.892   2.747  0.00  0.00     0.162 HD
BRANCH  67  69
HETATM   69  C   UNK N   1      20.443  17.187   3.543  0.00  0.00     0.156 C 
BRANCH  69  70
HETATM   70  C   UNK N   1      19.929  17.897   2.292  0.00  0.00     0.159 C 
BRANCH  70  71
HETATM   71  O   UNK N   1      18.646  18.391   2.490  0.00  0.00    -0.392 OA
HETATM   72  H   UNK N   1      18.382  18.775   3.340  0.00  0.00     0.210 HD
ENDBRANCH  70  71
BRANCH  70  73
HETATM   73  C   UNK N   1      19.994  16.978   1.075  0.00  0.00     0.197 C 
BRANCH  73  74
HETATM   74  O   UNK N   1      20.297  17.711  -0.073  0.00  0.00    -0.398 OA
HETATM   75  H   UNK N   1      20.803  17.775  -0.899  0.00  0.00     0.209 HD
ENDBRANCH  73  74
ENDBRANCH  70  73
ENDBRANCH  69  70
ENDBRANCH  67  69
ENDBRANCH  51  65
ENDBRANCH  41  45
ENDBRANCH  40  41
ENDBRANCH   1  40
TORSDOF 31
ENDMDL
