MODEL 1
REMARK VINA RESULT:      -9.0      0.000      0.000
REMARK  7 active torsions:
REMARK  status: ('A' for Active; 'I' for Inactive)
REMARK    1  A    between atoms: S_1  and  N_10 
REMARK    2  A    between atoms: S_1  and  C_32 
REMARK    3  A    between atoms: O_5  and  C_31 
REMARK    4  A    between atoms: N_8  and  C_11 
REMARK       I    between atoms: N_8  and  C_25 
REMARK    5  A    between atoms: N_9  and  C_23 
REMARK       I    between atoms: N_10  and  C_25 
REMARK    6  A    between atoms: C_23  and  C_27 
REMARK    7  A    between atoms: C_27  and  C_29 
ROOT
HETATM    1  C   UNK N   1      33.915  15.510   7.552  0.00  0.00    -0.057 A 
HETATM    2  C   UNK N   1      35.848  14.290   9.128  0.00  0.00     0.080 A 
HETATM    3  C   UNK N   1      34.352  16.136   8.719  0.00  0.00     0.009 A 
HETATM    4  C   UNK N   1      34.395  14.249   7.199  0.00  0.00     0.009 A 
HETATM    5  C   UNK N   1      35.324  15.528   9.505  0.00  0.00     0.026 A 
HETATM    6  C   UNK N   1      35.362  13.640   7.990  0.00  0.00     0.026 A 
ENDROOT
BRANCH   1   7
HETATM    7  C   UNK N   1      32.993  16.220   6.659  0.00  0.00     0.059 C 
BRANCH   7   8
HETATM    8  C   UNK N   1      31.650  15.552   6.717  0.00  0.00     0.140 C 
BRANCH   8   9
HETATM    9  N   UNK N   1      30.661  16.577   6.922  0.00  0.00    -0.283 N 
HETATM   10  C   UNK N   1      30.319  16.922   8.205  0.00  0.00     0.239 A 
HETATM   11  O   UNK N   1      30.864  16.355   9.146  0.00  0.00    -0.272 OA
HETATM   12  C   UNK N   1      29.285  17.992   8.508  0.00  0.00     0.062 A 
HETATM   13  C   UNK N   1      28.673  18.612   7.271  0.00  0.00    -0.025 A 
HETATM   14  C   UNK N   1      29.949  19.084   9.338  0.00  0.00     0.030 C 
HETATM   15  C   UNK N   1      28.182  17.350   9.338  0.00  0.00     0.030 C 
HETATM   16  C   UNK N   1      29.085  18.218   5.989  0.00  0.00     0.042 A 
HETATM   17  C   UNK N   1      27.673  19.590   7.395  0.00  0.00     0.012 A 
HETATM   18  C   UNK N   1      30.111  17.184   5.833  0.00  0.00     0.261 A 
HETATM   19  C   UNK N   1      28.499  18.789   4.855  0.00  0.00     0.054 A 
HETATM   20  O   UNK N   1      30.468  16.861   4.705  0.00  0.00    -0.267 OA
HETATM   21  C   UNK N   1      27.496  19.748   4.977  0.00  0.00     0.069 A 
HETATM   22  C   UNK N   1      27.084  20.150   6.258  0.00  0.00     0.037 A 
BRANCH  21  23
HETATM   23  O   UNK N   1      26.938  20.252   3.854  0.00  0.00    -0.356 OA
HETATM   24  C   UNK N   1      25.769  19.771   3.312  0.00  0.00     0.210 C 
ENDBRANCH  21  23
ENDBRANCH   8   9
ENDBRANCH   7   8
ENDBRANCH   1   7
BRANCH   2  25
HETATM   25  S   UNK N   1      37.326  13.707   9.934  0.00  0.00     0.266 S 
HETATM   26  O   UNK N   1      38.646  14.206   9.329  0.00  0.00    -0.200 OA
HETATM   27  O   UNK N   1      37.430  12.199   9.665  0.00  0.00    -0.200 OA
BRANCH  25  28
HETATM   28  N   UNK N   1      37.506  13.784  11.684  0.00  0.00    -0.232 N 
HETATM   29  C   UNK N   1      36.629  13.216  12.548  0.00  0.00     0.330 C 
HETATM   30  O   UNK N   1      35.627  12.654  12.134  0.00  0.00    -0.246 OA
HETATM   31  N   UNK N   1      36.887  13.255  13.878  0.00  0.00    -0.338 N 
HETATM   32  H   UNK N   1      37.748  13.631  14.171  0.00  0.00     0.164 HD
HETATM   33  H   UNK N   1      38.282  14.264  12.054  0.00  0.00     0.183 HD
BRANCH  31  34
HETATM   34  C   UNK N   1      35.972  12.774  14.894  0.00  0.00     0.086 C 
HETATM   35  C   UNK N   1      36.040  13.708  16.099  0.00  0.00     0.025 C 
HETATM   36  C   UNK N   1      35.051  13.266  17.176  0.00  0.00     0.002 C 
HETATM   37  C   UNK N   1      35.308  11.818  17.589  0.00  0.00     0.000 C 
HETATM   38  C   UNK N   1      35.244  10.900  16.372  0.00  0.00     0.002 C 
HETATM   39  C   UNK N   1      36.282  11.343  15.347  0.00  0.00     0.025 C 
ENDBRANCH  31  34
ENDBRANCH  25  28
ENDBRANCH   2  25
TORSDOF 7
ENDMDL
MODEL 2
REMARK VINA RESULT:      -9.0      1.594      2.596
REMARK  7 active torsions:
REMARK  status: ('A' for Active; 'I' for Inactive)
REMARK    1  A    between atoms: S_1  and  N_10 
REMARK    2  A    between atoms: S_1  and  C_32 
REMARK    3  A    between atoms: O_5  and  C_31 
REMARK    4  A    between atoms: N_8  and  C_11 
REMARK       I    between atoms: N_8  and  C_25 
REMARK    5  A    between atoms: N_9  and  C_23 
REMARK       I    between atoms: N_10  and  C_25 
REMARK    6  A    between atoms: C_23  and  C_27 
REMARK    7  A    between atoms: C_27  and  C_29 
ROOT
HETATM    1  C   UNK N   1      32.879  16.538   8.665  0.00  0.00    -0.057 A 
HETATM    2  C   UNK N   1      34.943  15.362  10.103  0.00  0.00     0.080 A 
HETATM    3  C   UNK N   1      34.008  17.288   8.994  0.00  0.00     0.009 A 
HETATM    4  C   UNK N   1      32.749  15.220   9.103  0.00  0.00     0.009 A 
HETATM    5  C   UNK N   1      35.044  16.697   9.708  0.00  0.00     0.026 A 
HETATM    6  C   UNK N   1      33.784  14.634   9.823  0.00  0.00     0.026 A 
ENDROOT
BRANCH   1   7
HETATM    7  C   UNK N   1      31.855  17.126   7.795  0.00  0.00     0.059 C 
BRANCH   7   8
HETATM    8  C   UNK N   1      30.522  16.530   8.142  0.00  0.00     0.140 C 
BRANCH   8   9
HETATM    9  N   UNK N   1      29.537  17.132   7.282  0.00  0.00    -0.283 N 
HETATM   10  C   UNK N   1      29.219  16.509   6.102  0.00  0.00     0.239 A 
HETATM   11  O   UNK N   1      29.773  15.455   5.809  0.00  0.00    -0.272 OA
HETATM   12  C   UNK N   1      28.192  17.077   5.138  0.00  0.00     0.062 A 
HETATM   13  C   UNK N   1      27.583  18.383   5.600  0.00  0.00    -0.025 A 
HETATM   14  C   UNK N   1      27.084  16.048   4.952  0.00  0.00     0.030 C 
HETATM   15  C   UNK N   1      28.883  17.298   3.800  0.00  0.00     0.030 C 
HETATM   16  C   UNK N   1      27.950  18.953   6.828  0.00  0.00     0.042 A 
HETATM   17  C   UNK N   1      26.645  19.047   4.792  0.00  0.00     0.012 A 
HETATM   18  C   UNK N   1      28.942  18.292   7.678  0.00  0.00     0.261 A 
HETATM   19  C   UNK N   1      27.390  20.169   7.234  0.00  0.00     0.054 A 
HETATM   20  O   UNK N   1      29.240  18.797   8.755  0.00  0.00    -0.267 OA
HETATM   21  C   UNK N   1      26.471  20.835   6.428  0.00  0.00     0.069 A 
HETATM   22  C   UNK N   1      26.097  20.267   5.199  0.00  0.00     0.037 A 
BRANCH  21  23
HETATM   23  O   UNK N   1      25.977  22.022   6.847  0.00  0.00    -0.356 OA
HETATM   24  C   UNK N   1      25.582  22.259   8.143  0.00  0.00     0.210 C 
ENDBRANCH  21  23
ENDBRANCH   8   9
ENDBRANCH   7   8
ENDBRANCH   1   7
BRANCH   2  25
HETATM   25  S   UNK N   1      36.407  14.532  10.688  0.00  0.00     0.266 S 
HETATM   26  O   UNK N   1      37.704  14.883   9.945  0.00  0.00    -0.200 OA
HETATM   27  O   UNK N   1      36.260  13.044  10.339  0.00  0.00    -0.200 OA
BRANCH  25  28
HETATM   28  N   UNK N   1      36.802  14.472  12.403  0.00  0.00    -0.232 N 
HETATM   29  C   UNK N   1      36.035  13.832  13.321  0.00  0.00     0.330 C 
HETATM   30  O   UNK N   1      34.988  13.299  12.991  0.00  0.00    -0.246 OA
HETATM   31  N   UNK N   1      36.456  13.768  14.608  0.00  0.00    -0.338 N 
HETATM   32  H   UNK N   1      37.348  14.125  14.822  0.00  0.00     0.164 HD
HETATM   33  H   UNK N   1      37.619  14.926  12.711  0.00  0.00     0.183 HD
BRANCH  31  34
HETATM   34  C   UNK N   1      35.671  13.203  15.688  0.00  0.00     0.086 C 
HETATM   35  C   UNK N   1      35.910  14.025  16.952  0.00  0.00     0.025 C 
HETATM   36  C   UNK N   1      35.061  13.493  18.105  0.00  0.00     0.002 C 
HETATM   37  C   UNK N   1      35.344  12.012  18.352  0.00  0.00     0.000 C 
HETATM   38  C   UNK N   1      35.108  11.208  17.077  0.00  0.00     0.002 C 
HETATM   39  C   UNK N   1      36.013  11.735  15.968  0.00  0.00     0.025 C 
ENDBRANCH  31  34
ENDBRANCH  25  28
ENDBRANCH   2  25
TORSDOF 7
ENDMDL
MODEL 3
REMARK VINA RESULT:      -8.9      2.479     11.438
REMARK  7 active torsions:
REMARK  status: ('A' for Active; 'I' for Inactive)
REMARK    1  A    between atoms: S_1  and  N_10 
REMARK    2  A    between atoms: S_1  and  C_32 
REMARK    3  A    between atoms: O_5  and  C_31 
REMARK    4  A    between atoms: N_8  and  C_11 
REMARK       I    between atoms: N_8  and  C_25 
REMARK    5  A    between atoms: N_9  and  C_23 
REMARK       I    between atoms: N_10  and  C_25 
REMARK    6  A    between atoms: C_23  and  C_27 
REMARK    7  A    between atoms: C_27  and  C_29 
ROOT
HETATM    1  C   UNK N   1      35.436  14.181  10.436  0.00  0.00    -0.057 A 
HETATM    2  C   UNK N   1      34.902  16.386   8.836  0.00  0.00     0.080 A 
HETATM    3  C   UNK N   1      35.370  15.451  11.008  0.00  0.00     0.009 A 
HETATM    4  C   UNK N   1      35.295  14.013   9.059  0.00  0.00     0.009 A 
HETATM    5  C   UNK N   1      35.097  16.554  10.207  0.00  0.00     0.026 A 
HETATM    6  C   UNK N   1      35.028  15.118   8.260  0.00  0.00     0.026 A 
ENDROOT
BRANCH   1   7
HETATM    7  C   UNK N   1      35.588  13.009  11.306  0.00  0.00     0.059 C 
BRANCH   7   8
HETATM    8  C   UNK N   1      36.853  13.155  12.100  0.00  0.00     0.140 C 
BRANCH   8   9
HETATM    9  N   UNK N   1      36.655  12.492  13.362  0.00  0.00    -0.283 N 
HETATM   10  C   UNK N   1      36.854  11.137  13.438  0.00  0.00     0.239 A 
HETATM   11  O   UNK N   1      37.201  10.523  12.435  0.00  0.00    -0.272 OA
HETATM   12  C   UNK N   1      36.668  10.362  14.730  0.00  0.00     0.062 A 
HETATM   13  C   UNK N   1      36.230  11.221  15.896  0.00  0.00    -0.025 A 
HETATM   14  C   UNK N   1      37.984   9.680  15.080  0.00  0.00     0.030 C 
HETATM   15  C   UNK N   1      35.614   9.292  14.482  0.00  0.00     0.030 C 
HETATM   16  C   UNK N   1      36.060  12.606  15.745  0.00  0.00     0.042 A 
HETATM   17  C   UNK N   1      35.979  10.636  17.148  0.00  0.00     0.012 A 
HETATM   18  C   UNK N   1      36.293  13.237  14.445  0.00  0.00     0.261 A 
HETATM   19  C   UNK N   1      35.640  13.385  16.828  0.00  0.00     0.054 A 
HETATM   20  O   UNK N   1      36.153  14.450  14.334  0.00  0.00    -0.267 OA
HETATM   21  C   UNK N   1      35.377  12.803  18.065  0.00  0.00     0.069 A 
HETATM   22  C   UNK N   1      35.550  11.419  18.223  0.00  0.00     0.037 A 
BRANCH  21  23
HETATM   23  O   UNK N   1      34.945  13.590  19.076  0.00  0.00    -0.356 OA
HETATM   24  C   UNK N   1      34.582  13.102  20.310  0.00  0.00     0.210 C 
ENDBRANCH  21  23
ENDBRANCH   8   9
ENDBRANCH   7   8
ENDBRANCH   1   7
BRANCH   2  25
HETATM   25  S   UNK N   1      34.204  17.732   7.901  0.00  0.00     0.266 S 
HETATM   26  O   UNK N   1      34.618  17.792   6.423  0.00  0.00    -0.200 OA
HETATM   27  O   UNK N   1      34.826  19.031   8.433  0.00  0.00    -0.200 OA
BRANCH  25  28
HETATM   28  N   UNK N   1      32.482  18.095   7.963  0.00  0.00    -0.232 N 
HETATM   29  C   UNK N   1      31.537  17.316   7.380  0.00  0.00     0.330 C 
HETATM   30  O   UNK N   1      31.857  16.333   6.732  0.00  0.00    -0.246 OA
HETATM   31  N   UNK N   1      30.228  17.627   7.546  0.00  0.00    -0.338 N 
HETATM   32  H   UNK N   1      30.001  18.370   8.150  0.00  0.00     0.164 HD
HETATM   33  H   UNK N   1      32.191  18.903   8.443  0.00  0.00     0.183 HD
BRANCH  31  34
HETATM   34  C   UNK N   1      29.141  16.929   6.885  0.00  0.00     0.086 C 
HETATM   35  C   UNK N   1      28.870  17.601   5.542  0.00  0.00     0.025 C 
HETATM   36  C   UNK N   1      27.764  16.865   4.788  0.00  0.00     0.002 C 
HETATM   37  C   UNK N   1      26.491  16.786   5.631  0.00  0.00     0.000 C 
HETATM   38  C   UNK N   1      26.783  16.120   6.972  0.00  0.00     0.002 C 
HETATM   39  C   UNK N   1      27.852  16.916   7.713  0.00  0.00     0.025 C 
ENDBRANCH  31  34
ENDBRANCH  25  28
ENDBRANCH   2  25
TORSDOF 7
ENDMDL
MODEL 4
REMARK VINA RESULT:      -8.8      2.949      4.864
REMARK  7 active torsions:
REMARK  status: ('A' for Active; 'I' for Inactive)
REMARK    1  A    between atoms: S_1  and  N_10 
REMARK    2  A    between atoms: S_1  and  C_32 
REMARK    3  A    between atoms: O_5  and  C_31 
REMARK    4  A    between atoms: N_8  and  C_11 
REMARK       I    between atoms: N_8  and  C_25 
REMARK    5  A    between atoms: N_9  and  C_23 
REMARK       I    between atoms: N_10  and  C_25 
REMARK    6  A    between atoms: C_23  and  C_27 
REMARK    7  A    between atoms: C_27  and  C_29 
ROOT
HETATM    1  C   UNK N   1      29.788  16.926   7.414  0.00  0.00    -0.057 A 
HETATM    2  C   UNK N   1      32.438  17.239   8.182  0.00  0.00     0.080 A 
HETATM    3  C   UNK N   1      30.134  17.941   8.306  0.00  0.00     0.009 A 
HETATM    4  C   UNK N   1      30.749  16.030   6.950  0.00  0.00     0.009 A 
HETATM    5  C   UNK N   1      31.462  18.101   8.686  0.00  0.00     0.026 A 
HETATM    6  C   UNK N   1      32.075  16.188   7.336  0.00  0.00     0.026 A 
ENDROOT
BRANCH   1   7
HETATM    7  C   UNK N   1      28.411  16.851   6.914  0.00  0.00     0.059 C 
BRANCH   7   8
HETATM    8  C   UNK N   1      28.435  16.916   5.415  0.00  0.00     0.140 C 
BRANCH   8   9
HETATM    9  N   UNK N   1      27.278  17.660   4.991  0.00  0.00    -0.283 N 
HETATM   10  C   UNK N   1      27.390  19.015   4.812  0.00  0.00     0.239 A 
HETATM   11  O   UNK N   1      28.470  19.561   5.010  0.00  0.00    -0.272 OA
HETATM   12  C   UNK N   1      26.219  19.873   4.367  0.00  0.00     0.062 A 
HETATM   13  C   UNK N   1      24.938  19.093   4.164  0.00  0.00    -0.025 A 
HETATM   14  C   UNK N   1      26.594  20.564   3.062  0.00  0.00     0.030 C 
HETATM   15  C   UNK N   1      25.988  20.934   5.434  0.00  0.00     0.030 C 
HETATM   16  C   UNK N   1      24.904  17.703   4.354  0.00  0.00     0.042 A 
HETATM   17  C   UNK N   1      23.760  19.759   3.790  0.00  0.00     0.012 A 
HETATM   18  C   UNK N   1      26.114  16.988   4.766  0.00  0.00     0.261 A 
HETATM   19  C   UNK N   1      23.709  16.998   4.178  0.00  0.00     0.054 A 
HETATM   20  O   UNK N   1      26.070  15.772   4.913  0.00  0.00    -0.267 OA
HETATM   21  C   UNK N   1      22.537  17.660   3.821  0.00  0.00     0.069 A 
HETATM   22  C   UNK N   1      22.567  19.050   3.625  0.00  0.00     0.037 A 
BRANCH  21  23
HETATM   23  O   UNK N   1      21.398  16.943   3.690  0.00  0.00    -0.356 OA
HETATM   24  C   UNK N   1      20.787  16.714   2.479  0.00  0.00     0.210 C 
ENDBRANCH  21  23
ENDBRANCH   8   9
ENDBRANCH   7   8
ENDBRANCH   1   7
BRANCH   2  25
HETATM   25  S   UNK N   1      34.153  17.677   8.387  0.00  0.00     0.266 S 
HETATM   26  O   UNK N   1      34.489  19.155   8.137  0.00  0.00    -0.200 OA
HETATM   27  O   UNK N   1      34.937  17.001   7.254  0.00  0.00    -0.200 OA
BRANCH  25  28
HETATM   28  N   UNK N   1      35.060  17.182   9.812  0.00  0.00    -0.232 N 
HETATM   29  C   UNK N   1      35.109  15.901  10.255  0.00  0.00     0.330 C 
HETATM   30  O   UNK N   1      34.468  15.027   9.694  0.00  0.00    -0.246 OA
HETATM   31  N   UNK N   1      35.897  15.595  11.314  0.00  0.00    -0.338 N 
HETATM   32  H   UNK N   1      36.472  16.303  11.684  0.00  0.00     0.164 HD
HETATM   33  H   UNK N   1      35.557  17.869  10.313  0.00  0.00     0.183 HD
BRANCH  31  34
HETATM   34  C   UNK N   1      35.945  14.285  11.934  0.00  0.00     0.086 C 
HETATM   35  C   UNK N   1      36.062  14.460  13.446  0.00  0.00     0.025 C 
HETATM   36  C   UNK N   1      36.065  13.102  14.145  0.00  0.00     0.002 C 
HETATM   37  C   UNK N   1      37.186  12.216  13.606  0.00  0.00     0.000 C 
HETATM   38  C   UNK N   1      37.058  12.058  12.094  0.00  0.00     0.002 C 
HETATM   39  C   UNK N   1      37.114  13.431  11.433  0.00  0.00     0.025 C 
ENDBRANCH  31  34
ENDBRANCH  25  28
ENDBRANCH   2  25
TORSDOF 7
ENDMDL
MODEL 5
REMARK VINA RESULT:      -8.7      3.238      4.981
REMARK  7 active torsions:
REMARK  status: ('A' for Active; 'I' for Inactive)
REMARK    1  A    between atoms: S_1  and  N_10 
REMARK    2  A    between atoms: S_1  and  C_32 
REMARK    3  A    between atoms: O_5  and  C_31 
REMARK    4  A    between atoms: N_8  and  C_11 
REMARK       I    between atoms: N_8  and  C_25 
REMARK    5  A    between atoms: N_9  and  C_23 
REMARK       I    between atoms: N_10  and  C_25 
REMARK    6  A    between atoms: C_23  and  C_27 
REMARK    7  A    between atoms: C_27  and  C_29 
ROOT
HETATM    1  C   UNK N   1      29.741  17.617   7.498  0.00  0.00    -0.057 A 
HETATM    2  C   UNK N   1      32.432  17.552   8.179  0.00  0.00     0.080 A 
HETATM    3  C   UNK N   1      30.181  18.281   8.643  0.00  0.00     0.009 A 
HETATM    4  C   UNK N   1      30.628  16.871   6.723  0.00  0.00     0.009 A 
HETATM    5  C   UNK N   1      31.529  18.253   8.980  0.00  0.00     0.026 A 
HETATM    6  C   UNK N   1      31.975  16.840   7.066  0.00  0.00     0.026 A 
ENDROOT
BRANCH   1   7
HETATM    7  C   UNK N   1      28.344  17.765   7.075  0.00  0.00     0.059 C 
BRANCH   7   8
HETATM    8  C   UNK N   1      28.250  17.489   5.603  0.00  0.00     0.140 C 
BRANCH   8   9
HETATM    9  N   UNK N   1      26.860  17.304   5.281  0.00  0.00    -0.283 N 
HETATM   10  C   UNK N   1      26.305  16.059   5.427  0.00  0.00     0.239 A 
HETATM   11  O   UNK N   1      27.000  15.134   5.833  0.00  0.00    -0.272 OA
HETATM   12  C   UNK N   1      24.847  15.779   5.109  0.00  0.00     0.062 A 
HETATM   13  C   UNK N   1      24.092  16.991   4.608  0.00  0.00    -0.025 A 
HETATM   14  C   UNK N   1      24.169  15.255   6.369  0.00  0.00     0.030 C 
HETATM   15  C   UNK N   1      24.803  14.693   4.043  0.00  0.00     0.030 C 
HETATM   16  C   UNK N   1      24.724  18.238   4.497  0.00  0.00     0.042 A 
HETATM   17  C   UNK N   1      22.742  16.876   4.236  0.00  0.00     0.012 A 
HETATM   18  C   UNK N   1      26.137  18.380   4.858  0.00  0.00     0.261 A 
HETATM   19  C   UNK N   1      24.018  19.346   4.018  0.00  0.00     0.054 A 
HETATM   20  O   UNK N   1      26.670  19.480   4.768  0.00  0.00    -0.267 OA
HETATM   21  C   UNK N   1      22.684  19.229   3.635  0.00  0.00     0.069 A 
HETATM   22  C   UNK N   1      22.044  17.984   3.748  0.00  0.00     0.037 A 
BRANCH  21  23
HETATM   23  O   UNK N   1      22.048  20.319   3.149  0.00  0.00    -0.356 OA
HETATM   24  C   UNK N   1      20.680  20.464   3.168  0.00  0.00     0.210 C 
ENDBRANCH  21  23
ENDBRANCH   8   9
ENDBRANCH   7   8
ENDBRANCH   1   7
BRANCH   2  25
HETATM   25  S   UNK N   1      34.176  17.826   8.417  0.00  0.00     0.266 S 
HETATM   26  O   UNK N   1      34.660  19.258   8.148  0.00  0.00    -0.200 OA
HETATM   27  O   UNK N   1      34.916  17.053   7.315  0.00  0.00    -0.200 OA
BRANCH  25  28
HETATM   28  N   UNK N   1      34.999  17.274   9.872  0.00  0.00    -0.232 N 
HETATM   29  C   UNK N   1      35.062  15.971  10.242  0.00  0.00     0.330 C 
HETATM   30  O   UNK N   1      34.492  15.112   9.588  0.00  0.00    -0.246 OA
HETATM   31  N   UNK N   1      35.785  15.626  11.336  0.00  0.00    -0.338 N 
HETATM   32  H   UNK N   1      36.307  16.328  11.785  0.00  0.00     0.164 HD
HETATM   33  H   UNK N   1      35.436  17.944  10.446  0.00  0.00     0.183 HD
BRANCH  31  34
HETATM   34  C   UNK N   1      35.835  14.283  11.881  0.00  0.00     0.086 C 
HETATM   35  C   UNK N   1      36.012  14.374  13.395  0.00  0.00     0.025 C 
HETATM   36  C   UNK N   1      36.019  12.979  14.018  0.00  0.00     0.002 C 
HETATM   37  C   UNK N   1      37.105  12.108  13.389  0.00  0.00     0.000 C 
HETATM   38  C   UNK N   1      36.918  12.036  11.876  0.00  0.00     0.002 C 
HETATM   39  C   UNK N   1      36.971  13.442  11.289  0.00  0.00     0.025 C 
ENDBRANCH  31  34
ENDBRANCH  25  28
ENDBRANCH   2  25
TORSDOF 7
ENDMDL
MODEL 6
REMARK VINA RESULT:      -8.6      6.353     14.347
REMARK  7 active torsions:
REMARK  status: ('A' for Active; 'I' for Inactive)
REMARK    1  A    between atoms: S_1  and  N_10 
REMARK    2  A    between atoms: S_1  and  C_32 
REMARK    3  A    between atoms: O_5  and  C_31 
REMARK    4  A    between atoms: N_8  and  C_11 
REMARK       I    between atoms: N_8  and  C_25 
REMARK    5  A    between atoms: N_9  and  C_23 
REMARK       I    between atoms: N_10  and  C_25 
REMARK    6  A    between atoms: C_23  and  C_27 
REMARK    7  A    between atoms: C_27  and  C_29 
ROOT
HETATM    1  C   UNK N   1      25.149  19.392   3.887  0.00  0.00    -0.057 A 
HETATM    2  C   UNK N   1      22.580  19.951   2.994  0.00  0.00     0.080 A 
HETATM    3  C   UNK N   1      24.083  18.596   4.305  0.00  0.00     0.009 A 
HETATM    4  C   UNK N   1      24.931  20.502   3.072  0.00  0.00     0.009 A 
HETATM    5  C   UNK N   1      22.798  18.872   3.852  0.00  0.00     0.026 A 
HETATM    6  C   UNK N   1      23.644  20.780   2.626  0.00  0.00     0.026 A 
ENDROOT
BRANCH   1   7
HETATM    7  C   UNK N   1      26.517  19.012   4.258  0.00  0.00     0.059 C 
BRANCH   7   8
HETATM    8  C   UNK N   1      26.456  17.902   5.265  0.00  0.00     0.140 C 
BRANCH   8   9
HETATM    9  N   UNK N   1      27.765  17.309   5.342  0.00  0.00    -0.283 N 
HETATM   10  C   UNK N   1      28.132  16.386   4.396  0.00  0.00     0.239 A 
HETATM   11  O   UNK N   1      27.341  16.090   3.505  0.00  0.00    -0.272 OA
HETATM   12  C   UNK N   1      29.493  15.714   4.404  0.00  0.00     0.062 A 
HETATM   13  C   UNK N   1      30.377  16.148   5.553  0.00  0.00    -0.025 A 
HETATM   14  C   UNK N   1      30.195  16.026   3.088  0.00  0.00     0.030 C 
HETATM   15  C   UNK N   1      29.268  14.210   4.493  0.00  0.00     0.030 C 
HETATM   16  C   UNK N   1      29.938  17.109   6.475  0.00  0.00     0.042 A 
HETATM   17  C   UNK N   1      31.652  15.581   5.713  0.00  0.00     0.012 A 
HETATM   18  C   UNK N   1      28.604  17.699   6.343  0.00  0.00     0.261 A 
HETATM   19  C   UNK N   1      30.760  17.489   7.541  0.00  0.00     0.054 A 
HETATM   20  O   UNK N   1      28.242  18.548   7.150  0.00  0.00    -0.267 OA
HETATM   21  C   UNK N   1      32.019  16.917   7.709  0.00  0.00     0.069 A 
HETATM   22  C   UNK N   1      32.465  15.958   6.786  0.00  0.00     0.037 A 
BRANCH  21  23
HETATM   23  O   UNK N   1      32.768  17.293   8.769  0.00  0.00    -0.356 OA
HETATM   24  C   UNK N   1      34.120  17.054   8.860  0.00  0.00     0.210 C 
ENDBRANCH  21  23
ENDBRANCH   8   9
ENDBRANCH   7   8
ENDBRANCH   1   7
BRANCH   2  25
HETATM   25  S   UNK N   1      21.016  20.067   2.149  0.00  0.00     0.266 S 
HETATM   26  O   UNK N   1      20.754  21.399   1.429  0.00  0.00    -0.200 OA
HETATM   27  O   UNK N   1      19.917  20.091   3.221  0.00  0.00    -0.200 OA
BRANCH  25  28
HETATM   28  N   UNK N   1      20.458  18.789   1.075  0.00  0.00    -0.232 N 
HETATM   29  C   UNK N   1      20.158  17.537   1.502  0.00  0.00     0.330 C 
HETATM   30  O   UNK N   1      20.314  17.227   2.672  0.00  0.00    -0.246 OA
HETATM   31  N   UNK N   1      19.658  16.637   0.620  0.00  0.00    -0.338 N 
HETATM   32  H   UNK N   1      19.456  16.946  -0.292  0.00  0.00     0.164 HD
HETATM   33  H   UNK N   1      20.358  18.992   0.117  0.00  0.00     0.183 HD
BRANCH  31  34
HETATM   34  C   UNK N   1      19.402  15.246   0.941  0.00  0.00     0.086 C 
HETATM   35  C   UNK N   1      20.706  14.463   0.812  0.00  0.00     0.025 C 
HETATM   36  C   UNK N   1      20.492  13.000   1.192  0.00  0.00     0.002 C 
HETATM   37  C   UNK N   1      19.389  12.373   0.341  0.00  0.00     0.000 C 
HETATM   38  C   UNK N   1      18.096  13.172   0.476  0.00  0.00     0.002 C 
HETATM   39  C   UNK N   1      18.340  14.612   0.037  0.00  0.00     0.025 C 
ENDBRANCH  31  34
ENDBRANCH  25  28
ENDBRANCH   2  25
TORSDOF 7
ENDMDL
MODEL 7
REMARK VINA RESULT:      -8.3      2.827      5.074
REMARK  7 active torsions:
REMARK  status: ('A' for Active; 'I' for Inactive)
REMARK    1  A    between atoms: S_1  and  N_10 
REMARK    2  A    between atoms: S_1  and  C_32 
REMARK    3  A    between atoms: O_5  and  C_31 
REMARK    4  A    between atoms: N_8  and  C_11 
REMARK       I    between atoms: N_8  and  C_25 
REMARK    5  A    between atoms: N_9  and  C_23 
REMARK       I    between atoms: N_10  and  C_25 
REMARK    6  A    between atoms: C_23  and  C_27 
REMARK    7  A    between atoms: C_27  and  C_29 
ROOT
HETATM    1  C   UNK N   1      33.455  16.457   8.977  0.00  0.00    -0.057 A 
HETATM    2  C   UNK N   1      35.355  14.844  10.202  0.00  0.00     0.080 A 
HETATM    3  C   UNK N   1      34.580  17.036   9.563  0.00  0.00     0.009 A 
HETATM    4  C   UNK N   1      33.244  15.081   9.052  0.00  0.00     0.009 A 
HETATM    5  C   UNK N   1      35.534  16.228  10.170  0.00  0.00     0.026 A 
HETATM    6  C   UNK N   1      34.197  14.275   9.666  0.00  0.00     0.026 A 
ENDROOT
BRANCH   1   7
HETATM    7  C   UNK N   1      32.525  17.301   8.219  0.00  0.00     0.059 C 
BRANCH   7   8
HETATM    8  C   UNK N   1      33.204  17.768   6.966  0.00  0.00     0.140 C 
BRANCH   8   9
HETATM    9  N   UNK N   1      32.963  16.782   5.945  0.00  0.00    -0.283 N 
HETATM   10  C   UNK N   1      31.701  16.665   5.421  0.00  0.00     0.239 A 
HETATM   11  O   UNK N   1      30.810  17.403   5.827  0.00  0.00    -0.272 OA
HETATM   12  C   UNK N   1      31.363  15.651   4.343  0.00  0.00     0.062 A 
HETATM   13  C   UNK N   1      32.536  14.790   3.929  0.00  0.00    -0.025 A 
HETATM   14  C   UNK N   1      30.838  16.399   3.124  0.00  0.00     0.030 C 
HETATM   15  C   UNK N   1      30.256  14.754   4.879  0.00  0.00     0.030 C 
HETATM   16  C   UNK N   1      33.803  14.978   4.502  0.00  0.00     0.042 A 
HETATM   17  C   UNK N   1      32.365  13.780   2.968  0.00  0.00     0.012 A 
HETATM   18  C   UNK N   1      34.003  16.009   5.522  0.00  0.00     0.261 A 
HETATM   19  C   UNK N   1      34.875  14.165   4.121  0.00  0.00     0.054 A 
HETATM   20  O   UNK N   1      35.120  16.169   6.001  0.00  0.00    -0.267 OA
HETATM   21  C   UNK N   1      34.702  13.154   3.179  0.00  0.00     0.069 A 
HETATM   22  C   UNK N   1      33.438  12.964   2.599  0.00  0.00     0.037 A 
BRANCH  21  23
HETATM   23  O   UNK N   1      35.759  12.372   2.861  0.00  0.00    -0.356 OA
HETATM   24  C   UNK N   1      36.188  11.327   3.648  0.00  0.00     0.210 C 
ENDBRANCH  21  23
ENDBRANCH   8   9
ENDBRANCH   7   8
ENDBRANCH   1   7
BRANCH   2  25
HETATM   25  S   UNK N   1      36.737  13.814  10.652  0.00  0.00     0.266 S 
HETATM   26  O   UNK N   1      38.036  14.080   9.878  0.00  0.00    -0.200 OA
HETATM   27  O   UNK N   1      36.411  12.384  10.197  0.00  0.00    -0.200 OA
BRANCH  25  28
HETATM   28  N   UNK N   1      37.188  13.572  12.337  0.00  0.00    -0.232 N 
HETATM   29  C   UNK N   1      36.292  13.277  13.312  0.00  0.00     0.330 C 
HETATM   30  O   UNK N   1      35.099  13.214  13.059  0.00  0.00    -0.246 OA
HETATM   31  N   UNK N   1      36.737  13.028  14.568  0.00  0.00    -0.338 N 
HETATM   32  H   UNK N   1      37.709  12.994  14.717  0.00  0.00     0.164 HD
HETATM   33  H   UNK N   1      38.137  13.655  12.584  0.00  0.00     0.183 HD
BRANCH  31  34
HETATM   34  C   UNK N   1      35.864  12.807  15.705  0.00  0.00     0.086 C 
HETATM   35  C   UNK N   1      36.065  13.941  16.707  0.00  0.00     0.025 C 
HETATM   36  C   UNK N   1      35.127  13.774  17.900  0.00  0.00     0.002 C 
HETATM   37  C   UNK N   1      35.328  12.412  18.564  0.00  0.00     0.000 C 
HETATM   38  C   UNK N   1      35.131  11.292  17.547  0.00  0.00     0.002 C 
HETATM   39  C   UNK N   1      36.122  11.466  16.401  0.00  0.00     0.025 C 
ENDBRANCH  31  34
ENDBRANCH  25  28
ENDBRANCH   2  25
TORSDOF 7
ENDMDL
MODEL 8
REMARK VINA RESULT:      -8.3      2.470     11.746
REMARK  7 active torsions:
REMARK  status: ('A' for Active; 'I' for Inactive)
REMARK    1  A    between atoms: S_1  and  N_10 
REMARK    2  A    between atoms: S_1  and  C_32 
REMARK    3  A    between atoms: O_5  and  C_31 
REMARK    4  A    between atoms: N_8  and  C_11 
REMARK       I    between atoms: N_8  and  C_25 
REMARK    5  A    between atoms: N_9  and  C_23 
REMARK       I    between atoms: N_10  and  C_25 
REMARK    6  A    between atoms: C_23  and  C_27 
REMARK    7  A    between atoms: C_27  and  C_29 
ROOT
HETATM    1  C   UNK N   1      34.757  15.454  10.305  0.00  0.00    -0.057 A 
HETATM    2  C   UNK N   1      33.780  16.110   7.790  0.00  0.00     0.080 A 
HETATM    3  C   UNK N   1      34.933  16.746   9.811  0.00  0.00     0.009 A 
HETATM    4  C   UNK N   1      34.147  14.471   9.526  0.00  0.00     0.009 A 
HETATM    5  C   UNK N   1      34.438  17.076   8.554  0.00  0.00     0.026 A 
HETATM    6  C   UNK N   1      33.660  14.802   8.267  0.00  0.00     0.026 A 
ENDROOT
BRANCH   1   7
HETATM    7  C   UNK N   1      35.158  15.152  11.684  0.00  0.00     0.059 C 
BRANCH   7   8
HETATM    8  C   UNK N   1      36.285  14.161  11.656  0.00  0.00     0.140 C 
BRANCH   8   9
HETATM    9  N   UNK N   1      35.942  13.086  12.549  0.00  0.00    -0.283 N 
HETATM   10  C   UNK N   1      35.582  11.873  12.019  0.00  0.00     0.239 A 
HETATM   11  O   UNK N   1      35.565  11.730  10.801  0.00  0.00    -0.272 OA
HETATM   12  C   UNK N   1      35.207  10.688  12.890  0.00  0.00     0.062 A 
HETATM   13  C   UNK N   1      35.254  10.985  14.373  0.00  0.00    -0.025 A 
HETATM   14  C   UNK N   1      36.159   9.540  12.581  0.00  0.00     0.030 C 
HETATM   15  C   UNK N   1      33.793  10.264  12.515  0.00  0.00     0.030 C 
HETATM   16  C   UNK N   1      35.646  12.248  14.841  0.00  0.00     0.042 A 
HETATM   17  C   UNK N   1      34.894   9.995  15.302  0.00  0.00     0.012 A 
HETATM   18  C   UNK N   1      36.005  13.305  13.893  0.00  0.00     0.261 A 
HETATM   19  C   UNK N   1      35.670  12.513  16.214  0.00  0.00     0.054 A 
HETATM   20  O   UNK N   1      36.359  14.398  14.320  0.00  0.00    -0.267 OA
HETATM   21  C   UNK N   1      35.299  11.537  17.135  0.00  0.00     0.069 A 
HETATM   22  C   UNK N   1      34.911  10.269  16.672  0.00  0.00     0.037 A 
BRANCH  21  23
HETATM   23  O   UNK N   1      35.310  11.846  18.452  0.00  0.00    -0.356 OA
HETATM   24  C   UNK N   1      35.190  13.132  18.925  0.00  0.00     0.210 C 
ENDBRANCH  21  23
ENDBRANCH   8   9
ENDBRANCH   7   8
ENDBRANCH   1   7
BRANCH   2  25
HETATM   25  S   UNK N   1      32.850  16.637   6.365  0.00  0.00     0.266 S 
HETATM   26  O   UNK N   1      32.925  15.704   5.148  0.00  0.00    -0.200 OA
HETATM   27  O   UNK N   1      33.532  17.897   5.813  0.00  0.00    -0.200 OA
BRANCH  25  28
HETATM   28  N   UNK N   1      31.174  17.157   6.507  0.00  0.00    -0.232 N 
HETATM   29  C   UNK N   1      30.388  17.434   5.437  0.00  0.00     0.330 C 
HETATM   30  O   UNK N   1      30.841  17.379   4.305  0.00  0.00    -0.246 OA
HETATM   31  N   UNK N   1      29.085  17.751   5.635  0.00  0.00    -0.338 N 
HETATM   32  H   UNK N   1      28.729  17.694   6.550  0.00  0.00     0.164 HD
HETATM   33  H   UNK N   1      30.787  17.251   7.407  0.00  0.00     0.183 HD
BRANCH  31  34
HETATM   34  C   UNK N   1      28.184  18.165   4.577  0.00  0.00     0.086 C 
HETATM   35  C   UNK N   1      27.908  19.660   4.724  0.00  0.00     0.025 C 
HETATM   36  C   UNK N   1      27.002  20.150   3.597  0.00  0.00     0.002 C 
HETATM   37  C   UNK N   1      25.699  19.352   3.561  0.00  0.00     0.000 C 
HETATM   38  C   UNK N   1      25.994  17.862   3.422  0.00  0.00     0.002 C 
HETATM   39  C   UNK N   1      26.855  17.403   4.594  0.00  0.00     0.025 C 
ENDBRANCH  31  34
ENDBRANCH  25  28
ENDBRANCH   2  25
TORSDOF 7
ENDMDL
MODEL 9
REMARK VINA RESULT:      -8.2      6.782     10.781
REMARK  7 active torsions:
REMARK  status: ('A' for Active; 'I' for Inactive)
REMARK    1  A    between atoms: S_1  and  N_10 
REMARK    2  A    between atoms: S_1  and  C_32 
REMARK    3  A    between atoms: O_5  and  C_31 
REMARK    4  A    between atoms: N_8  and  C_11 
REMARK       I    between atoms: N_8  and  C_25 
REMARK    5  A    between atoms: N_9  and  C_23 
REMARK       I    between atoms: N_10  and  C_25 
REMARK    6  A    between atoms: C_23  and  C_27 
REMARK    7  A    between atoms: C_27  and  C_29 
ROOT
HETATM    1  C   UNK N   1      27.046  15.416   2.624  0.00  0.00    -0.057 A 
HETATM    2  C   UNK N   1      24.329  15.626   3.156  0.00  0.00     0.080 A 
HETATM    3  C   UNK N   1      26.544  16.578   3.209  0.00  0.00     0.009 A 
HETATM    4  C   UNK N   1      26.190  14.382   2.249  0.00  0.00     0.009 A 
HETATM    5  C   UNK N   1      25.184  16.681   3.481  0.00  0.00     0.026 A 
HETATM    6  C   UNK N   1      24.830  14.489   2.517  0.00  0.00     0.026 A 
ENDROOT
BRANCH   1   7
HETATM    7  C   UNK N   1      28.497  15.261   2.467  0.00  0.00     0.059 C 
BRANCH   7   8
HETATM    8  C   UNK N   1      29.013  14.384   3.570  0.00  0.00     0.140 C 
BRANCH   8   9
HETATM    9  N   UNK N   1      29.996  15.138   4.303  0.00  0.00    -0.283 N 
HETATM   10  C   UNK N   1      31.276  15.210   3.816  0.00  0.00     0.239 A 
HETATM   11  O   UNK N   1      31.554  14.638   2.767  0.00  0.00    -0.272 OA
HETATM   12  C   UNK N   1      32.371  15.984   4.528  0.00  0.00     0.062 A 
HETATM   13  C   UNK N   1      31.915  16.638   5.813  0.00  0.00    -0.025 A 
HETATM   14  C   UNK N   1      32.899  17.055   3.582  0.00  0.00     0.030 C 
HETATM   15  C   UNK N   1      33.499  15.010   4.841  0.00  0.00     0.030 C 
HETATM   16  C   UNK N   1      30.584  16.532   6.242  0.00  0.00     0.042 A 
HETATM   17  C   UNK N   1      32.830  17.356   6.602  0.00  0.00     0.012 A 
HETATM   18  C   UNK N   1      29.616  15.770   5.449  0.00  0.00     0.261 A 
HETATM   19  C   UNK N   1      30.180  17.129   7.440  0.00  0.00     0.054 A 
HETATM   20  O   UNK N   1      28.453  15.699   5.832  0.00  0.00    -0.267 OA
HETATM   21  C   UNK N   1      31.090  17.828   8.229  0.00  0.00     0.069 A 
HETATM   22  C   UNK N   1      32.423  17.942   7.803  0.00  0.00     0.037 A 
BRANCH  21  23
HETATM   23  O   UNK N   1      30.663  18.365   9.395  0.00  0.00    -0.356 OA
HETATM   24  C   UNK N   1      29.337  18.427   9.755  0.00  0.00     0.210 C 
ENDBRANCH  21  23
ENDBRANCH   8   9
ENDBRANCH   7   8
ENDBRANCH   1   7
BRANCH   2  25
HETATM   25  S   UNK N   1      22.681  15.625   3.832  0.00  0.00     0.266 S 
HETATM   26  O   UNK N   1      21.715  14.606   3.210  0.00  0.00    -0.200 OA
HETATM   27  O   UNK N   1      22.016  16.948   3.422  0.00  0.00    -0.200 OA
BRANCH  25  28
HETATM   28  N   UNK N   1      22.403  15.595   5.570  0.00  0.00    -0.232 N 
HETATM   29  C   UNK N   1      22.603  14.494   6.336  0.00  0.00     0.330 C 
HETATM   30  O   UNK N   1      22.948  13.439   5.828  0.00  0.00    -0.246 OA
HETATM   31  N   UNK N   1      22.441  14.582   7.679  0.00  0.00    -0.338 N 
HETATM   32  H   UNK N   1      22.256  15.468   8.066  0.00  0.00     0.164 HD
HETATM   33  H   UNK N   1      22.086  16.418   6.008  0.00  0.00     0.183 HD
BRANCH  31  34
HETATM   34  C   UNK N   1      22.527  13.449   8.580  0.00  0.00     0.086 C 
HETATM   35  C   UNK N   1      21.533  13.651   9.721  0.00  0.00     0.025 C 
HETATM   36  C   UNK N   1      21.553  12.453  10.668  0.00  0.00     0.002 C 
HETATM   37  C   UNK N   1      22.963  12.209  11.205  0.00  0.00     0.000 C 
HETATM   38  C   UNK N   1      23.943  12.017  10.052  0.00  0.00     0.002 C 
HETATM   39  C   UNK N   1      23.931  13.255   9.163  0.00  0.00     0.025 C 
ENDBRANCH  31  34
ENDBRANCH  25  28
ENDBRANCH   2  25
TORSDOF 7
ENDMDL
