MODEL 1
REMARK VINA RESULT:      -7.6      0.000      0.000
REMARK  4 active torsions:
REMARK  status: ('A' for Active; 'I' for Inactive)
REMARK    1  A    between atoms: O_2  and  C_23 
REMARK       I    between atoms: N_5  and  C_18 
REMARK    2  A    between atoms: C_22  and  N_5 
REMARK    3  A    between atoms: C_9  and  C_18 
REMARK    4  A    between atoms: C_22  and  C_23 
ROOT
HETATM    1  N   UNK N   1      33.784  16.594   6.063  0.00  0.00     0.094 N 
HETATM    2  N   UNK N   1      27.891  17.825   5.652  0.00  0.00    -0.365 N 
HETATM    3  C   UNK N   1      32.339  16.541   6.360  0.00  0.00     0.260 C 
HETATM    4  C   UNK N   1      32.003  17.284   7.674  0.00  0.00    -0.017 C 
HETATM    5  C   UNK N   1      31.502  17.059   5.148  0.00  0.00     0.081 C 
HETATM    6  C   UNK N   1      34.407  17.243   8.329  0.00  0.00     0.129 C 
HETATM    7  C   UNK N   1      34.545  16.182   7.238  0.00  0.00     0.290 C 
HETATM    8  C   UNK N   1      30.080  17.330   5.560  0.00  0.00    -0.027 A 
HETATM    9  C   UNK N   1      30.588  17.635   7.925  0.00  0.00    -0.015 A 
HETATM   10  C   UNK N   1      29.748  17.605   6.840  0.00  0.00     0.009 A 
HETATM   11  C   UNK N   1      32.958  17.588   8.570  0.00  0.00    -0.001 C 
HETATM   12  C   UNK N   1      28.435  17.908   6.884  0.00  0.00     0.043 A 
HETATM   13  C   UNK N   1      34.117  15.672   4.986  0.00  0.00     0.310 C 
HETATM   14  C   UNK N   1      28.913  17.474   4.815  0.00  0.00     0.096 A 
HETATM   15  C   UNK N   1      30.036  18.035   9.161  0.00  0.00     0.013 A 
HETATM   16  C   UNK N   1      27.830  18.286   8.083  0.00  0.00     0.030 A 
HETATM   17  C   UNK N   1      28.651  18.350   9.238  0.00  0.00     0.003 A 
HETATM   18  H   UNK N   1      26.951  17.983   5.408  0.00  0.00     0.165 HD
ENDROOT
BRANCH   6  19
HETATM   19  C   UNK N   1      35.153  16.838   9.571  0.00  0.00     0.227 C 
HETATM   20  O   UNK N   1      35.618  17.682  10.325  0.00  0.00    -0.273 OA
HETATM   21  N   UNK N   1      35.329  15.515   9.822  0.00  0.00    -0.354 N 
HETATM   22  H   UNK N   1      34.943  14.870   9.186  0.00  0.00     0.162 HD
BRANCH  21  23
HETATM   23  C   UNK N   1      36.047  14.994  10.962  0.00  0.00     0.104 C 
HETATM   24  C   UNK N   1      37.046  13.933  10.518  0.00  0.00     0.034 C 
BRANCH  23  25
HETATM   25  C   UNK N   1      35.035  14.369  11.910  0.00  0.00     0.189 C 
BRANCH  25  26
HETATM   26  O   UNK N   1      33.753  14.404  11.361  0.00  0.00    -0.399 OA
HETATM   27  H   UNK N   1      33.509  14.994  10.631  0.00  0.00     0.209 HD
ENDBRANCH  25  26
ENDBRANCH  23  25
ENDBRANCH  21  23
ENDBRANCH   6  19
TORSDOF 4
ENDMDL
MODEL 2
REMARK VINA RESULT:      -7.4      5.708     10.856
REMARK  4 active torsions:
REMARK  status: ('A' for Active; 'I' for Inactive)
REMARK    1  A    between atoms: O_2  and  C_23 
REMARK       I    between atoms: N_5  and  C_18 
REMARK    2  A    between atoms: C_22  and  N_5 
REMARK    3  A    between atoms: C_9  and  C_18 
REMARK    4  A    between atoms: C_22  and  C_23 
ROOT
HETATM    1  N   UNK N   1      35.213   9.601  13.981  0.00  0.00     0.094 N 
HETATM    2  N   UNK N   1      35.227  10.495  19.949  0.00  0.00    -0.365 N 
HETATM    3  C   UNK N   1      35.629  10.124  15.298  0.00  0.00     0.260 C 
HETATM    4  C   UNK N   1      35.226  11.607  15.471  0.00  0.00    -0.017 C 
HETATM    5  C   UNK N   1      35.094   9.219  16.451  0.00  0.00     0.081 C 
HETATM    6  C   UNK N   1      34.866  11.811  13.014  0.00  0.00     0.129 C 
HETATM    7  C   UNK N   1      35.657  10.507  12.927  0.00  0.00     0.290 C 
HETATM    8  C   UNK N   1      35.214   9.919  17.779  0.00  0.00    -0.027 A 
HETATM    9  C   UNK N   1      35.240  12.169  16.840  0.00  0.00    -0.015 A 
HETATM   10  C   UNK N   1      35.253  11.266  17.873  0.00  0.00     0.009 A 
HETATM   11  C   UNK N   1      34.890  12.368  14.416  0.00  0.00    -0.001 C 
HETATM   12  C   UNK N   1      35.253  11.601  19.179  0.00  0.00     0.043 A 
HETATM   13  C   UNK N   1      35.831   8.307  13.729  0.00  0.00     0.310 C 
HETATM   14  C   UNK N   1      35.193   9.437  19.083  0.00  0.00     0.096 A 
HETATM   15  C   UNK N   1      35.198  13.539  17.177  0.00  0.00     0.013 A 
HETATM   16  C   UNK N   1      35.237  12.941  19.571  0.00  0.00     0.030 A 
HETATM   17  C   UNK N   1      35.208  13.921  18.547  0.00  0.00     0.003 A 
HETATM   18  H   UNK N   1      35.234  10.457  20.933  0.00  0.00     0.165 HD
ENDROOT
BRANCH   6  19
HETATM   19  C   UNK N   1      35.318  12.786  11.962  0.00  0.00     0.227 C 
HETATM   20  O   UNK N   1      36.438  12.705  11.474  0.00  0.00    -0.273 OA
HETATM   21  N   UNK N   1      34.472  13.779  11.586  0.00  0.00    -0.354 N 
HETATM   22  H   UNK N   1      33.582  13.810  12.008  0.00  0.00     0.162 HD
BRANCH  21  23
HETATM   23  C   UNK N   1      34.791  14.793  10.608  0.00  0.00     0.104 C 
HETATM   24  C   UNK N   1      35.434  15.997  11.284  0.00  0.00     0.034 C 
BRANCH  23  25
HETATM   25  C   UNK N   1      33.497  15.222   9.935  0.00  0.00     0.189 C 
BRANCH  25  26
HETATM   26  O   UNK N   1      32.416  15.090  10.807  0.00  0.00    -0.399 OA
HETATM   27  H   UNK N   1      32.253  14.286  11.326  0.00  0.00     0.209 HD
ENDBRANCH  25  26
ENDBRANCH  23  25
ENDBRANCH  21  23
ENDBRANCH   6  19
TORSDOF 4
ENDMDL
MODEL 3
REMARK VINA RESULT:      -7.3      1.633      2.076
REMARK  4 active torsions:
REMARK  status: ('A' for Active; 'I' for Inactive)
REMARK    1  A    between atoms: O_2  and  C_23 
REMARK       I    between atoms: N_5  and  C_18 
REMARK    2  A    between atoms: C_22  and  N_5 
REMARK    3  A    between atoms: C_9  and  C_18 
REMARK    4  A    between atoms: C_22  and  C_23 
ROOT
HETATM    1  N   UNK N   1      32.282  16.383   4.346  0.00  0.00     0.094 N 
HETATM    2  N   UNK N   1      27.147  18.537   6.672  0.00  0.00    -0.365 N 
HETATM    3  C   UNK N   1      31.107  16.491   5.233  0.00  0.00     0.260 C 
HETATM    4  C   UNK N   1      31.501  17.011   6.635  0.00  0.00    -0.017 C 
HETATM    5  C   UNK N   1      29.985  17.350   4.569  0.00  0.00     0.081 C 
HETATM    6  C   UNK N   1      33.893  16.486   6.172  0.00  0.00     0.129 C 
HETATM    7  C   UNK N   1      33.344  15.645   5.020  0.00  0.00     0.290 C 
HETATM    8  C   UNK N   1      28.947  17.747   5.585  0.00  0.00    -0.027 A 
HETATM    9  C   UNK N   1      30.422  17.514   7.512  0.00  0.00    -0.015 A 
HETATM   10  C   UNK N   1      29.230  17.819   6.904  0.00  0.00     0.009 A 
HETATM   11  C   UNK N   1      32.778  16.991   7.054  0.00  0.00    -0.001 C 
HETATM   12  C   UNK N   1      28.147  18.301   7.546  0.00  0.00     0.043 A 
HETATM   13  C   UNK N   1      31.942  15.646   3.137  0.00  0.00     0.310 C 
HETATM   14  C   UNK N   1      27.641  18.204   5.441  0.00  0.00     0.096 A 
HETATM   15  C   UNK N   1      30.519  17.749   8.900  0.00  0.00     0.013 A 
HETATM   16  C   UNK N   1      28.177  18.528   8.923  0.00  0.00     0.030 A 
HETATM   17  C   UNK N   1      29.388  18.247   9.605  0.00  0.00     0.003 A 
HETATM   18  H   UNK N   1      26.248  18.878   6.878  0.00  0.00     0.165 HD
ENDROOT
BRANCH   6  19
HETATM   19  C   UNK N   1      34.970  15.744   6.914  0.00  0.00     0.227 C 
HETATM   20  O   UNK N   1      35.942  15.293   6.322  0.00  0.00    -0.273 OA
HETATM   21  N   UNK N   1      34.828  15.554   8.251  0.00  0.00    -0.354 N 
HETATM   22  H   UNK N   1      34.028  15.929   8.687  0.00  0.00     0.162 HD
BRANCH  21  23
HETATM   23  C   UNK N   1      35.774  14.838   9.075  0.00  0.00     0.104 C 
HETATM   24  C   UNK N   1      35.365  13.377   9.203  0.00  0.00     0.034 C 
BRANCH  23  25
HETATM   25  C   UNK N   1      35.782  15.483  10.453  0.00  0.00     0.189 C 
BRANCH  25  26
HETATM   26  O   UNK N   1      37.048  15.979  10.762  0.00  0.00    -0.399 OA
HETATM   27  H   UNK N   1      37.794  15.407  11.000  0.00  0.00     0.209 HD
ENDBRANCH  25  26
ENDBRANCH  23  25
ENDBRANCH  21  23
ENDBRANCH   6  19
TORSDOF 4
ENDMDL
MODEL 4
REMARK VINA RESULT:      -7.2     13.399     16.591
REMARK  4 active torsions:
REMARK  status: ('A' for Active; 'I' for Inactive)
REMARK    1  A    between atoms: O_2  and  C_23 
REMARK       I    between atoms: N_5  and  C_18 
REMARK    2  A    between atoms: C_22  and  N_5 
REMARK    3  A    between atoms: C_9  and  C_18 
REMARK    4  A    between atoms: C_22  and  C_23 
ROOT
HETATM    1  N   UNK N   1      26.457  24.676  -6.235  0.00  0.00     0.094 N 
HETATM    2  N   UNK N   1      30.777  20.479  -5.857  0.00  0.00    -0.365 N 
HETATM    3  C   UNK N   1      27.798  24.088  -6.043  0.00  0.00     0.260 C 
HETATM    4  C   UNK N   1      28.205  24.081  -4.552  0.00  0.00    -0.017 C 
HETATM    5  C   UNK N   1      27.884  22.672  -6.695  0.00  0.00     0.081 C 
HETATM    6  C   UNK N   1      26.411  25.732  -4.039  0.00  0.00     0.129 C 
HETATM    7  C   UNK N   1      26.379  25.962  -5.550  0.00  0.00     0.290 C 
HETATM    8  C   UNK N   1      29.107  21.938  -6.215  0.00  0.00    -0.027 A 
HETATM    9  C   UNK N   1      29.335  23.215  -4.151  0.00  0.00    -0.015 A 
HETATM   10  C   UNK N   1      29.697  22.230  -5.035  0.00  0.00     0.009 A 
HETATM   11  C   UNK N   1      27.569  24.847  -3.649  0.00  0.00    -0.001 C 
HETATM   12  C   UNK N   1      30.692  21.344  -4.826  0.00  0.00     0.043 A 
HETATM   13  C   UNK N   1      26.206  24.922  -7.648  0.00  0.00     0.310 C 
HETATM   14  C   UNK N   1      29.783  20.835  -6.726  0.00  0.00     0.096 A 
HETATM   15  C   UNK N   1      30.043  23.283  -2.931  0.00  0.00     0.013 A 
HETATM   16  C   UNK N   1      31.442  21.380  -3.649  0.00  0.00     0.030 A 
HETATM   17  C   UNK N   1      31.105  22.367  -2.689  0.00  0.00     0.003 A 
HETATM   18  H   UNK N   1      31.422  19.744  -5.962  0.00  0.00     0.165 HD
ENDROOT
BRANCH   6  19
HETATM   19  C   UNK N   1      26.365  27.039  -3.296  0.00  0.00     0.227 C 
HETATM   20  O   UNK N   1      25.869  27.107  -2.178  0.00  0.00    -0.273 OA
HETATM   21  N   UNK N   1      26.853  28.151  -3.903  0.00  0.00    -0.354 N 
HETATM   22  H   UNK N   1      27.238  28.053  -4.804  0.00  0.00     0.162 HD
BRANCH  21  23
HETATM   23  C   UNK N   1      26.845  29.469  -3.312  0.00  0.00     0.104 C 
HETATM   24  C   UNK N   1      26.882  30.537  -4.397  0.00  0.00     0.034 C 
BRANCH  23  25
HETATM   25  C   UNK N   1      28.080  29.599  -2.433  0.00  0.00     0.189 C 
BRANCH  25  26
HETATM   26  O   UNK N   1      27.756  29.408  -1.090  0.00  0.00    -0.399 OA
HETATM   27  H   UNK N   1      27.720  28.531  -0.677  0.00  0.00     0.209 HD
ENDBRANCH  25  26
ENDBRANCH  23  25
ENDBRANCH  21  23
ENDBRANCH   6  19
TORSDOF 4
ENDMDL
MODEL 5
REMARK VINA RESULT:      -6.9      7.335     10.170
REMARK  4 active torsions:
REMARK  status: ('A' for Active; 'I' for Inactive)
REMARK    1  A    between atoms: O_2  and  C_23 
REMARK       I    between atoms: N_5  and  C_18 
REMARK    2  A    between atoms: C_22  and  N_5 
REMARK    3  A    between atoms: C_9  and  C_18 
REMARK    4  A    between atoms: C_22  and  C_23 
ROOT
HETATM    1  N   UNK N   1      36.423  15.043  16.100  0.00  0.00     0.094 N 
HETATM    2  N   UNK N   1      35.385  12.508  10.723  0.00  0.00    -0.365 N 
HETATM    3  C   UNK N   1      36.395  14.014  15.041  0.00  0.00     0.260 C 
HETATM    4  C   UNK N   1      35.308  12.949  15.315  0.00  0.00    -0.017 C 
HETATM    5  C   UNK N   1      36.249  14.670  13.632  0.00  0.00     0.081 C 
HETATM    6  C   UNK N   1      35.150  13.698  17.686  0.00  0.00     0.129 C 
HETATM    7  C   UNK N   1      36.479  14.401  17.410  0.00  0.00     0.290 C 
HETATM    8  C   UNK N   1      35.877  13.639  12.600  0.00  0.00    -0.027 A 
HETATM    9  C   UNK N   1      34.906  12.071  14.194  0.00  0.00    -0.015 A 
HETATM   10  C   UNK N   1      35.248  12.491  12.934  0.00  0.00     0.009 A 
HETATM   11  C   UNK N   1      34.757  12.809  16.533  0.00  0.00    -0.001 C 
HETATM   12  C   UNK N   1      34.951  11.824  11.800  0.00  0.00     0.043 A 
HETATM   13  C   UNK N   1      37.613  15.872  15.973  0.00  0.00     0.310 C 
HETATM   14  C   UNK N   1      35.957  13.650  11.211  0.00  0.00     0.096 A 
HETATM   15  C   UNK N   1      34.171  10.871  14.300  0.00  0.00     0.013 A 
HETATM   16  C   UNK N   1      34.247  10.619  11.846  0.00  0.00     0.030 A 
HETATM   17  C   UNK N   1      33.852  10.141  13.122  0.00  0.00     0.003 A 
HETATM   18  H   UNK N   1      35.307  12.240   9.779  0.00  0.00     0.165 HD
ENDROOT
BRANCH   6  19
HETATM   19  C   UNK N   1      35.180  12.996  19.016  0.00  0.00     0.227 C 
HETATM   20  O   UNK N   1      34.799  13.564  20.032  0.00  0.00    -0.273 OA
HETATM   21  N   UNK N   1      35.670  11.731  19.074  0.00  0.00    -0.354 N 
HETATM   22  H   UNK N   1      35.971  11.315  18.234  0.00  0.00     0.162 HD
BRANCH  21  23
HETATM   23  C   UNK N   1      35.778  10.957  20.289  0.00  0.00     0.104 C 
HETATM   24  C   UNK N   1      36.817   9.857  20.124  0.00  0.00     0.034 C 
BRANCH  23  25
HETATM   25  C   UNK N   1      34.420  10.332  20.571  0.00  0.00     0.189 C 
BRANCH  25  26
HETATM   26  O   UNK N   1      33.754  11.027  21.581  0.00  0.00    -0.399 OA
HETATM   27  H   UNK N   1      33.740  11.996  21.633  0.00  0.00     0.209 HD
ENDBRANCH  25  26
ENDBRANCH  23  25
ENDBRANCH  21  23
ENDBRANCH   6  19
TORSDOF 4
ENDMDL
MODEL 6
REMARK VINA RESULT:      -6.6     13.501     17.046
REMARK  4 active torsions:
REMARK  status: ('A' for Active; 'I' for Inactive)
REMARK    1  A    between atoms: O_2  and  C_23 
REMARK       I    between atoms: N_5  and  C_18 
REMARK    2  A    between atoms: C_22  and  N_5 
REMARK    3  A    between atoms: C_9  and  C_18 
REMARK    4  A    between atoms: C_22  and  C_23 
ROOT
HETATM    1  N   UNK N   1      28.170  21.514  -8.143  0.00  0.00     0.094 N 
HETATM    2  N   UNK N   1      32.370  20.182  -4.020  0.00  0.00    -0.365 N 
HETATM    3  C   UNK N   1      29.293  21.707  -7.204  0.00  0.00     0.260 C 
HETATM    4  C   UNK N   1      28.844  22.462  -5.931  0.00  0.00    -0.017 C 
HETATM    5  C   UNK N   1      29.988  20.348  -6.880  0.00  0.00     0.081 C 
HETATM    6  C   UNK N   1      26.764  23.202  -7.087  0.00  0.00     0.129 C 
HETATM    7  C   UNK N   1      27.489  22.785  -8.366  0.00  0.00     0.290 C 
HETATM    8  C   UNK N   1      30.891  20.483  -5.683  0.00  0.00    -0.027 A 
HETATM    9  C   UNK N   1      29.737  22.418  -4.753  0.00  0.00    -0.015 A 
HETATM   10  C   UNK N   1      30.697  21.438  -4.748  0.00  0.00     0.009 A 
HETATM   11  C   UNK N   1      27.690  23.150  -5.897  0.00  0.00    -0.001 C 
HETATM   12  C   UNK N   1      31.585  21.244  -3.751  0.00  0.00     0.043 A 
HETATM   13  C   UNK N   1      28.660  21.053  -9.434  0.00  0.00     0.310 C 
HETATM   14  C   UNK N   1      31.938  19.692  -5.221  0.00  0.00     0.096 A 
HETATM   15  C   UNK N   1      29.665  23.260  -3.623  0.00  0.00     0.013 A 
HETATM   16  C   UNK N   1      31.576  22.063  -2.620  0.00  0.00     0.030 A 
HETATM   17  C   UNK N   1      30.595  23.085  -2.561  0.00  0.00     0.003 A 
HETATM   18  H   UNK N   1      33.104  19.832  -3.465  0.00  0.00     0.165 HD
ENDROOT
BRANCH   6  19
HETATM   19  C   UNK N   1      26.074  24.526  -7.268  0.00  0.00     0.227 C 
HETATM   20  O   UNK N   1      25.189  24.663  -8.102  0.00  0.00    -0.273 OA
HETATM   21  N   UNK N   1      26.476  25.579  -6.509  0.00  0.00    -0.354 N 
HETATM   22  H   UNK N   1      27.195  25.426  -5.854  0.00  0.00     0.162 HD
BRANCH  21  23
HETATM   23  C   UNK N   1      25.916  26.907  -6.602  0.00  0.00     0.104 C 
HETATM   24  C   UNK N   1      26.988  27.953  -6.324  0.00  0.00     0.034 C 
BRANCH  23  25
HETATM   25  C   UNK N   1      24.813  27.026  -5.562  0.00  0.00     0.189 C 
BRANCH  25  26
HETATM   26  O   UNK N   1      25.243  27.770  -4.463  0.00  0.00    -0.399 OA
HETATM   27  H   UNK N   1      25.240  28.740  -4.450  0.00  0.00     0.209 HD
ENDBRANCH  25  26
ENDBRANCH  23  25
ENDBRANCH  21  23
ENDBRANCH   6  19
TORSDOF 4
ENDMDL
MODEL 7
REMARK VINA RESULT:      -6.4      6.357      9.036
REMARK  4 active torsions:
REMARK  status: ('A' for Active; 'I' for Inactive)
REMARK    1  A    between atoms: O_2  and  C_23 
REMARK       I    between atoms: N_5  and  C_18 
REMARK    2  A    between atoms: C_22  and  N_5 
REMARK    3  A    between atoms: C_9  and  C_18 
REMARK    4  A    between atoms: C_22  and  C_23 
ROOT
HETATM    1  N   UNK N   1      25.200  15.058   3.897  0.00  0.00     0.094 N 
HETATM    2  N   UNK N   1      19.552  16.350   2.210  0.00  0.00    -0.365 N 
HETATM    3  C   UNK N   1      23.810  15.548   3.987  0.00  0.00     0.260 C 
HETATM    4  C   UNK N   1      23.751  17.093   3.972  0.00  0.00    -0.017 C 
HETATM    5  C   UNK N   1      22.919  14.903   2.879  0.00  0.00     0.081 C 
HETATM    6  C   UNK N   1      26.183  17.205   4.503  0.00  0.00     0.129 C 
HETATM    7  C   UNK N   1      26.027  15.735   4.890  0.00  0.00     0.290 C 
HETATM    8  C   UNK N   1      21.614  15.642   2.748  0.00  0.00    -0.027 A 
HETATM    9  C   UNK N   1      22.446  17.730   3.692  0.00  0.00    -0.015 A 
HETATM   10  C   UNK N   1      21.485  16.934   3.120  0.00  0.00     0.009 A 
HETATM   11  C   UNK N   1      24.843  17.837   4.220  0.00  0.00    -0.001 C 
HETATM   12  C   UNK N   1      20.247  17.351   2.786  0.00  0.00     0.043 A 
HETATM   13  C   UNK N   1      25.257  13.632   4.185  0.00  0.00     0.310 C 
HETATM   14  C   UNK N   1      20.401  15.279   2.171  0.00  0.00     0.096 A 
HETATM   15  C   UNK N   1      22.115  19.083   3.919  0.00  0.00     0.013 A 
HETATM   16  C   UNK N   1      19.856  18.672   3.011  0.00  0.00     0.030 A 
HETATM   17  C   UNK N   1      20.812  19.548   3.586  0.00  0.00     0.003 A 
HETATM   18  H   UNK N   1      18.624  16.384   1.884  0.00  0.00     0.165 HD
ENDROOT
BRANCH   6  19
HETATM   19  C   UNK N   1      27.005  17.946   5.522  0.00  0.00     0.227 C 
HETATM   20  O   UNK N   1      26.992  19.169   5.567  0.00  0.00    -0.273 OA
HETATM   21  N   UNK N   1      27.789  17.231   6.370  0.00  0.00    -0.354 N 
HETATM   22  H   UNK N   1      27.773  16.249   6.295  0.00  0.00     0.162 HD
BRANCH  21  23
HETATM   23  C   UNK N   1      28.644  17.819   7.375  0.00  0.00     0.104 C 
HETATM   24  C   UNK N   1      30.082  17.356   7.182  0.00  0.00     0.034 C 
BRANCH  23  25
HETATM   25  C   UNK N   1      28.146  17.368   8.739  0.00  0.00     0.189 C 
BRANCH  25  26
HETATM   26  O   UNK N   1      27.401  18.375   9.353  0.00  0.00    -0.399 OA
HETATM   27  H   UNK N   1      26.784  18.203  10.082  0.00  0.00     0.209 HD
ENDBRANCH  25  26
ENDBRANCH  23  25
ENDBRANCH  21  23
ENDBRANCH   6  19
TORSDOF 4
ENDMDL
MODEL 8
REMARK VINA RESULT:      -6.3     10.694     14.300
REMARK  4 active torsions:
REMARK  status: ('A' for Active; 'I' for Inactive)
REMARK    1  A    between atoms: O_2  and  C_23 
REMARK       I    between atoms: N_5  and  C_18 
REMARK    2  A    between atoms: C_22  and  N_5 
REMARK    3  A    between atoms: C_9  and  C_18 
REMARK    4  A    between atoms: C_22  and  C_23 
ROOT
HETATM    1  N   UNK N   1      34.825   8.130  19.437  0.00  0.00     0.094 N 
HETATM    2  N   UNK N   1      36.509  11.698  14.871  0.00  0.00    -0.365 N 
HETATM    3  C   UNK N   1      34.756   9.204  18.426  0.00  0.00     0.260 C 
HETATM    4  C   UNK N   1      34.939  10.599  19.068  0.00  0.00    -0.017 C 
HETATM    5  C   UNK N   1      35.765   8.941  17.264  0.00  0.00     0.081 C 
HETATM    6  C   UNK N   1      34.482   9.637  21.321  0.00  0.00     0.129 C 
HETATM    7  C   UNK N   1      33.932   8.439  20.548  0.00  0.00     0.290 C 
HETATM    8  C   UNK N   1      35.946  10.179  16.426  0.00  0.00    -0.027 A 
HETATM    9  C   UNK N   1      35.256  11.733  18.173  0.00  0.00    -0.015 A 
HETATM   10  C   UNK N   1      35.714  11.415  16.919  0.00  0.00     0.009 A 
HETATM   11  C   UNK N   1      34.799  10.782  20.392  0.00  0.00    -0.001 C 
HETATM   12  C   UNK N   1      36.062  12.319  15.981  0.00  0.00     0.043 A 
HETATM   13  C   UNK N   1      34.385   6.864  18.866  0.00  0.00     0.310 C 
HETATM   14  C   UNK N   1      36.451  10.359  15.142  0.00  0.00     0.096 A 
HETATM   15  C   UNK N   1      35.170  13.102  18.503  0.00  0.00     0.013 A 
HETATM   16  C   UNK N   1      35.974  13.687  16.244  0.00  0.00     0.030 A 
HETATM   17  C   UNK N   1      35.521  14.078  17.530  0.00  0.00     0.003 A 
HETATM   18  H   UNK N   1      36.814  12.122  14.037  0.00  0.00     0.165 HD
ENDROOT
BRANCH   6  19
HETATM   19  C   UNK N   1      33.569  10.008  22.458  0.00  0.00     0.227 C 
HETATM   20  O   UNK N   1      32.442  10.433  22.243  0.00  0.00    -0.273 OA
HETATM   21  N   UNK N   1      34.034   9.894  23.729  0.00  0.00    -0.354 N 
HETATM   22  H   UNK N   1      34.949   9.554  23.856  0.00  0.00     0.162 HD
BRANCH  21  23
HETATM   23  C   UNK N   1      33.272  10.241  24.906  0.00  0.00     0.104 C 
HETATM   24  C   UNK N   1      34.201  10.704  26.021  0.00  0.00     0.034 C 
BRANCH  23  25
HETATM   25  C   UNK N   1      32.517   9.001  25.360  0.00  0.00     0.189 C 
BRANCH  25  26
HETATM   26  O   UNK N   1      31.231   8.976  24.819  0.00  0.00    -0.399 OA
HETATM   27  H   UNK N   1      30.967   9.525  24.063  0.00  0.00     0.209 HD
ENDBRANCH  25  26
ENDBRANCH  23  25
ENDBRANCH  21  23
ENDBRANCH   6  19
TORSDOF 4
ENDMDL
MODEL 9
REMARK VINA RESULT:      -6.3     14.420     18.274
REMARK  4 active torsions:
REMARK  status: ('A' for Active; 'I' for Inactive)
REMARK    1  A    between atoms: O_2  and  C_23 
REMARK       I    between atoms: N_5  and  C_18 
REMARK    2  A    between atoms: C_22  and  N_5 
REMARK    3  A    between atoms: C_9  and  C_18 
REMARK    4  A    between atoms: C_22  and  C_23 
ROOT
HETATM    1  N   UNK N   1      27.231  25.229  -4.875  0.00  0.00     0.094 N 
HETATM    2  N   UNK N   1      31.476  21.325  -3.096  0.00  0.00    -0.365 N 
HETATM    3  C   UNK N   1      27.886  23.937  -4.590  0.00  0.00     0.260 C 
HETATM    4  C   UNK N   1      28.337  23.231  -5.890  0.00  0.00    -0.017 C 
HETATM    5  C   UNK N   1      29.054  24.117  -3.570  0.00  0.00     0.081 C 
HETATM    6  C   UNK N   1      26.856  24.721  -7.230  0.00  0.00     0.129 C 
HETATM    7  C   UNK N   1      26.198  25.046  -5.889  0.00  0.00     0.290 C 
HETATM    8  C   UNK N   1      29.930  22.893  -3.541  0.00  0.00    -0.027 A 
HETATM    9  C   UNK N   1      29.313  22.126  -5.771  0.00  0.00    -0.015 A 
HETATM   10  C   UNK N   1      30.009  22.047  -4.592  0.00  0.00     0.009 A 
HETATM   11  C   UNK N   1      27.848  23.594  -7.088  0.00  0.00    -0.001 C 
HETATM   12  C   UNK N   1      30.944  21.115  -4.318  0.00  0.00     0.043 A 
HETATM   13  C   UNK N   1      26.579  25.743  -3.680  0.00  0.00     0.310 C 
HETATM   14  C   UNK N   1      30.856  22.441  -2.606  0.00  0.00     0.096 A 
HETATM   15  C   UNK N   1      29.621  21.177  -6.770  0.00  0.00     0.013 A 
HETATM   16  C   UNK N   1      31.273  20.137  -5.258  0.00  0.00     0.030 A 
HETATM   17  C   UNK N   1      30.597  20.176  -6.504  0.00  0.00     0.003 A 
HETATM   18  H   UNK N   1      32.167  20.786  -2.650  0.00  0.00     0.165 HD
ENDROOT
BRANCH   6  19
HETATM   19  C   UNK N   1      25.820  24.493  -8.296  0.00  0.00     0.227 C 
HETATM   20  O   UNK N   1      24.960  23.632  -8.160  0.00  0.00    -0.273 OA
HETATM   21  N   UNK N   1      25.876  25.239  -9.429  0.00  0.00    -0.354 N 
HETATM   22  H   UNK N   1      26.587  25.917  -9.499  0.00  0.00     0.162 HD
BRANCH  21  23
HETATM   23  C   UNK N   1      24.960  25.102 -10.538  0.00  0.00     0.104 C 
HETATM   24  C   UNK N   1      25.667  24.476 -11.733  0.00  0.00     0.034 C 
BRANCH  23  25
HETATM   25  C   UNK N   1      24.465  26.491 -10.913  0.00  0.00     0.189 C 
BRANCH  25  26
HETATM   26  O   UNK N   1      25.217  27.019 -11.963  0.00  0.00    -0.399 OA
HETATM   27  H   UNK N   1      25.716  26.465 -12.584  0.00  0.00     0.209 HD
ENDBRANCH  25  26
ENDBRANCH  23  25
ENDBRANCH  21  23
ENDBRANCH   6  19
TORSDOF 4
ENDMDL
