MODEL 1
REMARK VINA RESULT:      -8.0      0.000      0.000
REMARK  8 active torsions:
REMARK  status: ('A' for Active; 'I' for Inactive)
REMARK    1  A    between atoms: O_3  and  C_21 
REMARK    2  A    between atoms: N_5  and  C_19 
REMARK    3  A    between atoms: N_6  and  C_20 
REMARK    4  A    between atoms: N_11  and  C_23 
REMARK    5  A    between atoms: N_11  and  C_26 
REMARK    6  A    between atoms: N_14  and  C_28 
REMARK       I    between atoms: N_14  and  C_31 
REMARK    7  A    between atoms: C_19  and  C_21 
REMARK    8  A    between atoms: C_27  and  C_31 
ROOT
HETATM    1  N   UNK N   1      36.463  14.559   9.487  0.00  0.00    -0.323 N 
HETATM    2  H   UNK N   1      37.435  14.409   9.443  0.00  0.00     0.169 HD
ENDROOT
BRANCH   1   3
HETATM    3  C   UNK N   1      35.664  14.656   8.313  0.00  0.00     0.111 A 
HETATM    4  N   UNK N   1      36.097  14.138   7.128  0.00  0.00    -0.332 N 
HETATM    5  C   UNK N   1      35.467  14.408   5.958  0.00  0.00     0.080 A 
ATOM      6  HN  UNK N   1      36.918  13.532   7.122  1.00  0.00     0.168 HD
HETATM    7  N   UNK N   1      34.401  15.247   5.952  0.00  0.00    -0.332 N 
HETATM    8  C   UNK N   1      35.999  13.857   4.684  0.00  0.00     0.089 C 
HETATM    9  C   UNK N   1      33.953  15.805   7.107  0.00  0.00     0.108 A 
ATOM     10  HN  UNK N   1      33.932  15.461   5.071  1.00  0.00     0.168 HD
HETATM   11  C   UNK N   1      34.585  15.510   8.319  0.00  0.00     0.097 A 
BRANCH   9  12
HETATM   12  N   UNK N   1      32.905  16.756   7.089  0.00  0.00    -0.364 N 
HETATM   13  C   UNK N   1      32.553  17.481   8.285  0.00  0.00     0.154 C 
HETATM   14  C   UNK N   1      31.091  17.224   8.579  0.00  0.00     0.292 C 
HETATM   15  N   UNK N   1      30.292  17.581   7.402  0.00  0.00     0.093 N 
HETATM   16  C   UNK N   1      30.665  16.770   6.234  0.00  0.00     0.292 C 
HETATM   17  C   UNK N   1      32.136  16.993   5.892  0.00  0.00     0.154 C 
BRANCH  15  18
HETATM   18  C   UNK N   1      28.872  17.408   7.704  0.00  0.00     0.298 C 
BRANCH  18  19
HETATM   19  C   UNK N   1      28.552  17.572   9.188  0.00  0.00     0.194 C 
BRANCH  19  20
HETATM   20  O   UNK N   1      27.375  18.302   9.326  0.00  0.00    -0.399 OA
HETATM   21  H   UNK N   1      27.367  19.190   9.718  0.00  0.00     0.209 HD
ENDBRANCH  19  20
ENDBRANCH  18  19
ENDBRANCH  15  18
ENDBRANCH   9  12
ENDBRANCH   1   3
BRANCH   1  22
HETATM   22  C   UNK N   1      35.791  14.691  10.717  0.00  0.00     0.150 A 
HETATM   23  S   UNK N   1      35.151  13.369  11.443  0.00  0.00    -0.047 SA
HETATM   24  C   UNK N   1      35.525  13.757  12.985  0.00  0.00     0.091 A 
HETATM   25  C   UNK N   1      36.127  15.019  12.957  0.00  0.00     0.115 A 
HETATM   26  N   UNK N   1      36.298  15.513  11.678  0.00  0.00    -0.345 N 
ATOM     27  HN  UNK N   1      36.757  16.401  11.475  1.00  0.00     0.167 HD
BRANCH  24  28
HETATM   28  C   UNK N   1      35.389  12.800  14.068  0.00  0.00     0.264 C 
HETATM   29  O   UNK N   1      34.357  12.143  14.125  0.00  0.00    -0.267 OA
HETATM   30  N   UNK N   1      36.359  12.607  14.992  0.00  0.00    -0.320 N 
HETATM   31  H   UNK N   1      37.229  13.065  14.928  0.00  0.00     0.169 HD
BRANCH  30  32
HETATM   32  C   UNK N   1      36.068  11.721  16.056  0.00  0.00     0.062 A 
HETATM   33  C   UNK N   1      35.481  12.194  17.247  0.00  0.00    -0.034 A 
HETATM   34  C   UNK N   1      35.361  11.339  18.344  0.00  0.00     0.009 A 
HETATM   35  C   UNK N   1      35.026  13.610  17.374  0.00  0.00     0.050 C 
HETATM   36  C   UNK N   1      35.822  10.024  18.265  0.00  0.00     0.002 A 
HETATM   37  C   UNK N   1      36.397   9.551  17.083  0.00  0.00     0.026 A 
HETATM   38  C   UNK N   1      36.520  10.395  15.978  0.00  0.00     0.061 A 
HETATM   39 Cl   UNK N   1      37.308   9.803  14.523  0.00  0.00    -0.082 Cl
ENDBRANCH  30  32
ENDBRANCH  24  28
ENDBRANCH   1  22
TORSDOF 8
ENDMDL
MODEL 2
REMARK VINA RESULT:      -8.0      1.268      1.615
REMARK  8 active torsions:
REMARK  status: ('A' for Active; 'I' for Inactive)
REMARK    1  A    between atoms: O_3  and  C_21 
REMARK    2  A    between atoms: N_5  and  C_19 
REMARK    3  A    between atoms: N_6  and  C_20 
REMARK    4  A    between atoms: N_11  and  C_23 
REMARK    5  A    between atoms: N_11  and  C_26 
REMARK    6  A    between atoms: N_14  and  C_28 
REMARK       I    between atoms: N_14  and  C_31 
REMARK    7  A    between atoms: C_19  and  C_21 
REMARK    8  A    between atoms: C_27  and  C_31 
ROOT
HETATM    1  N   UNK N   1      35.654  15.321  11.104  0.00  0.00    -0.323 N 
HETATM    2  H   UNK N   1      35.728  16.204  11.535  0.00  0.00     0.169 HD
ENDROOT
BRANCH   1   3
HETATM    3  C   UNK N   1      35.265  15.182   9.742  0.00  0.00     0.111 A 
HETATM    4  N   UNK N   1      36.099  14.602   8.833  0.00  0.00    -0.332 N 
HETATM    5  C   UNK N   1      35.852  14.656   7.500  0.00  0.00     0.080 A 
ATOM      6  HN  UNK N   1      36.932  14.114   9.164  1.00  0.00     0.168 HD
HETATM    7  N   UNK N   1      34.770  15.340   7.050  0.00  0.00    -0.332 N 
HETATM    8  C   UNK N   1      36.811  14.046   6.541  0.00  0.00     0.089 C 
HETATM    9  C   UNK N   1      33.928  15.954   7.920  0.00  0.00     0.108 A 
ATOM     10  HN  UNK N   1      34.588  15.393   6.047  1.00  0.00     0.168 HD
HETATM   11  C   UNK N   1      34.166  15.880   9.296  0.00  0.00     0.097 A 
BRANCH   9  12
HETATM   12  N   UNK N   1      32.856  16.750   7.448  0.00  0.00    -0.364 N 
HETATM   13  C   UNK N   1      32.456  17.938   8.161  0.00  0.00     0.154 C 
HETATM   14  C   UNK N   1      30.994  17.798   8.526  0.00  0.00     0.292 C 
HETATM   15  N   UNK N   1      30.216  17.534   7.312  0.00  0.00     0.093 N 
HETATM   16  C   UNK N   1      30.639  16.283   6.665  0.00  0.00     0.292 C 
HETATM   17  C   UNK N   1      32.111  16.371   6.272  0.00  0.00     0.154 C 
BRANCH  15  18
HETATM   18  C   UNK N   1      28.793  17.473   7.646  0.00  0.00     0.298 C 
BRANCH  18  19
HETATM   19  C   UNK N   1      28.533  17.465   9.150  0.00  0.00     0.194 C 
BRANCH  19  20
HETATM   20  O   UNK N   1      27.392  18.216   9.423  0.00  0.00    -0.399 OA
HETATM   21  H   UNK N   1      27.446  19.144   9.700  0.00  0.00     0.209 HD
ENDBRANCH  19  20
ENDBRANCH  18  19
ENDBRANCH  15  18
ENDBRANCH   9  12
ENDBRANCH   1   3
BRANCH   1  22
HETATM   22  C   UNK N   1      35.929  14.131  11.804  0.00  0.00     0.150 A 
HETATM   23  S   UNK N   1      36.117  14.165  13.431  0.00  0.00    -0.047 SA
HETATM   24  C   UNK N   1      35.348  12.765  13.774  0.00  0.00     0.091 A 
HETATM   25  C   UNK N   1      34.973  12.192  12.556  0.00  0.00     0.115 A 
HETATM   26  N   UNK N   1      35.276  12.984  11.464  0.00  0.00    -0.345 N 
ATOM     27  HN  UNK N   1      35.035  12.736  10.505  1.00  0.00     0.167 HD
BRANCH  24  28
HETATM   28  C   UNK N   1      35.005  12.396  15.136  0.00  0.00     0.264 C 
HETATM   29  O   UNK N   1      33.818  12.275  15.414  0.00  0.00    -0.267 OA
HETATM   30  N   UNK N   1      35.942  12.174  16.086  0.00  0.00    -0.320 N 
HETATM   31  H   UNK N   1      36.904  12.190  15.872  0.00  0.00     0.169 HD
BRANCH  30  32
HETATM   32  C   UNK N   1      35.482  11.920  17.399  0.00  0.00     0.062 A 
HETATM   33  C   UNK N   1      35.339  12.971  18.327  0.00  0.00    -0.034 A 
HETATM   34  C   UNK N   1      35.050  12.679  19.662  0.00  0.00     0.009 A 
HETATM   35  C   UNK N   1      35.536  14.393  17.920  0.00  0.00     0.050 C 
HETATM   36  C   UNK N   1      34.907  11.353  20.076  0.00  0.00     0.002 A 
HETATM   37  C   UNK N   1      35.040  10.311  19.156  0.00  0.00     0.026 A 
HETATM   38  C   UNK N   1      35.327  10.591  17.818  0.00  0.00     0.061 A 
HETATM   39 Cl   UNK N   1      35.560   9.263  16.690  0.00  0.00    -0.082 Cl
ENDBRANCH  30  32
ENDBRANCH  24  28
ENDBRANCH   1  22
TORSDOF 8
ENDMDL
MODEL 3
REMARK VINA RESULT:      -7.8      7.690     12.145
REMARK  8 active torsions:
REMARK  status: ('A' for Active; 'I' for Inactive)
REMARK    1  A    between atoms: O_3  and  C_21 
REMARK    2  A    between atoms: N_5  and  C_19 
REMARK    3  A    between atoms: N_6  and  C_20 
REMARK    4  A    between atoms: N_11  and  C_23 
REMARK    5  A    between atoms: N_11  and  C_26 
REMARK    6  A    between atoms: N_14  and  C_28 
REMARK       I    between atoms: N_14  and  C_31 
REMARK    7  A    between atoms: C_19  and  C_21 
REMARK    8  A    between atoms: C_27  and  C_31 
ROOT
HETATM    1  N   UNK N   1      24.711  14.314   5.948  0.00  0.00    -0.323 N 
HETATM    2  H   UNK N   1      24.831  13.337   5.949  0.00  0.00     0.169 HD
ENDROOT
BRANCH   1   3
HETATM    3  C   UNK N   1      23.546  14.928   6.491  0.00  0.00     0.111 A 
HETATM    4  N   UNK N   1      22.917  14.395   7.576  0.00  0.00    -0.332 N 
HETATM    5  C   UNK N   1      21.693  14.824   7.975  0.00  0.00     0.080 A 
ATOM      6  HN  UNK N   1      23.379  13.654   8.103  1.00  0.00     0.168 HD
HETATM    7  N   UNK N   1      21.054  15.779   7.254  0.00  0.00    -0.332 N 
HETATM    8  C   UNK N   1      21.025  14.185   9.139  0.00  0.00     0.089 C 
HETATM    9  C   UNK N   1      21.634  16.318   6.150  0.00  0.00     0.108 A 
ATOM     10  HN  UNK N   1      20.128  16.095   7.544  1.00  0.00     0.168 HD
HETATM   11  C   UNK N   1      22.907  15.896   5.751  0.00  0.00     0.097 A 
BRANCH   9  12
HETATM   12  N   UNK N   1      20.929  17.242   5.342  0.00  0.00    -0.364 N 
HETATM   13  C   UNK N   1      19.776  16.821   4.585  0.00  0.00     0.154 C 
HETATM   14  C   UNK N   1      20.033  17.130   3.125  0.00  0.00     0.292 C 
HETATM   15  N   UNK N   1      20.362  18.551   2.982  0.00  0.00     0.093 N 
HETATM   16  C   UNK N   1      21.575  18.900   3.735  0.00  0.00     0.292 C 
HETATM   17  C   UNK N   1      21.370  18.610   5.220  0.00  0.00     0.154 C 
BRANCH  15  18
HETATM   18  C   UNK N   1      20.536  18.873   1.566  0.00  0.00     0.298 C 
BRANCH  18  19
HETATM   19  C   UNK N   1      20.777  20.359   1.317  0.00  0.00     0.194 C 
BRANCH  19  20
HETATM   20  O   UNK N   1      20.662  20.621  -0.046  0.00  0.00    -0.399 OA
HETATM   21  H   UNK N   1      19.922  20.278  -0.571  0.00  0.00     0.209 HD
ENDBRANCH  19  20
ENDBRANCH  18  19
ENDBRANCH  15  18
ENDBRANCH   9  12
ENDBRANCH   1   3
BRANCH   1  22
HETATM   22  C   UNK N   1      25.683  15.179   5.409  0.00  0.00     0.150 A 
HETATM   23  S   UNK N   1      26.849  15.799   6.377  0.00  0.00    -0.047 SA
HETATM   24  C   UNK N   1      28.091  15.705   5.320  0.00  0.00     0.091 A 
HETATM   25  C   UNK N   1      27.570  15.225   4.115  0.00  0.00     0.115 A 
HETATM   26  N   UNK N   1      26.228  14.904   4.191  0.00  0.00    -0.345 N 
ATOM     27  HN  UNK N   1      25.701  14.501   3.416  1.00  0.00     0.167 HD
BRANCH  24  28
HETATM   28  C   UNK N   1      29.466  15.919   5.735  0.00  0.00     0.264 C 
HETATM   29  O   UNK N   1      30.169  14.933   5.916  0.00  0.00    -0.267 OA
HETATM   30  N   UNK N   1      29.987  17.156   5.911  0.00  0.00    -0.320 N 
HETATM   31  H   UNK N   1      29.469  17.966   5.699  0.00  0.00     0.169 HD
BRANCH  30  32
HETATM   32  C   UNK N   1      31.307  17.234   6.414  0.00  0.00     0.062 A 
HETATM   33  C   UNK N   1      31.542  17.416   7.791  0.00  0.00    -0.034 A 
HETATM   34  C   UNK N   1      32.841  17.661   8.244  0.00  0.00     0.009 A 
HETATM   35  C   UNK N   1      30.420  17.398   8.776  0.00  0.00     0.050 C 
HETATM   36  C   UNK N   1      33.900  17.730   7.336  0.00  0.00     0.002 A 
HETATM   37  C   UNK N   1      33.669  17.541   5.971  0.00  0.00     0.026 A 
HETATM   38  C   UNK N   1      32.376  17.292   5.508  0.00  0.00     0.061 A 
HETATM   39 Cl   UNK N   1      32.095  17.126   3.781  0.00  0.00    -0.082 Cl
ENDBRANCH  30  32
ENDBRANCH  24  28
ENDBRANCH   1  22
TORSDOF 8
ENDMDL
MODEL 4
REMARK VINA RESULT:      -7.8     10.122     13.316
REMARK  8 active torsions:
REMARK  status: ('A' for Active; 'I' for Inactive)
REMARK    1  A    between atoms: O_3  and  C_21 
REMARK    2  A    between atoms: N_5  and  C_19 
REMARK    3  A    between atoms: N_6  and  C_20 
REMARK    4  A    between atoms: N_11  and  C_23 
REMARK    5  A    between atoms: N_11  and  C_26 
REMARK    6  A    between atoms: N_14  and  C_28 
REMARK       I    between atoms: N_14  and  C_31 
REMARK    7  A    between atoms: C_19  and  C_21 
REMARK    8  A    between atoms: C_27  and  C_31 
ROOT
HETATM    1  N   UNK N   1      20.497  15.956   3.693  0.00  0.00    -0.323 N 
HETATM    2  H   UNK N   1      20.303  15.535   2.824  0.00  0.00     0.169 HD
ENDROOT
BRANCH   1   3
HETATM    3  C   UNK N   1      21.269  17.148   3.793  0.00  0.00     0.111 A 
HETATM    4  N   UNK N   1      20.735  18.357   3.457  0.00  0.00    -0.332 N 
HETATM    5  C   UNK N   1      21.503  19.468   3.330  0.00  0.00     0.080 A 
ATOM      6  HN  UNK N   1      19.730  18.428   3.298  1.00  0.00     0.168 HD
HETATM    7  N   UNK N   1      22.846  19.372   3.498  0.00  0.00    -0.332 N 
HETATM    8  C   UNK N   1      20.885  20.756   2.921  0.00  0.00     0.089 C 
HETATM    9  C   UNK N   1      23.422  18.181   3.808  0.00  0.00     0.108 A 
ATOM     10  HN  UNK N   1      23.429  20.203   3.391  1.00  0.00     0.168 HD
HETATM   11  C   UNK N   1      22.630  17.039   3.964  0.00  0.00     0.097 A 
BRANCH   9  12
HETATM   12  N   UNK N   1      24.830  18.059   3.886  0.00  0.00    -0.364 N 
HETATM   13  C   UNK N   1      25.436  16.817   4.298  0.00  0.00     0.154 C 
HETATM   14  C   UNK N   1      26.304  17.096   5.507  0.00  0.00     0.292 C 
HETATM   15  N   UNK N   1      27.264  18.154   5.179  0.00  0.00     0.093 N 
HETATM   16  C   UNK N   1      26.581  19.405   4.819  0.00  0.00     0.292 C 
HETATM   17  C   UNK N   1      25.690  19.182   3.600  0.00  0.00     0.154 C 
BRANCH  15  18
HETATM   18  C   UNK N   1      28.156  18.375   6.316  0.00  0.00     0.298 C 
BRANCH  18  19
HETATM   19  C   UNK N   1      27.757  19.580   7.163  0.00  0.00     0.194 C 
BRANCH  19  20
HETATM   20  O   UNK N   1      27.368  19.145   8.427  0.00  0.00    -0.399 OA
HETATM   21  H   UNK N   1      27.976  19.165   9.184  0.00  0.00     0.209 HD
ENDBRANCH  19  20
ENDBRANCH  18  19
ENDBRANCH  15  18
ENDBRANCH   9  12
ENDBRANCH   1   3
BRANCH   1  22
HETATM   22  C   UNK N   1      20.025  15.410   4.902  0.00  0.00     0.150 A 
HETATM   23  S   UNK N   1      20.950  14.344   5.731  0.00  0.00    -0.047 SA
HETATM   24  C   UNK N   1      20.604  14.872   7.238  0.00  0.00     0.091 A 
HETATM   25  C   UNK N   1      19.663  15.898   7.108  0.00  0.00     0.115 A 
HETATM   26  N   UNK N   1      19.374  16.210   5.793  0.00  0.00    -0.345 N 
ATOM     27  HN  UNK N   1      18.741  16.960   5.519  1.00  0.00     0.167 HD
BRANCH  24  28
HETATM   28  C   UNK N   1      21.349  14.417   8.397  0.00  0.00     0.264 C 
HETATM   29  O   UNK N   1      21.588  15.232   9.281  0.00  0.00    -0.267 OA
HETATM   30  N   UNK N   1      21.770  13.138   8.534  0.00  0.00    -0.320 N 
HETATM   31  H   UNK N   1      21.528  12.445   7.877  0.00  0.00     0.169 HD
BRANCH  30  32
HETATM   32  C   UNK N   1      22.574  12.840   9.659  0.00  0.00     0.062 A 
HETATM   33  C   UNK N   1      23.975  12.748   9.539  0.00  0.00    -0.034 A 
HETATM   34  C   UNK N   1      24.733  12.287  10.617  0.00  0.00     0.009 A 
HETATM   35  C   UNK N   1      24.664  13.092   8.260  0.00  0.00     0.050 C 
HETATM   36  C   UNK N   1      24.106  11.915  11.808  0.00  0.00     0.002 A 
HETATM   37  C   UNK N   1      22.718  12.013  11.932  0.00  0.00     0.026 A 
HETATM   38  C   UNK N   1      21.950  12.475  10.861  0.00  0.00     0.061 A 
HETATM   39 Cl   UNK N   1      20.200  12.527  11.013  0.00  0.00    -0.082 Cl
ENDBRANCH  30  32
ENDBRANCH  24  28
ENDBRANCH   1  22
TORSDOF 8
ENDMDL
MODEL 5
REMARK VINA RESULT:      -7.7      1.958      2.481
REMARK  8 active torsions:
REMARK  status: ('A' for Active; 'I' for Inactive)
REMARK    1  A    between atoms: O_3  and  C_21 
REMARK    2  A    between atoms: N_5  and  C_19 
REMARK    3  A    between atoms: N_6  and  C_20 
REMARK    4  A    between atoms: N_11  and  C_23 
REMARK    5  A    between atoms: N_11  and  C_26 
REMARK    6  A    between atoms: N_14  and  C_28 
REMARK       I    between atoms: N_14  and  C_31 
REMARK    7  A    between atoms: C_19  and  C_21 
REMARK    8  A    between atoms: C_27  and  C_31 
ROOT
HETATM    1  N   UNK N   1      34.767  15.578  11.150  0.00  0.00    -0.323 N 
HETATM    2  H   UNK N   1      34.646  16.390  11.693  0.00  0.00     0.169 HD
ENDROOT
BRANCH   1   3
HETATM    3  C   UNK N   1      34.382  15.526   9.781  0.00  0.00     0.111 A 
HETATM    4  N   UNK N   1      35.232  15.040   8.833  0.00  0.00    -0.332 N 
HETATM    5  C   UNK N   1      34.982  15.183   7.507  0.00  0.00     0.080 A 
ATOM      6  HN  UNK N   1      36.080  14.556   9.129  1.00  0.00     0.168 HD
HETATM    7  N   UNK N   1      33.879  15.863   7.107  0.00  0.00    -0.332 N 
HETATM    8  C   UNK N   1      35.958  14.675   6.508  0.00  0.00     0.089 C 
HETATM    9  C   UNK N   1      33.018  16.386   8.019  0.00  0.00     0.108 A 
ATOM     10  HN  UNK N   1      33.694  15.982   6.110  1.00  0.00     0.168 HD
HETATM   11  C   UNK N   1      33.260  16.219   9.386  0.00  0.00     0.097 A 
BRANCH   9  12
HETATM   12  N   UNK N   1      31.922  17.179   7.605  0.00  0.00    -0.364 N 
HETATM   13  C   UNK N   1      31.259  18.057   8.537  0.00  0.00     0.154 C 
HETATM   14  C   UNK N   1      29.795  17.675   8.583  0.00  0.00     0.292 C 
HETATM   15  N   UNK N   1      29.242  17.711   7.226  0.00  0.00     0.093 N 
HETATM   16  C   UNK N   1      29.928  16.756   6.342  0.00  0.00     0.292 C 
HETATM   17  C   UNK N   1      31.413  17.098   6.257  0.00  0.00     0.154 C 
BRANCH  15  18
HETATM   18  C   UNK N   1      27.810  17.418   7.272  0.00  0.00     0.298 C 
BRANCH  18  19
HETATM   19  C   UNK N   1      27.306  16.704   6.021  0.00  0.00     0.194 C 
BRANCH  19  20
HETATM   20  O   UNK N   1      25.914  16.707   6.020  0.00  0.00    -0.399 OA
HETATM   21  H   UNK N   1      25.405  17.430   5.620  0.00  0.00     0.209 HD
ENDBRANCH  19  20
ENDBRANCH  18  19
ENDBRANCH  15  18
ENDBRANCH   9  12
ENDBRANCH   1   3
BRANCH   1  22
HETATM   22  C   UNK N   1      35.332  14.406  11.689  0.00  0.00     0.150 A 
HETATM   23  S   UNK N   1      36.121  14.465  13.123  0.00  0.00    -0.047 SA
HETATM   24  C   UNK N   1      35.593  13.041  13.728  0.00  0.00     0.091 A 
HETATM   25  C   UNK N   1      34.806  12.442  12.740  0.00  0.00     0.115 A 
HETATM   26  N   UNK N   1      34.643  13.232  11.618  0.00  0.00    -0.345 N 
ATOM     27  HN  UNK N   1      34.065  12.965  10.821  1.00  0.00     0.167 HD
BRANCH  24  28
HETATM   28  C   UNK N   1      35.806  12.675  15.116  0.00  0.00     0.264 C 
HETATM   29  O   UNK N   1      36.959  12.496  15.490  0.00  0.00    -0.267 OA
HETATM   30  N   UNK N   1      34.787  12.540  15.996  0.00  0.00    -0.320 N 
HETATM   31  H   UNK N   1      33.859  12.751  15.743  0.00  0.00     0.169 HD
BRANCH  30  32
HETATM   32  C   UNK N   1      35.112  12.081  17.294  0.00  0.00     0.062 A 
HETATM   33  C   UNK N   1      35.123  10.703  17.589  0.00  0.00    -0.034 A 
HETATM   34  C   UNK N   1      35.277  10.280  18.911  0.00  0.00     0.009 A 
HETATM   35  C   UNK N   1      34.924   9.683  16.517  0.00  0.00     0.050 C 
HETATM   36  C   UNK N   1      35.417  11.217  19.936  0.00  0.00     0.002 A 
HETATM   37  C   UNK N   1      35.415  12.583  19.645  0.00  0.00     0.026 A 
HETATM   38  C   UNK N   1      35.264  13.018  18.327  0.00  0.00     0.061 A 
HETATM   39 Cl   UNK N   1      35.196  14.741  17.989  0.00  0.00    -0.082 Cl
ENDBRANCH  30  32
ENDBRANCH  24  28
ENDBRANCH   1  22
TORSDOF 8
ENDMDL
MODEL 6
REMARK VINA RESULT:      -7.6      3.600     10.616
REMARK  8 active torsions:
REMARK  status: ('A' for Active; 'I' for Inactive)
REMARK    1  A    between atoms: O_3  and  C_21 
REMARK    2  A    between atoms: N_5  and  C_19 
REMARK    3  A    between atoms: N_6  and  C_20 
REMARK    4  A    between atoms: N_11  and  C_23 
REMARK    5  A    between atoms: N_11  and  C_26 
REMARK    6  A    between atoms: N_14  and  C_28 
REMARK       I    between atoms: N_14  and  C_31 
REMARK    7  A    between atoms: C_19  and  C_21 
REMARK    8  A    between atoms: C_27  and  C_31 
ROOT
HETATM    1  N   UNK N   1      33.471  14.956  10.449  0.00  0.00    -0.323 N 
HETATM    2  H   UNK N   1      32.660  14.610  10.888  0.00  0.00     0.169 HD
ENDROOT
BRANCH   1   3
HETATM    3  C   UNK N   1      34.770  14.710  10.975  0.00  0.00     0.111 A 
HETATM    4  N   UNK N   1      35.855  14.639  10.152  0.00  0.00    -0.332 N 
HETATM    5  C   UNK N   1      37.058  14.190  10.592  0.00  0.00     0.080 A 
ATOM      6  HN  UNK N   1      35.760  14.932   9.180  1.00  0.00     0.168 HD
HETATM    7  N   UNK N   1      37.181  13.759  11.872  0.00  0.00    -0.332 N 
HETATM    8  C   UNK N   1      38.203  14.090   9.649  0.00  0.00     0.089 C 
HETATM    9  C   UNK N   1      36.118  13.788  12.718  0.00  0.00     0.108 A 
ATOM     10  HN  UNK N   1      38.081  13.409  12.202  1.00  0.00     0.168 HD
HETATM   11  C   UNK N   1      34.883  14.273  12.275  0.00  0.00     0.097 A 
BRANCH   9  12
HETATM   12  N   UNK N   1      36.219  13.247  14.022  0.00  0.00    -0.364 N 
HETATM   13  C   UNK N   1      35.304  12.223  14.463  0.00  0.00     0.154 C 
HETATM   14  C   UNK N   1      34.603  12.723  15.708  0.00  0.00     0.292 C 
HETATM   15  N   UNK N   1      35.606  13.105  16.707  0.00  0.00     0.093 N 
HETATM   16  C   UNK N   1      36.470  14.187  16.213  0.00  0.00     0.292 C 
HETATM   17  C   UNK N   1      37.206  13.735  14.955  0.00  0.00     0.154 C 
BRANCH  15  18
HETATM   18  C   UNK N   1      34.936  13.516  17.940  0.00  0.00     0.298 C 
BRANCH  18  19
HETATM   19  C   UNK N   1      35.313  12.652  19.141  0.00  0.00     0.194 C 
BRANCH  19  20
HETATM   20  O   UNK N   1      34.937  13.305  20.313  0.00  0.00    -0.399 OA
HETATM   21  H   UNK N   1      34.600  14.214  20.305  0.00  0.00     0.209 HD
ENDBRANCH  19  20
ENDBRANCH  18  19
ENDBRANCH  15  18
ENDBRANCH   9  12
ENDBRANCH   1   3
BRANCH   1  22
HETATM   22  C   UNK N   1      33.404  15.720   9.269  0.00  0.00     0.150 A 
HETATM   23  S   UNK N   1      32.392  15.271   8.062  0.00  0.00    -0.047 SA
HETATM   24  C   UNK N   1      31.896  16.764   7.619  0.00  0.00     0.091 A 
HETATM   25  C   UNK N   1      32.600  17.680   8.405  0.00  0.00     0.115 A 
HETATM   26  N   UNK N   1      33.415  17.080   9.345  0.00  0.00    -0.345 N 
ATOM     27  HN  UNK N   1      33.967  17.602  10.027  1.00  0.00     0.167 HD
BRANCH  24  28
HETATM   28  C   UNK N   1      30.782  16.960   6.710  0.00  0.00     0.264 C 
HETATM   29  O   UNK N   1      31.036  17.269   5.551  0.00  0.00    -0.267 OA
HETATM   30  N   UNK N   1      29.494  16.801   7.094  0.00  0.00    -0.320 N 
HETATM   31  H   UNK N   1      29.263  16.480   7.996  0.00  0.00     0.169 HD
BRANCH  30  32
HETATM   32  C   UNK N   1      28.494  17.119   6.145  0.00  0.00     0.062 A 
HETATM   33  C   UNK N   1      27.803  18.345   6.210  0.00  0.00    -0.034 A 
HETATM   34  C   UNK N   1      26.707  18.566   5.374  0.00  0.00     0.009 A 
HETATM   35  C   UNK N   1      28.192  19.399   7.193  0.00  0.00     0.050 C 
HETATM   36  C   UNK N   1      26.295  17.577   4.479  0.00  0.00     0.002 A 
HETATM   37  C   UNK N   1      26.985  16.364   4.407  0.00  0.00     0.026 A 
HETATM   38  C   UNK N   1      28.083  16.132   5.237  0.00  0.00     0.061 A 
HETATM   39 Cl   UNK N   1      28.894  14.574   5.180  0.00  0.00    -0.082 Cl
ENDBRANCH  30  32
ENDBRANCH  24  28
ENDBRANCH   1  22
TORSDOF 8
ENDMDL
MODEL 7
REMARK VINA RESULT:      -7.5      2.405      3.400
REMARK  8 active torsions:
REMARK  status: ('A' for Active; 'I' for Inactive)
REMARK    1  A    between atoms: O_3  and  C_21 
REMARK    2  A    between atoms: N_5  and  C_19 
REMARK    3  A    between atoms: N_6  and  C_20 
REMARK    4  A    between atoms: N_11  and  C_23 
REMARK    5  A    between atoms: N_11  and  C_26 
REMARK    6  A    between atoms: N_14  and  C_28 
REMARK       I    between atoms: N_14  and  C_31 
REMARK    7  A    between atoms: C_19  and  C_21 
REMARK    8  A    between atoms: C_27  and  C_31 
ROOT
HETATM    1  N   UNK N   1      34.550  16.998   7.901  0.00  0.00    -0.323 N 
HETATM    2  H   UNK N   1      35.333  17.539   7.653  0.00  0.00     0.169 HD
ENDROOT
BRANCH   1   3
HETATM    3  C   UNK N   1      33.585  16.588   6.938  0.00  0.00     0.111 A 
HETATM    4  N   UNK N   1      33.966  16.206   5.685  0.00  0.00    -0.332 N 
HETATM    5  C   UNK N   1      33.064  16.026   4.688  0.00  0.00     0.080 A 
ATOM      6  HN  UNK N   1      34.956  16.052   5.494  1.00  0.00     0.168 HD
HETATM    7  N   UNK N   1      31.752  16.272   4.924  0.00  0.00    -0.332 N 
HETATM    8  C   UNK N   1      33.529  15.651   3.326  0.00  0.00     0.089 C 
HETATM    9  C   UNK N   1      31.332  16.678   6.150  0.00  0.00     0.108 A 
ATOM     10  HN  UNK N   1      31.072  16.149   4.172  1.00  0.00     0.168 HD
HETATM   11  C   UNK N   1      32.256  16.841   7.188  0.00  0.00     0.097 A 
BRANCH   9  12
HETATM   12  N   UNK N   1      29.979  17.029   6.371  0.00  0.00    -0.364 N 
HETATM   13  C   UNK N   1      29.084  17.232   5.258  0.00  0.00     0.154 C 
HETATM   14  C   UNK N   1      28.516  18.631   5.360  0.00  0.00     0.292 C 
HETATM   15  N   UNK N   1      27.890  18.804   6.675  0.00  0.00     0.093 N 
HETATM   16  C   UNK N   1      28.868  18.636   7.760  0.00  0.00     0.292 C 
HETATM   17  C   UNK N   1      29.473  17.236   7.706  0.00  0.00     0.154 C 
BRANCH  15  18
HETATM   18  C   UNK N   1      27.272  20.127   6.753  0.00  0.00     0.298 C 
BRANCH  18  19
HETATM   19  C   UNK N   1      26.349  20.425   5.574  0.00  0.00     0.194 C 
BRANCH  19  20
HETATM   20  O   UNK N   1      25.247  19.576   5.626  0.00  0.00    -0.399 OA
HETATM   21  H   UNK N   1      25.340  18.613   5.549  0.00  0.00     0.209 HD
ENDBRANCH  19  20
ENDBRANCH  18  19
ENDBRANCH  15  18
ENDBRANCH   9  12
ENDBRANCH   1   3
BRANCH   1  22
HETATM   22  C   UNK N   1      34.325  16.588   9.229  0.00  0.00     0.150 A 
HETATM   23  S   UNK N   1      34.249  14.992   9.589  0.00  0.00    -0.047 SA
HETATM   24  C   UNK N   1      35.041  15.047  11.018  0.00  0.00     0.091 A 
HETATM   25  C   UNK N   1      35.331  16.390  11.275  0.00  0.00     0.115 A 
HETATM   26  N   UNK N   1      34.953  17.236  10.250  0.00  0.00    -0.345 N 
ATOM     27  HN  UNK N   1      35.128  18.241  10.256  1.00  0.00     0.167 HD
BRANCH  24  28
HETATM   28  C   UNK N   1      35.476  13.841  11.697  0.00  0.00     0.264 C 
HETATM   29  O   UNK N   1      34.712  12.883  11.708  0.00  0.00    -0.267 OA
HETATM   30  N   UNK N   1      36.686  13.741  12.295  0.00  0.00    -0.320 N 
HETATM   31  H   UNK N   1      37.350  14.466  12.236  0.00  0.00     0.169 HD
BRANCH  30  32
HETATM   32  C   UNK N   1      36.955  12.550  13.010  0.00  0.00     0.062 A 
HETATM   33  C   UNK N   1      36.802  12.501  14.410  0.00  0.00    -0.034 A 
HETATM   34  C   UNK N   1      37.234  11.375  15.114  0.00  0.00     0.009 A 
HETATM   35  C   UNK N   1      36.225  13.653  15.164  0.00  0.00     0.050 C 
HETATM   36  C   UNK N   1      37.820  10.304  14.435  0.00  0.00     0.002 A 
HETATM   37  C   UNK N   1      37.965  10.348  13.046  0.00  0.00     0.026 A 
HETATM   38  C   UNK N   1      37.534  11.467  12.332  0.00  0.00     0.061 A 
HETATM   39 Cl   UNK N   1      37.788  11.532  10.594  0.00  0.00    -0.082 Cl
ENDBRANCH  30  32
ENDBRANCH  24  28
ENDBRANCH   1  22
TORSDOF 8
ENDMDL
MODEL 8
REMARK VINA RESULT:      -7.5      3.039      4.530
REMARK  8 active torsions:
REMARK  status: ('A' for Active; 'I' for Inactive)
REMARK    1  A    between atoms: O_3  and  C_21 
REMARK    2  A    between atoms: N_5  and  C_19 
REMARK    3  A    between atoms: N_6  and  C_20 
REMARK    4  A    between atoms: N_11  and  C_23 
REMARK    5  A    between atoms: N_11  and  C_26 
REMARK    6  A    between atoms: N_14  and  C_28 
REMARK       I    between atoms: N_14  and  C_31 
REMARK    7  A    between atoms: C_19  and  C_21 
REMARK    8  A    between atoms: C_27  and  C_31 
ROOT
HETATM    1  N   UNK N   1      32.355  16.393   8.794  0.00  0.00    -0.323 N 
HETATM    2  H   UNK N   1      32.010  16.829   9.607  0.00  0.00     0.169 HD
ENDROOT
BRANCH   1   3
HETATM    3  C   UNK N   1      31.776  16.626   7.515  0.00  0.00     0.111 A 
HETATM    4  N   UNK N   1      32.560  16.809   6.415  0.00  0.00    -0.332 N 
HETATM    5  C   UNK N   1      32.049  17.249   5.238  0.00  0.00     0.080 A 
ATOM      6  HN  UNK N   1      33.558  16.609   6.479  1.00  0.00     0.168 HD
HETATM    7  N   UNK N   1      30.731  17.557   5.157  0.00  0.00    -0.332 N 
HETATM    8  C   UNK N   1      32.948  17.475   4.076  0.00  0.00     0.089 C 
HETATM    9  C   UNK N   1      29.918  17.414   6.237  0.00  0.00     0.108 A 
ATOM     10  HN  UNK N   1      30.345  17.900   4.276  1.00  0.00     0.168 HD
HETATM   11  C   UNK N   1      30.437  16.937   7.445  0.00  0.00     0.097 A 
BRANCH   9  12
HETATM   12  N   UNK N   1      28.566  17.828   6.183  0.00  0.00    -0.364 N 
HETATM   13  C   UNK N   1      27.658  17.241   5.229  0.00  0.00     0.154 C 
HETATM   14  C   UNK N   1      27.084  18.355   4.379  0.00  0.00     0.292 C 
HETATM   15  N   UNK N   1      26.473  19.362   5.251  0.00  0.00     0.093 N 
HETATM   16  C   UNK N   1      27.463  19.956   6.161  0.00  0.00     0.292 C 
HETATM   17  C   UNK N   1      28.074  18.874   7.047  0.00  0.00     0.154 C 
BRANCH  15  18
HETATM   18  C   UNK N   1      25.849  20.403   4.435  0.00  0.00     0.298 C 
BRANCH  18  19
HETATM   19  C   UNK N   1      25.178  19.854   3.178  0.00  0.00     0.194 C 
BRANCH  19  20
HETATM   20  O   UNK N   1      25.095  20.864   2.223  0.00  0.00    -0.399 OA
HETATM   21  H   UNK N   1      25.376  21.773   2.415  0.00  0.00     0.209 HD
ENDBRANCH  19  20
ENDBRANCH  18  19
ENDBRANCH  15  18
ENDBRANCH   9  12
ENDBRANCH   1   3
BRANCH   1  22
HETATM   22  C   UNK N   1      33.449  15.508   8.837  0.00  0.00     0.150 A 
HETATM   23  S   UNK N   1      34.357  15.398  10.196  0.00  0.00    -0.047 SA
HETATM   24  C   UNK N   1      34.601  13.782  10.171  0.00  0.00     0.091 A 
HETATM   25  C   UNK N   1      34.002  13.294   9.006  0.00  0.00     0.115 A 
HETATM   26  N   UNK N   1      33.333  14.266   8.288  0.00  0.00    -0.345 N 
ATOM     27  HN  UNK N   1      32.807  14.074   7.436  1.00  0.00     0.167 HD
BRANCH  24  28
HETATM   28  C   UNK N   1      35.174  13.079  11.304  0.00  0.00     0.264 C 
HETATM   29  O   UNK N   1      36.258  12.528  11.148  0.00  0.00    -0.267 OA
HETATM   30  N   UNK N   1      34.562  13.025  12.510  0.00  0.00    -0.320 N 
HETATM   31  H   UNK N   1      33.730  13.521  12.686  0.00  0.00     0.169 HD
BRANCH  30  32
HETATM   32  C   UNK N   1      35.170  12.225  13.506  0.00  0.00     0.062 A 
HETATM   33  C   UNK N   1      34.761  10.891  13.706  0.00  0.00    -0.034 A 
HETATM   34  C   UNK N   1      35.250  10.176  14.802  0.00  0.00     0.009 A 
HETATM   35  C   UNK N   1      33.776  10.240  12.793  0.00  0.00     0.050 C 
HETATM   36  C   UNK N   1      36.136  10.779  15.697  0.00  0.00     0.002 A 
HETATM   37  C   UNK N   1      36.548  12.099  15.495  0.00  0.00     0.026 A 
HETATM   38  C   UNK N   1      36.068  12.823  14.402  0.00  0.00     0.061 A 
HETATM   39 Cl   UNK N   1      36.545  14.503  14.204  0.00  0.00    -0.082 Cl
ENDBRANCH  30  32
ENDBRANCH  24  28
ENDBRANCH   1  22
TORSDOF 8
ENDMDL
MODEL 9
REMARK VINA RESULT:      -7.4      1.818      2.236
REMARK  8 active torsions:
REMARK  status: ('A' for Active; 'I' for Inactive)
REMARK    1  A    between atoms: O_3  and  C_21 
REMARK    2  A    between atoms: N_5  and  C_19 
REMARK    3  A    between atoms: N_6  and  C_20 
REMARK    4  A    between atoms: N_11  and  C_23 
REMARK    5  A    between atoms: N_11  and  C_26 
REMARK    6  A    between atoms: N_14  and  C_28 
REMARK       I    between atoms: N_14  and  C_31 
REMARK    7  A    between atoms: C_19  and  C_21 
REMARK    8  A    between atoms: C_27  and  C_31 
ROOT
HETATM    1  N   UNK N   1      35.546  12.537   9.927  0.00  0.00    -0.323 N 
HETATM    2  H   UNK N   1      35.785  11.582   9.952  0.00  0.00     0.169 HD
ENDROOT
BRANCH   1   3
HETATM    3  C   UNK N   1      35.458  13.257   8.703  0.00  0.00     0.111 A 
HETATM    4  N   UNK N   1      36.541  13.382   7.885  0.00  0.00    -0.332 N 
HETATM    5  C   UNK N   1      36.549  14.240   6.834  0.00  0.00     0.080 A 
ATOM      6  HN  UNK N   1      37.369  12.814   8.069  1.00  0.00     0.168 HD
HETATM    7  N   UNK N   1      35.469  15.029   6.610  0.00  0.00    -0.332 N 
HETATM    8  C   UNK N   1      37.768  14.374   5.995  0.00  0.00     0.089 C 
HETATM    9  C   UNK N   1      34.378  14.956   7.416  0.00  0.00     0.108 A 
ATOM     10  HN  UNK N   1      35.477  15.685   5.828  1.00  0.00     0.168 HD
HETATM   11  C   UNK N   1      34.357  14.055   8.486  0.00  0.00     0.097 A 
BRANCH   9  12
HETATM   12  N   UNK N   1      33.292  15.847   7.244  0.00  0.00    -0.364 N 
HETATM   13  C   UNK N   1      33.525  17.253   7.024  0.00  0.00     0.154 C 
HETATM   14  C   UNK N   1      32.805  18.024   8.109  0.00  0.00     0.292 C 
HETATM   15  N   UNK N   1      31.389  17.643   8.115  0.00  0.00     0.093 N 
HETATM   16  C   UNK N   1      31.221  16.210   8.396  0.00  0.00     0.292 C 
HETATM   17  C   UNK N   1      31.929  15.381   7.327  0.00  0.00     0.154 C 
BRANCH  15  18
HETATM   18  C   UNK N   1      30.671  18.440   9.108  0.00  0.00     0.298 C 
BRANCH  18  19
HETATM   19  C   UNK N   1      29.428  17.741   9.650  0.00  0.00     0.194 C 
BRANCH  19  20
HETATM   20  O   UNK N   1      28.314  18.547   9.429  0.00  0.00    -0.399 OA
HETATM   21  H   UNK N   1      28.400  19.485   9.201  0.00  0.00     0.209 HD
ENDBRANCH  19  20
ENDBRANCH  18  19
ENDBRANCH  15  18
ENDBRANCH   9  12
ENDBRANCH   1   3
BRANCH   1  22
HETATM   22  C   UNK N   1      35.273  13.261  11.104  0.00  0.00     0.150 A 
HETATM   23  S   UNK N   1      34.848  12.466  12.471  0.00  0.00    -0.047 SA
HETATM   24  C   UNK N   1      35.674  13.393  13.534  0.00  0.00     0.091 A 
HETATM   25  C   UNK N   1      36.268  14.425  12.804  0.00  0.00     0.115 A 
HETATM   26  N   UNK N   1      36.062  14.319  11.442  0.00  0.00    -0.345 N 
ATOM     27  HN  UNK N   1      36.460  14.965  10.760  1.00  0.00     0.167 HD
BRANCH  24  28
HETATM   28  C   UNK N   1      35.844  12.998  14.920  0.00  0.00     0.264 C 
HETATM   29  O   UNK N   1      36.987  12.833  15.332  0.00  0.00    -0.267 OA
HETATM   30  N   UNK N   1      34.797  12.821  15.759  0.00  0.00    -0.320 N 
HETATM   31  H   UNK N   1      33.874  13.020  15.478  0.00  0.00     0.169 HD
BRANCH  30  32
HETATM   32  C   UNK N   1      35.085  12.338  17.057  0.00  0.00     0.062 A 
HETATM   33  C   UNK N   1      35.069  10.955  17.330  0.00  0.00    -0.034 A 
HETATM   34  C   UNK N   1      35.186  10.510  18.649  0.00  0.00     0.009 A 
HETATM   35  C   UNK N   1      34.883   9.955  16.239  0.00  0.00     0.050 C 
HETATM   36  C   UNK N   1      35.315  11.429  19.692  0.00  0.00     0.002 A 
HETATM   37  C   UNK N   1      35.339  12.800  19.422  0.00  0.00     0.026 A 
HETATM   38  C   UNK N   1      35.225  13.257  18.108  0.00  0.00     0.061 A 
HETATM   39 Cl   UNK N   1      35.189  14.986  17.795  0.00  0.00    -0.082 Cl
ENDBRANCH  30  32
ENDBRANCH  24  28
ENDBRANCH   1  22
TORSDOF 8
ENDMDL
