REMARK  10 active torsions:
REMARK  status: ('A' for Active; 'I' for Inactive)
REMARK    1  A    between atoms: C_6  and  C_7 
REMARK    2  A    between atoms: C_7  and  C_8 
REMARK    3  A    between atoms: C_8  and  N_9 
REMARK       I    between atoms: N_9  and  C_10 
REMARK    4  A    between atoms: C_10  and  C_11 
REMARK    5  A    between atoms: C_11  and  C_12 
REMARK    6  A    between atoms: C_11  and  N_18 
REMARK    7  A    between atoms: C_12  and  C_13 
REMARK    8  A    between atoms: C_13  and  C_14 
REMARK    9  A    between atoms: C_14  and  C_15 
REMARK   10  A    between atoms: C_15  and  N_19 
ROOT
HETATM    1  N   UNK N   1       1.373   0.741   0.062  0.00  0.00    -0.355 N 
HETATM    2  C   UNK N   1       2.667   0.314  -0.024  0.00  0.00     0.240 C 
HETATM    3  O   UNK N   1       2.924  -0.848  -0.288  0.00  0.00    -0.271 OA
HETATM    4  H   UNK N   1       1.226   1.681   0.315  0.00  0.00     0.162 HD
ENDROOT
BRANCH   2   5
HETATM    5  C   UNK N   1       3.797   1.265   0.270  0.00  0.00     0.167 C 
BRANCH   5   6
HETATM    6  C   UNK N   1       4.785   1.295  -0.885  0.00  0.00     0.034 C 
BRANCH   6   7
HETATM    7  C   UNK N   1       6.184   1.611  -0.386  0.00  0.00     0.004 C 
BRANCH   7   8
HETATM    8  C   UNK N   1       6.851   0.332   0.086  0.00  0.00     0.019 C 
BRANCH   8   9
HETATM    9  C   UNK N   1       8.356   0.500   0.059  0.00  0.00     0.111 C 
BRANCH   9  10
HETATM   10  N   UNK N   1       8.988  -0.798   0.207  0.00  0.00    -0.430 N 
HETATM   11  H   UNK N   1       8.420  -1.639   0.310  0.00  0.00     0.149 HD
HETATM   12  H   UNK N   1      10.006  -0.870   0.207  0.00  0.00     0.149 HD
ENDBRANCH   9  10
ENDBRANCH   8   9
ENDBRANCH   7   8
ENDBRANCH   6   7
ENDBRANCH   5   6
BRANCH   5  13
HETATM   13  N   UNK N   1       3.311   2.612   0.527  0.00  0.00    -0.418 N 
HETATM   14  H   UNK N   1       3.959   3.379   0.707  0.00  0.00     0.150 HD
HETATM   15  H   UNK N   1       2.307   2.792   0.527  0.00  0.00     0.150 HD
ENDBRANCH   5  13
ENDBRANCH   2   5
BRANCH   1  16
HETATM   16  C   UNK N   1       0.194  -0.071  -0.187  0.00  0.00     0.084 C 
HETATM   17  C   UNK N   1       0.345  -1.470   0.404  0.00  0.00     0.032 C 
BRANCH  16  18
HETATM   18  C   UNK N   1      -0.974   0.618   0.519  0.00  0.00     0.063 C 
BRANCH  18  19
HETATM   19  C   UNK N   1      -2.347   0.117   0.178  0.00  0.00    -0.056 A 
HETATM   20  C   UNK N   1      -2.662  -1.248   0.233  0.00  0.00     0.007 A 
HETATM   21  C   UNK N   1      -3.967  -1.681  -0.019  0.00  0.00     0.001 A 
HETATM   22  C   UNK N   1      -4.969  -0.749  -0.304  0.00  0.00     0.000 A 
HETATM   23  C   UNK N   1      -4.663   0.614  -0.347  0.00  0.00     0.001 A 
HETATM   24  C   UNK N   1      -3.354   1.046  -0.107  0.00  0.00     0.007 A 
ENDBRANCH  18  19
ENDBRANCH  16  18
ENDBRANCH   1  16
TORSDOF 10
