MODEL 1
REMARK VINA RESULT:      -6.0      0.000      0.000
REMARK  10 active torsions:
REMARK  status: ('A' for Active; 'I' for Inactive)
REMARK    1  A    between atoms: C_6  and  C_7 
REMARK    2  A    between atoms: C_7  and  C_8 
REMARK    3  A    between atoms: C_8  and  N_9 
REMARK       I    between atoms: N_9  and  C_10 
REMARK    4  A    between atoms: C_10  and  C_11 
REMARK    5  A    between atoms: C_11  and  C_12 
REMARK    6  A    between atoms: C_11  and  N_18 
REMARK    7  A    between atoms: C_12  and  C_13 
REMARK    8  A    between atoms: C_13  and  C_14 
REMARK    9  A    between atoms: C_14  and  C_15 
REMARK   10  A    between atoms: C_15  and  N_19 
ROOT
HETATM    1  N   UNK N   1      36.791  13.901  13.870  0.00  0.00    -0.355 N 
HETATM    2  C   UNK N   1      36.976  12.853  13.014  0.00  0.00     0.240 C 
HETATM    3  O   UNK N   1      37.281  11.751  13.435  0.00  0.00    -0.271 OA
HETATM    4  H   UNK N   1      36.583  14.776  13.470  0.00  0.00     0.162 HD
ENDROOT
BRANCH   2   5
HETATM    5  C   UNK N   1      36.868  13.065  11.527  0.00  0.00     0.167 C 
BRANCH   5   6
HETATM    6  C   UNK N   1      35.781  14.079  11.209  0.00  0.00     0.034 C 
BRANCH   6   7
HETATM    7  C   UNK N   1      36.384  15.349  10.634  0.00  0.00     0.004 C 
BRANCH   7   8
HETATM    8  C   UNK N   1      35.415  16.500  10.832  0.00  0.00     0.019 C 
BRANCH   8   9
HETATM    9  C   UNK N   1      34.838  16.919   9.496  0.00  0.00     0.111 C 
BRANCH   9  10
HETATM   10  N   UNK N   1      33.398  16.735   9.514  0.00  0.00    -0.430 N 
HETATM   11  H   UNK N   1      32.992  15.888   9.913  0.00  0.00     0.149 HD
HETATM   12  H   UNK N   1      32.789  17.456   9.128  0.00  0.00     0.149 HD
ENDBRANCH   9  10
ENDBRANCH   8   9
ENDBRANCH   7   8
ENDBRANCH   6   7
ENDBRANCH   5   6
BRANCH   5  13
HETATM   13  N   UNK N   1      38.129  13.512  10.956  0.00  0.00    -0.418 N 
HETATM   14  H   UNK N   1      39.018  13.129  11.279  0.00  0.00     0.150 HD
HETATM   15  H   UNK N   1      38.125  14.218  10.220  0.00  0.00     0.150 HD
ENDBRANCH   5  13
ENDBRANCH   2   5
BRANCH   1  16
HETATM   16  C   UNK N   1      36.874  13.836  15.319  0.00  0.00     0.084 C 
HETATM   17  C   UNK N   1      37.278  15.182  15.915  0.00  0.00     0.032 C 
BRANCH  16  18
HETATM   18  C   UNK N   1      35.472  13.496  15.827  0.00  0.00     0.063 C 
BRANCH  18  19
HETATM   19  C   UNK N   1      35.400  12.726  17.113  0.00  0.00    -0.056 A 
HETATM   20  C   UNK N   1      35.658  11.348  17.157  0.00  0.00     0.007 A 
HETATM   21  C   UNK N   1      35.655  10.669  18.378  0.00  0.00     0.001 A 
HETATM   22  C   UNK N   1      35.416  11.367  19.565  0.00  0.00     0.000 A 
HETATM   23  C   UNK N   1      35.171  12.743  19.528  0.00  0.00     0.001 A 
HETATM   24  C   UNK N   1      35.162  13.420  18.304  0.00  0.00     0.007 A 
ENDBRANCH  18  19
ENDBRANCH  16  18
ENDBRANCH   1  16
TORSDOF 10
ENDMDL
MODEL 2
REMARK VINA RESULT:      -5.7      1.845      2.494
REMARK  10 active torsions:
REMARK  status: ('A' for Active; 'I' for Inactive)
REMARK    1  A    between atoms: C_6  and  C_7 
REMARK    2  A    between atoms: C_7  and  C_8 
REMARK    3  A    between atoms: C_8  and  N_9 
REMARK       I    between atoms: N_9  and  C_10 
REMARK    4  A    between atoms: C_10  and  C_11 
REMARK    5  A    between atoms: C_11  and  C_12 
REMARK    6  A    between atoms: C_11  and  N_18 
REMARK    7  A    between atoms: C_12  and  C_13 
REMARK    8  A    between atoms: C_13  and  C_14 
REMARK    9  A    between atoms: C_14  and  C_15 
REMARK   10  A    between atoms: C_15  and  N_19 
ROOT
HETATM    1  N   UNK N   1      35.055  11.885  13.066  0.00  0.00    -0.355 N 
HETATM    2  C   UNK N   1      35.208  12.980  12.264  0.00  0.00     0.240 C 
HETATM    3  O   UNK N   1      34.894  14.090  12.658  0.00  0.00    -0.271 OA
HETATM    4  H   UNK N   1      35.290  11.010  12.681  0.00  0.00     0.162 HD
ENDROOT
BRANCH   2   5
HETATM    5  C   UNK N   1      35.711  12.819  10.854  0.00  0.00     0.167 C 
BRANCH   5   6
HETATM    6  C   UNK N   1      36.705  13.917  10.512  0.00  0.00     0.034 C 
BRANCH   6   7
HETATM    7  C   UNK N   1      36.326  14.596   9.207  0.00  0.00     0.004 C 
BRANCH   7   8
HETATM    8  C   UNK N   1      34.918  15.151   9.318  0.00  0.00     0.019 C 
BRANCH   8   9
HETATM    9  C   UNK N   1      34.976  16.639   9.595  0.00  0.00     0.111 C 
BRANCH   9  10
HETATM   10  N   UNK N   1      35.034  16.860  11.028  0.00  0.00    -0.430 N 
HETATM   11  H   UNK N   1      35.930  16.851  11.516  0.00  0.00     0.149 HD
HETATM   12  H   UNK N   1      34.173  17.028  11.551  0.00  0.00     0.149 HD
ENDBRANCH   9  10
ENDBRANCH   8   9
ENDBRANCH   7   8
ENDBRANCH   6   7
ENDBRANCH   5   6
BRANCH   5  13
HETATM   13  N   UNK N   1      36.336  11.520  10.653  0.00  0.00    -0.418 N 
HETATM   14  H   UNK N   1      36.600  10.936  11.446  0.00  0.00     0.150 HD
HETATM   15  H   UNK N   1      36.512  11.190   9.704  0.00  0.00     0.150 HD
ENDBRANCH   5  13
ENDBRANCH   2   5
BRANCH   1  16
HETATM   16  C   UNK N   1      34.574  11.899  14.437  0.00  0.00     0.084 C 
HETATM   17  C   UNK N   1      33.578  10.771  14.690  0.00  0.00     0.032 C 
BRANCH  16  18
HETATM   18  C   UNK N   1      35.790  11.667  15.334  0.00  0.00     0.063 C 
BRANCH  18  19
HETATM   19  C   UNK N   1      35.632  12.039  16.779  0.00  0.00    -0.056 A 
HETATM   20  C   UNK N   1      35.320  13.349  17.168  0.00  0.00     0.007 A 
HETATM   21  C   UNK N   1      35.107  13.653  18.515  0.00  0.00     0.001 A 
HETATM   22  C   UNK N   1      35.180  12.643  19.479  0.00  0.00     0.000 A 
HETATM   23  C   UNK N   1      35.478  11.333  19.095  0.00  0.00     0.001 A 
HETATM   24  C   UNK N   1      35.704  11.031  17.748  0.00  0.00     0.007 A 
ENDBRANCH  18  19
ENDBRANCH  16  18
ENDBRANCH   1  16
TORSDOF 10
ENDMDL
MODEL 3
REMARK VINA RESULT:      -5.5     14.525     16.827
REMARK  10 active torsions:
REMARK  status: ('A' for Active; 'I' for Inactive)
REMARK    1  A    between atoms: C_6  and  C_7 
REMARK    2  A    between atoms: C_7  and  C_8 
REMARK    3  A    between atoms: C_8  and  N_9 
REMARK       I    between atoms: N_9  and  C_10 
REMARK    4  A    between atoms: C_10  and  C_11 
REMARK    5  A    between atoms: C_11  and  C_12 
REMARK    6  A    between atoms: C_11  and  N_18 
REMARK    7  A    between atoms: C_12  and  C_13 
REMARK    8  A    between atoms: C_13  and  C_14 
REMARK    9  A    between atoms: C_14  and  C_15 
REMARK   10  A    between atoms: C_15  and  N_19 
ROOT
HETATM    1  N   UNK N   1      21.291  16.322   7.114  0.00  0.00    -0.355 N 
HETATM    2  C   UNK N   1      21.415  17.612   6.685  0.00  0.00     0.240 C 
HETATM    3  O   UNK N   1      21.010  18.537   7.368  0.00  0.00    -0.271 OA
HETATM    4  H   UNK N   1      21.602  15.614   6.504  0.00  0.00     0.162 HD
ENDROOT
BRANCH   2   5
HETATM    5  C   UNK N   1      21.999  17.904   5.329  0.00  0.00     0.167 C 
BRANCH   5   6
HETATM    6  C   UNK N   1      21.251  19.045   4.659  0.00  0.00     0.034 C 
BRANCH   6   7
HETATM    7  C   UNK N   1      21.268  18.884   3.149  0.00  0.00     0.004 C 
BRANCH   7   8
HETATM    8  C   UNK N   1      20.473  20.010   2.513  0.00  0.00     0.019 C 
BRANCH   8   9
HETATM    9  C   UNK N   1      20.880  20.169   1.063  0.00  0.00     0.111 C 
BRANCH   9  10
HETATM   10  N   UNK N   1      20.275  21.372   0.522  0.00  0.00    -0.430 N 
HETATM   11  H   UNK N   1      20.738  22.275   0.629  0.00  0.00     0.149 HD
HETATM   12  H   UNK N   1      19.381  21.315   0.032  0.00  0.00     0.149 HD
ENDBRANCH   9  10
ENDBRANCH   8   9
ENDBRANCH   7   8
ENDBRANCH   6   7
ENDBRANCH   5   6
BRANCH   5  13
HETATM   13  N   UNK N   1      23.413  18.235   5.414  0.00  0.00    -0.418 N 
HETATM   14  H   UNK N   1      24.100  17.538   5.703  0.00  0.00     0.150 HD
HETATM   15  H   UNK N   1      23.723  19.179   5.180  0.00  0.00     0.150 HD
ENDBRANCH   5  13
ENDBRANCH   2   5
BRANCH   1  16
HETATM   16  C   UNK N   1      20.740  15.902   8.391  0.00  0.00     0.084 C 
HETATM   17  C   UNK N   1      19.381  16.545   8.651  0.00  0.00     0.032 C 
BRANCH  16  18
HETATM   18  C   UNK N   1      20.540  14.388   8.310  0.00  0.00     0.063 C 
BRANCH  18  19
HETATM   19  C   UNK N   1      21.285  13.563   9.318  0.00  0.00    -0.056 A 
HETATM   20  C   UNK N   1      22.678  13.412   9.254  0.00  0.00     0.007 A 
HETATM   21  C   UNK N   1      23.356  12.698  10.246  0.00  0.00     0.001 A 
HETATM   22  C   UNK N   1      22.648  12.152  11.320  0.00  0.00     0.000 A 
HETATM   23  C   UNK N   1      21.262  12.312  11.396  0.00  0.00     0.001 A 
HETATM   24  C   UNK N   1      20.582  13.015  10.396  0.00  0.00     0.007 A 
ENDBRANCH  18  19
ENDBRANCH  16  18
ENDBRANCH   1  16
TORSDOF 10
ENDMDL
MODEL 4
REMARK VINA RESULT:      -5.5      3.757      8.855
REMARK  10 active torsions:
REMARK  status: ('A' for Active; 'I' for Inactive)
REMARK    1  A    between atoms: C_6  and  C_7 
REMARK    2  A    between atoms: C_7  and  C_8 
REMARK    3  A    between atoms: C_8  and  N_9 
REMARK       I    between atoms: N_9  and  C_10 
REMARK    4  A    between atoms: C_10  and  C_11 
REMARK    5  A    between atoms: C_11  and  C_12 
REMARK    6  A    between atoms: C_11  and  N_18 
REMARK    7  A    between atoms: C_12  and  C_13 
REMARK    8  A    between atoms: C_13  and  C_14 
REMARK    9  A    between atoms: C_14  and  C_15 
REMARK   10  A    between atoms: C_15  and  N_19 
ROOT
HETATM    1  N   UNK N   1      33.856  16.245   9.091  0.00  0.00    -0.355 N 
HETATM    2  C   UNK N   1      34.687  16.067  10.160  0.00  0.00     0.240 C 
HETATM    3  O   UNK N   1      35.106  17.023  10.790  0.00  0.00    -0.271 OA
HETATM    4  H   UNK N   1      33.580  15.440   8.598  0.00  0.00     0.162 HD
ENDROOT
BRANCH   2   5
HETATM    5  C   UNK N   1      35.148  14.684  10.535  0.00  0.00     0.167 C 
BRANCH   5   6
HETATM    6  C   UNK N   1      35.998  14.726  11.795  0.00  0.00     0.034 C 
BRANCH   6   7
HETATM    7  C   UNK N   1      36.819  13.456  11.932  0.00  0.00     0.004 C 
BRANCH   7   8
HETATM    8  C   UNK N   1      36.699  12.929  13.350  0.00  0.00     0.019 C 
BRANCH   8   9
HETATM    9  C   UNK N   1      36.210  14.032  14.266  0.00  0.00     0.111 C 
BRANCH   9  10
HETATM   10  N   UNK N   1      37.237  14.334  15.246  0.00  0.00    -0.430 N 
HETATM   11  H   UNK N   1      37.686  15.250  15.256  0.00  0.00     0.149 HD
HETATM   12  H   UNK N   1      37.512  13.626  15.928  0.00  0.00     0.149 HD
ENDBRANCH   9  10
ENDBRANCH   8   9
ENDBRANCH   7   8
ENDBRANCH   6   7
ENDBRANCH   5   6
BRANCH   5  13
HETATM   13  N   UNK N   1      34.026  13.781  10.738  0.00  0.00    -0.418 N 
HETATM   14  H   UNK N   1      33.066  14.095  10.594  0.00  0.00     0.150 HD
HETATM   15  H   UNK N   1      34.201  12.819  11.028  0.00  0.00     0.150 HD
ENDBRANCH   5  13
ENDBRANCH   2   5
BRANCH   1  16
HETATM   16  C   UNK N   1      33.345  17.521   8.619  0.00  0.00     0.084 C 
HETATM   17  C   UNK N   1      34.430  18.331   7.915  0.00  0.00     0.032 C 
BRANCH  16  18
HETATM   18  C   UNK N   1      32.251  17.207   7.597  0.00  0.00     0.063 C 
BRANCH  18  19
HETATM   19  C   UNK N   1      30.847  17.558   7.996  0.00  0.00    -0.056 A 
HETATM   20  C   UNK N   1      29.741  17.050   7.300  0.00  0.00     0.007 A 
HETATM   21  C   UNK N   1      28.444  17.334   7.736  0.00  0.00     0.001 A 
HETATM   22  C   UNK N   1      28.246  18.107   8.884  0.00  0.00     0.000 A 
HETATM   23  C   UNK N   1      29.346  18.604   9.588  0.00  0.00     0.001 A 
HETATM   24  C   UNK N   1      30.644  18.331   9.145  0.00  0.00     0.007 A 
ENDBRANCH  18  19
ENDBRANCH  16  18
ENDBRANCH   1  16
TORSDOF 10
ENDMDL
MODEL 5
REMARK VINA RESULT:      -5.4      9.546     12.912
REMARK  10 active torsions:
REMARK  status: ('A' for Active; 'I' for Inactive)
REMARK    1  A    between atoms: C_6  and  C_7 
REMARK    2  A    between atoms: C_7  and  C_8 
REMARK    3  A    between atoms: C_8  and  N_9 
REMARK       I    between atoms: N_9  and  C_10 
REMARK    4  A    between atoms: C_10  and  C_11 
REMARK    5  A    between atoms: C_11  and  C_12 
REMARK    6  A    between atoms: C_11  and  N_18 
REMARK    7  A    between atoms: C_12  and  C_13 
REMARK    8  A    between atoms: C_13  and  C_14 
REMARK    9  A    between atoms: C_14  and  C_15 
REMARK   10  A    between atoms: C_15  and  N_19 
ROOT
HETATM    1  N   UNK N   1      29.174  18.337   4.526  0.00  0.00    -0.355 N 
HETATM    2  C   UNK N   1      28.249  18.697   5.464  0.00  0.00     0.240 C 
HETATM    3  O   UNK N   1      27.908  17.914   6.335  0.00  0.00    -0.271 OA
HETATM    4  H   UNK N   1      29.384  18.997   3.826  0.00  0.00     0.162 HD
ENDROOT
BRANCH   2   5
HETATM    5  C   UNK N   1      27.591  20.049   5.396  0.00  0.00     0.167 C 
BRANCH   5   6
HETATM    6  C   UNK N   1      26.929  20.254   4.043  0.00  0.00     0.034 C 
BRANCH   6   7
HETATM    7  C   UNK N   1      25.429  20.042   4.142  0.00  0.00     0.004 C 
BRANCH   7   8
HETATM    8  C   UNK N   1      25.084  18.647   3.653  0.00  0.00     0.019 C 
BRANCH   8   9
HETATM    9  C   UNK N   1      24.207  17.950   4.672  0.00  0.00     0.111 C 
BRANCH   9  10
HETATM   10  N   UNK N   1      25.031  17.116   5.527  0.00  0.00    -0.430 N 
HETATM   11  H   UNK N   1      25.989  17.389   5.745  0.00  0.00     0.149 HD
HETATM   12  H   UNK N   1      24.650  16.251   5.913  0.00  0.00     0.149 HD
ENDBRANCH   9  10
ENDBRANCH   8   9
ENDBRANCH   7   8
ENDBRANCH   6   7
ENDBRANCH   5   6
BRANCH   5  13
HETATM   13  N   UNK N   1      26.602  20.218   6.450  0.00  0.00    -0.418 N 
HETATM   14  H   UNK N   1      26.149  21.118   6.606  0.00  0.00     0.150 HD
HETATM   15  H   UNK N   1      26.358  19.423   7.041  0.00  0.00     0.150 HD
ENDBRANCH   5  13
ENDBRANCH   2   5
BRANCH   1  16
HETATM   16  C   UNK N   1      29.877  17.066   4.472  0.00  0.00     0.084 C 
HETATM   17  C   UNK N   1      29.552  16.305   3.190  0.00  0.00     0.032 C 
BRANCH  16  18
HETATM   18  C   UNK N   1      31.371  17.388   4.467  0.00  0.00     0.063 C 
BRANCH  18  19
HETATM   19  C   UNK N   1      32.069  17.332   5.795  0.00  0.00    -0.056 A 
HETATM   20  C   UNK N   1      33.448  17.555   5.906  0.00  0.00     0.007 A 
HETATM   21  C   UNK N   1      34.061  17.569   7.163  0.00  0.00     0.001 A 
HETATM   22  C   UNK N   1      33.292  17.384   8.316  0.00  0.00     0.000 A 
HETATM   23  C   UNK N   1      31.915  17.175   8.211  0.00  0.00     0.001 A 
HETATM   24  C   UNK N   1      31.304  17.148   6.952  0.00  0.00     0.007 A 
ENDBRANCH  18  19
ENDBRANCH  16  18
ENDBRANCH   1  16
TORSDOF 10
ENDMDL
MODEL 6
REMARK VINA RESULT:      -5.3      9.215     12.267
REMARK  10 active torsions:
REMARK  status: ('A' for Active; 'I' for Inactive)
REMARK    1  A    between atoms: C_6  and  C_7 
REMARK    2  A    between atoms: C_7  and  C_8 
REMARK    3  A    between atoms: C_8  and  N_9 
REMARK       I    between atoms: N_9  and  C_10 
REMARK    4  A    between atoms: C_10  and  C_11 
REMARK    5  A    between atoms: C_11  and  C_12 
REMARK    6  A    between atoms: C_11  and  N_18 
REMARK    7  A    between atoms: C_12  and  C_13 
REMARK    8  A    between atoms: C_13  and  C_14 
REMARK    9  A    between atoms: C_14  and  C_15 
REMARK   10  A    between atoms: C_15  and  N_19 
ROOT
HETATM    1  N   UNK N   1      30.212  17.580   8.087  0.00  0.00    -0.355 N 
HETATM    2  C   UNK N   1      30.993  16.728   7.360  0.00  0.00     0.240 C 
HETATM    3  O   UNK N   1      30.491  15.898   6.622  0.00  0.00    -0.271 OA
HETATM    4  H   UNK N   1      30.672  18.204   8.694  0.00  0.00     0.162 HD
ENDROOT
BRANCH   2   5
HETATM    5  C   UNK N   1      32.491  16.761   7.512  0.00  0.00     0.167 C 
BRANCH   5   6
HETATM    6  C   UNK N   1      33.169  16.391   6.203  0.00  0.00     0.034 C 
BRANCH   6   7
HETATM    7  C   UNK N   1      33.340  17.616   5.322  0.00  0.00     0.004 C 
BRANCH   7   8
HETATM    8  C   UNK N   1      32.655  17.378   3.989  0.00  0.00     0.019 C 
BRANCH   8   9
HETATM    9  C   UNK N   1      32.747  15.912   3.622  0.00  0.00     0.111 C 
BRANCH   9  10
HETATM   10  N   UNK N   1      33.549  15.767   2.420  0.00  0.00    -0.430 N 
HETATM   11  H   UNK N   1      33.225  16.156   1.535  0.00  0.00     0.149 HD
HETATM   12  H   UNK N   1      34.441  15.273   2.462  0.00  0.00     0.149 HD
ENDBRANCH   9  10
ENDBRANCH   8   9
ENDBRANCH   7   8
ENDBRANCH   6   7
ENDBRANCH   5   6
BRANCH   5  13
HETATM   13  N   UNK N   1      32.957  18.069   7.946  0.00  0.00    -0.418 N 
HETATM   14  H   UNK N   1      33.948  18.247   8.108  0.00  0.00     0.150 HD
HETATM   15  H   UNK N   1      32.282  18.820   8.092  0.00  0.00     0.150 HD
ENDBRANCH   5  13
ENDBRANCH   2   5
BRANCH   1  16
HETATM   16  C   UNK N   1      28.761  17.648   8.042  0.00  0.00     0.084 C 
HETATM   17  C   UNK N   1      28.144  17.275   9.387  0.00  0.00     0.032 C 
BRANCH  16  18
HETATM   18  C   UNK N   1      28.396  19.101   7.740  0.00  0.00     0.063 C 
BRANCH  18  19
HETATM   19  C   UNK N   1      27.840  19.377   6.373  0.00  0.00    -0.056 A 
HETATM   20  C   UNK N   1      27.185  20.582   6.080  0.00  0.00     0.007 A 
HETATM   21  C   UNK N   1      26.740  20.844   4.781  0.00  0.00     0.001 A 
HETATM   22  C   UNK N   1      26.969  19.914   3.763  0.00  0.00     0.000 A 
HETATM   23  C   UNK N   1      27.634  18.718   4.048  0.00  0.00     0.001 A 
HETATM   24  C   UNK N   1      28.068  18.450   5.351  0.00  0.00     0.007 A 
ENDBRANCH  18  19
ENDBRANCH  16  18
ENDBRANCH   1  16
TORSDOF 10
ENDMDL
MODEL 7
REMARK VINA RESULT:      -5.3     22.737     25.549
REMARK  10 active torsions:
REMARK  status: ('A' for Active; 'I' for Inactive)
REMARK    1  A    between atoms: C_6  and  C_7 
REMARK    2  A    between atoms: C_7  and  C_8 
REMARK    3  A    between atoms: C_8  and  N_9 
REMARK       I    between atoms: N_9  and  C_10 
REMARK    4  A    between atoms: C_10  and  C_11 
REMARK    5  A    between atoms: C_11  and  C_12 
REMARK    6  A    between atoms: C_11  and  N_18 
REMARK    7  A    between atoms: C_12  and  C_13 
REMARK    8  A    between atoms: C_13  and  C_14 
REMARK    9  A    between atoms: C_14  and  C_15 
REMARK   10  A    between atoms: C_15  and  N_19 
ROOT
HETATM    1  N   UNK N   1      27.064  25.992  -4.175  0.00  0.00    -0.355 N 
HETATM    2  C   UNK N   1      27.245  24.745  -3.650  0.00  0.00     0.240 C 
HETATM    3  O   UNK N   1      26.635  24.393  -2.655  0.00  0.00    -0.271 OA
HETATM    4  H   UNK N   1      27.611  26.234  -4.957  0.00  0.00     0.162 HD
ENDROOT
BRANCH   2   5
HETATM    5  C   UNK N   1      28.253  23.807  -4.261  0.00  0.00     0.167 C 
BRANCH   5   6
HETATM    6  C   UNK N   1      28.351  24.032  -5.762  0.00  0.00     0.034 C 
BRANCH   6   7
HETATM    7  C   UNK N   1      27.798  22.838  -6.520  0.00  0.00     0.004 C 
BRANCH   7   8
HETATM    8  C   UNK N   1      26.283  22.922  -6.557  0.00  0.00     0.019 C 
BRANCH   8   9
HETATM    9  C   UNK N   1      25.772  22.362  -7.868  0.00  0.00     0.111 C 
BRANCH   9  10
HETATM   10  N   UNK N   1      24.350  22.092  -7.755  0.00  0.00    -0.430 N 
HETATM   11  H   UNK N   1      23.672  22.847  -7.863  0.00  0.00     0.149 HD
HETATM   12  H   UNK N   1      24.027  21.143  -7.567  0.00  0.00     0.149 HD
ENDBRANCH   9  10
ENDBRANCH   8   9
ENDBRANCH   7   8
ENDBRANCH   6   7
ENDBRANCH   5   6
BRANCH   5  13
HETATM   13  N   UNK N   1      29.568  23.968  -3.660  0.00  0.00    -0.418 N 
HETATM   14  H   UNK N   1      30.407  24.022  -4.238  0.00  0.00     0.150 HD
HETATM   15  H   UNK N   1      29.652  24.028  -2.645  0.00  0.00     0.150 HD
ENDBRANCH   5  13
ENDBRANCH   2   5
BRANCH   1  16
HETATM   16  C   UNK N   1      26.134  26.993  -3.681  0.00  0.00     0.084 C 
HETATM   17  C   UNK N   1      26.858  28.095  -2.912  0.00  0.00     0.032 C 
BRANCH  16  18
HETATM   18  C   UNK N   1      25.473  27.626  -4.906  0.00  0.00     0.063 C 
BRANCH  18  19
HETATM   19  C   UNK N   1      26.193  27.458  -6.212  0.00  0.00    -0.056 A 
HETATM   20  C   UNK N   1      27.355  28.186  -6.506  0.00  0.00     0.007 A 
HETATM   21  C   UNK N   1      28.047  27.957  -7.699  0.00  0.00     0.001 A 
HETATM   22  C   UNK N   1      27.594  26.983  -8.593  0.00  0.00     0.000 A 
HETATM   23  C   UNK N   1      26.444  26.246  -8.299  0.00  0.00     0.001 A 
HETATM   24  C   UNK N   1      25.745  26.483  -7.110  0.00  0.00     0.007 A 
ENDBRANCH  18  19
ENDBRANCH  16  18
ENDBRANCH   1  16
TORSDOF 10
ENDMDL
MODEL 8
REMARK VINA RESULT:      -5.2     20.091     23.091
REMARK  10 active torsions:
REMARK  status: ('A' for Active; 'I' for Inactive)
REMARK    1  A    between atoms: C_6  and  C_7 
REMARK    2  A    between atoms: C_7  and  C_8 
REMARK    3  A    between atoms: C_8  and  N_9 
REMARK       I    between atoms: N_9  and  C_10 
REMARK    4  A    between atoms: C_10  and  C_11 
REMARK    5  A    between atoms: C_11  and  C_12 
REMARK    6  A    between atoms: C_11  and  N_18 
REMARK    7  A    between atoms: C_12  and  C_13 
REMARK    8  A    between atoms: C_13  and  C_14 
REMARK    9  A    between atoms: C_14  and  C_15 
REMARK   10  A    between atoms: C_15  and  N_19 
ROOT
HETATM    1  N   UNK N   1      29.628  23.346  -3.716  0.00  0.00    -0.355 N 
HETATM    2  C   UNK N   1      30.438  22.655  -2.861  0.00  0.00     0.240 C 
HETATM    3  O   UNK N   1      30.659  23.072  -1.737  0.00  0.00    -0.271 OA
HETATM    4  H   UNK N   1      29.515  22.981  -4.623  0.00  0.00     0.162 HD
ENDROOT
BRANCH   2   5
HETATM    5  C   UNK N   1      31.120  21.394  -3.322  0.00  0.00     0.167 C 
BRANCH   5   6
HETATM    6  C   UNK N   1      31.372  21.439  -4.821  0.00  0.00     0.034 C 
BRANCH   6   7
HETATM    7  C   UNK N   1      31.246  20.053  -5.428  0.00  0.00     0.004 C 
BRANCH   7   8
HETATM    8  C   UNK N   1      31.065  20.176  -6.929  0.00  0.00     0.019 C 
BRANCH   8   9
HETATM    9  C   UNK N   1      29.664  19.744  -7.312  0.00  0.00     0.111 C 
BRANCH   9  10
HETATM   10  N   UNK N   1      28.825  20.918  -7.470  0.00  0.00    -0.430 N 
HETATM   11  H   UNK N   1      28.343  21.092  -8.352  0.00  0.00     0.149 HD
HETATM   12  H   UNK N   1      28.716  21.571  -6.694  0.00  0.00     0.149 HD
ENDBRANCH   9  10
ENDBRANCH   8   9
ENDBRANCH   7   8
ENDBRANCH   6   7
ENDBRANCH   5   6
BRANCH   5  13
HETATM   13  N   UNK N   1      32.380  21.181  -2.626  0.00  0.00    -0.418 N 
HETATM   14  H   UNK N   1      33.251  21.576  -2.982  0.00  0.00     0.150 HD
HETATM   15  H   UNK N   1      32.393  20.630  -1.768  0.00  0.00     0.150 HD
ENDBRANCH   5  13
ENDBRANCH   2   5
BRANCH   1  16
HETATM   16  C   UNK N   1      28.918  24.575  -3.403  0.00  0.00     0.084 C 
HETATM   17  C   UNK N   1      29.249  25.680  -4.402  0.00  0.00     0.032 C 
BRANCH  16  18
HETATM   18  C   UNK N   1      27.425  24.264  -3.518  0.00  0.00     0.063 C 
BRANCH  18  19
HETATM   19  C   UNK N   1      26.553  25.370  -4.035  0.00  0.00    -0.056 A 
HETATM   20  C   UNK N   1      26.391  26.568  -3.323  0.00  0.00     0.007 A 
HETATM   21  C   UNK N   1      25.631  27.610  -3.861  0.00  0.00     0.001 A 
HETATM   22  C   UNK N   1      25.049  27.470  -5.124  0.00  0.00     0.000 A 
HETATM   23  C   UNK N   1      25.218  26.283  -5.843  0.00  0.00     0.001 A 
HETATM   24  C   UNK N   1      25.968  25.235  -5.299  0.00  0.00     0.007 A 
ENDBRANCH  18  19
ENDBRANCH  16  18
ENDBRANCH   1  16
TORSDOF 10
ENDMDL
MODEL 9
REMARK VINA RESULT:      -5.2      5.785      9.143
REMARK  10 active torsions:
REMARK  status: ('A' for Active; 'I' for Inactive)
REMARK    1  A    between atoms: C_6  and  C_7 
REMARK    2  A    between atoms: C_7  and  C_8 
REMARK    3  A    between atoms: C_8  and  N_9 
REMARK       I    between atoms: N_9  and  C_10 
REMARK    4  A    between atoms: C_10  and  C_11 
REMARK    5  A    between atoms: C_11  and  C_12 
REMARK    6  A    between atoms: C_11  and  N_18 
REMARK    7  A    between atoms: C_12  and  C_13 
REMARK    8  A    between atoms: C_13  and  C_14 
REMARK    9  A    between atoms: C_14  and  C_15 
REMARK   10  A    between atoms: C_15  and  N_19 
ROOT
HETATM    1  N   UNK N   1      33.844  16.290   8.219  0.00  0.00    -0.355 N 
HETATM    2  C   UNK N   1      34.733  16.587   9.212  0.00  0.00     0.240 C 
HETATM    3  O   UNK N   1      35.039  17.742   9.450  0.00  0.00    -0.271 OA
HETATM    4  H   UNK N   1      33.663  15.338   8.047  0.00  0.00     0.162 HD
ENDROOT
BRANCH   2   5
HETATM    5  C   UNK N   1      35.395  15.479   9.989  0.00  0.00     0.167 C 
BRANCH   5   6
HETATM    6  C   UNK N   1      36.074  14.498   9.047  0.00  0.00     0.034 C 
BRANCH   6   7
HETATM    7  C   UNK N   1      36.175  13.124   9.685  0.00  0.00     0.004 C 
BRANCH   7   8
HETATM    8  C   UNK N   1      37.560  12.555   9.438  0.00  0.00     0.019 C 
BRANCH   8   9
HETATM    9  C   UNK N   1      38.530  13.107  10.462  0.00  0.00     0.111 C 
BRANCH   9  10
HETATM   10  N   UNK N   1      37.961  12.964  11.790  0.00  0.00    -0.430 N 
HETATM   11  H   UNK N   1      37.116  12.411  11.932  0.00  0.00     0.149 HD
HETATM   12  H   UNK N   1      38.410  13.418  12.586  0.00  0.00     0.149 HD
ENDBRANCH   9  10
ENDBRANCH   8   9
ENDBRANCH   7   8
ENDBRANCH   6   7
ENDBRANCH   5   6
BRANCH   5  13
HETATM   13  N   UNK N   1      36.370  15.997  10.935  0.00  0.00    -0.418 N 
HETATM   14  H   UNK N   1      36.827  15.382  11.609  0.00  0.00     0.150 HD
HETATM   15  H   UNK N   1      36.602  16.990  10.925  0.00  0.00     0.150 HD
ENDBRANCH   5  13
ENDBRANCH   2   5
BRANCH   1  16
HETATM   16  C   UNK N   1      33.144  17.258   7.391  0.00  0.00     0.084 C 
HETATM   17  C   UNK N   1      33.867  17.488   6.068  0.00  0.00     0.032 C 
BRANCH  16  18
HETATM   18  C   UNK N   1      31.770  16.662   7.083  0.00  0.00     0.063 C 
BRANCH  18  19
HETATM   19  C   UNK N   1      30.606  17.252   7.825  0.00  0.00    -0.056 A 
HETATM   20  C   UNK N   1      30.795  18.097   8.928  0.00  0.00     0.007 A 
HETATM   21  C   UNK N   1      29.697  18.691   9.557  0.00  0.00     0.001 A 
HETATM   22  C   UNK N   1      28.407  18.462   9.072  0.00  0.00     0.000 A 
HETATM   23  C   UNK N   1      28.214  17.631   7.964  0.00  0.00     0.001 A 
HETATM   24  C   UNK N   1      29.312  17.027   7.343  0.00  0.00     0.007 A 
ENDBRANCH  18  19
ENDBRANCH  16  18
ENDBRANCH   1  16
TORSDOF 10
ENDMDL
