MODEL 1
REMARK VINA RESULT:      -6.7      0.000      0.000
REMARK  21 active torsions:
REMARK  status: ('A' for Active; 'I' for Inactive)
REMARK    1  A    between atoms: C_13  and  O_1 
REMARK    2  A    between atoms: O_3  and  C_29 
REMARK    3  A    between atoms: O_3  and  C_35 
REMARK    4  A    between atoms: O_4  and  C_33 
REMARK    5  A    between atoms: O_6  and  C_38 
REMARK    6  A    between atoms: C_12  and  N_7 
REMARK       I    between atoms: N_8  and  C_21 
REMARK    7  A    between atoms: N_8  and  C_25 
REMARK       I    between atoms: N_9  and  C_34 
REMARK    8  A    between atoms: C_10  and  C_11 
REMARK    9  A    between atoms: C_10  and  C_14 
REMARK   10  A    between atoms: C_10  and  C_17 
REMARK   11  A    between atoms: C_11  and  C_12 
REMARK   12  A    between atoms: C_12  and  C_13 
REMARK   13  A    between atoms: C_13  and  C_15 
REMARK   14  A    between atoms: C_16  and  C_15 
REMARK   15  A    between atoms: C_16  and  C_18 
REMARK   16  A    between atoms: C_16  and  C_21 
REMARK   17  A    between atoms: C_17  and  C_22 
REMARK   18  A    between atoms: C_25  and  C_26 
REMARK   19  A    between atoms: C_26  and  C_34 
REMARK   20  A    between atoms: C_35  and  C_36 
REMARK   21  A    between atoms: C_36  and  C_38 
ROOT
HETATM    1  C   UNK N   1      28.895  18.656   8.234  0.00  0.00     0.103 C 
ENDROOT
BRANCH   1   2
HETATM    2  N   UNK N   1      27.514  18.708   8.700  0.00  0.00    -0.424 N 
HETATM    3  H   UNK N   1      27.186  18.168   9.502  0.00  0.00     0.150 HD
HETATM    4  H   UNK N   1      26.852  19.306   8.207  0.00  0.00     0.150 HD
ENDBRANCH   1   2
BRANCH   1   5
HETATM    5  C   UNK N   1      28.954  18.473   6.735  0.00  0.00     0.032 C 
BRANCH   5   6
HETATM    6  C   UNK N   1      27.609  18.788   6.106  0.00  0.00    -0.005 C 
BRANCH   6   7
HETATM    7  C   UNK N   1      27.713  20.137   5.376  0.00  0.00    -0.018 C 
HETATM    8  C   UNK N   1      27.090  20.074   3.997  0.00  0.00     0.010 C 
HETATM    9  C   UNK N   1      27.011  21.247   6.144  0.00  0.00     0.010 C 
ENDBRANCH   6   7
BRANCH   6  10
HETATM   10  C   UNK N   1      27.336  17.652   5.127  0.00  0.00     0.043 C 
BRANCH  10  11
HETATM   11  C   UNK N   1      26.338  16.622   5.550  0.00  0.00    -0.055 A 
HETATM   12  C   UNK N   1      25.061  16.639   4.980  0.00  0.00     0.046 A 
HETATM   13  C   UNK N   1      24.029  15.840   5.511  0.00  0.00     0.102 A 
HETATM   14  C   UNK N   1      24.287  15.039   6.633  0.00  0.00     0.101 A 
HETATM   15  C   UNK N   1      25.587  14.988   7.165  0.00  0.00     0.040 A 
HETATM   16  C   UNK N   1      26.602  15.780   6.629  0.00  0.00     0.010 A 
BRANCH  13  17
HETATM   17  O   UNK N   1      22.781  15.861   4.981  0.00  0.00    -0.348 OA
BRANCH  17  18
HETATM   18  C   UNK N   1      22.179  17.029   4.573  0.00  0.00     0.178 C 
BRANCH  18  19
HETATM   19  C   UNK N   1      20.850  17.246   5.259  0.00  0.00     0.053 C 
BRANCH  19  20
HETATM   20  C   UNK N   1      21.150  17.935   6.577  0.00  0.00     0.169 C 
BRANCH  20  21
HETATM   21  O   UNK N   1      21.168  17.013   7.620  0.00  0.00    -0.396 OA
HETATM   22  C   UNK N   1      19.837  16.929   8.029  0.00  0.00     0.201 C 
ENDBRANCH  20  21
ENDBRANCH  19  20
ENDBRANCH  18  19
ENDBRANCH  17  18
ENDBRANCH  13  17
BRANCH  14  23
HETATM   23  O   UNK N   1      23.271  14.346   7.199  0.00  0.00    -0.353 OA
HETATM   24  C   UNK N   1      23.320  12.986   7.405  0.00  0.00     0.210 C 
ENDBRANCH  14  23
ENDBRANCH  10  11
ENDBRANCH   6  10
ENDBRANCH   5   6
ENDBRANCH   1   5
BRANCH   1  25
HETATM   25  C   UNK N   1      29.632  17.512   8.887  0.00  0.00     0.141 C 
BRANCH  25  26
HETATM   26  O   UNK N   1      30.166  17.922  10.117  0.00  0.00    -0.394 OA
HETATM   27  H   UNK N   1      30.329  18.620  10.769  0.00  0.00     0.210 HD
ENDBRANCH  25  26
BRANCH  25  28
HETATM   28  C   UNK N   1      30.682  16.958   7.921  0.00  0.00     0.048 C 
BRANCH  28  29
HETATM   29  C   UNK N   1      32.139  17.064   8.386  0.00  0.00     0.083 C 
BRANCH  29  30
HETATM   30  C   UNK N   1      33.043  17.968   7.493  0.00  0.00    -0.010 C 
HETATM   31  C   UNK N   1      33.337  17.478   6.087  0.00  0.00     0.010 C 
HETATM   32  C   UNK N   1      34.346  18.366   8.156  0.00  0.00     0.010 C 
ENDBRANCH  29  30
BRANCH  29  33
HETATM   33  C   UNK N   1      32.679  15.731   8.860  0.00  0.00     0.222 C 
HETATM   34  O   UNK N   1      32.318  14.689   8.321  0.00  0.00    -0.273 OA
HETATM   35  N   UNK N   1      33.492  15.679   9.937  0.00  0.00    -0.360 N 
HETATM   36  H   UNK N   1      33.765  16.517  10.375  0.00  0.00     0.162 HD
BRANCH  35  37
HETATM   37  C   UNK N   1      33.968  14.420  10.460  0.00  0.00     0.141 C 
BRANCH  37  38
HETATM   38  C   UNK N   1      35.492  14.334  10.410  0.00  0.00     0.049 C 
HETATM   39  C   UNK N   1      35.972  14.458   8.970  0.00  0.00     0.027 C 
HETATM   40  C   UNK N   1      35.880  12.949  10.902  0.00  0.00     0.027 C 
BRANCH  38  41
HETATM   41  C   UNK N   1      36.124  15.423  11.256  0.00  0.00     0.225 C 
HETATM   42  O   UNK N   1      36.435  16.489  10.747  0.00  0.00    -0.273 OA
HETATM   43  N   UNK N   1      36.355  15.232  12.572  0.00  0.00    -0.369 N 
HETATM   44  H   UNK N   1      37.127  15.648  13.018  0.00  0.00     0.159 HD
HETATM   45  H   UNK N   1      35.740  14.667  13.093  0.00  0.00     0.159 HD
ENDBRANCH  38  41
ENDBRANCH  37  38
ENDBRANCH  35  37
ENDBRANCH  29  33
ENDBRANCH  28  29
ENDBRANCH  25  28
ENDBRANCH   1  25
TORSDOF 21
ENDMDL
MODEL 2
REMARK VINA RESULT:      -6.7      2.190      3.415
REMARK  21 active torsions:
REMARK  status: ('A' for Active; 'I' for Inactive)
REMARK    1  A    between atoms: C_13  and  O_1 
REMARK    2  A    between atoms: O_3  and  C_29 
REMARK    3  A    between atoms: O_3  and  C_35 
REMARK    4  A    between atoms: O_4  and  C_33 
REMARK    5  A    between atoms: O_6  and  C_38 
REMARK    6  A    between atoms: C_12  and  N_7 
REMARK       I    between atoms: N_8  and  C_21 
REMARK    7  A    between atoms: N_8  and  C_25 
REMARK       I    between atoms: N_9  and  C_34 
REMARK    8  A    between atoms: C_10  and  C_11 
REMARK    9  A    between atoms: C_10  and  C_14 
REMARK   10  A    between atoms: C_10  and  C_17 
REMARK   11  A    between atoms: C_11  and  C_12 
REMARK   12  A    between atoms: C_12  and  C_13 
REMARK   13  A    between atoms: C_13  and  C_15 
REMARK   14  A    between atoms: C_16  and  C_15 
REMARK   15  A    between atoms: C_16  and  C_18 
REMARK   16  A    between atoms: C_16  and  C_21 
REMARK   17  A    between atoms: C_17  and  C_22 
REMARK   18  A    between atoms: C_25  and  C_26 
REMARK   19  A    between atoms: C_26  and  C_34 
REMARK   20  A    between atoms: C_35  and  C_36 
REMARK   21  A    between atoms: C_36  and  C_38 
ROOT
HETATM    1  C   UNK N   1      28.680  18.259   7.702  0.00  0.00     0.103 C 
ENDROOT
BRANCH   1   2
HETATM    2  N   UNK N   1      27.958  18.409   8.960  0.00  0.00    -0.424 N 
HETATM    3  H   UNK N   1      27.648  17.609   9.513  0.00  0.00     0.150 HD
HETATM    4  H   UNK N   1      27.755  19.349   9.300  0.00  0.00     0.150 HD
ENDBRANCH   1   2
BRANCH   1   5
HETATM    5  C   UNK N   1      27.771  17.729   6.616  0.00  0.00     0.032 C 
BRANCH   5   6
HETATM    6  C   UNK N   1      26.890  18.838   6.071  0.00  0.00    -0.005 C 
BRANCH   6   7
HETATM    7  C   UNK N   1      27.781  20.034   5.699  0.00  0.00    -0.018 C 
HETATM    8  C   UNK N   1      28.175  20.002   4.238  0.00  0.00     0.010 C 
HETATM    9  C   UNK N   1      27.077  21.360   5.953  0.00  0.00     0.010 C 
ENDBRANCH   6   7
BRANCH   6  10
HETATM   10  C   UNK N   1      26.209  18.255   4.838  0.00  0.00     0.043 C 
BRANCH  10  11
HETATM   11  C   UNK N   1      24.813  18.710   4.558  0.00  0.00    -0.055 A 
HETATM   12  C   UNK N   1      23.742  17.974   5.075  0.00  0.00     0.046 A 
HETATM   13  C   UNK N   1      22.424  18.230   4.649  0.00  0.00     0.102 A 
HETATM   14  C   UNK N   1      22.193  19.220   3.683  0.00  0.00     0.101 A 
HETATM   15  C   UNK N   1      23.270  19.991   3.209  0.00  0.00     0.040 A 
HETATM   16  C   UNK N   1      24.570  19.731   3.641  0.00  0.00     0.010 A 
BRANCH  13  17
HETATM   17  O   UNK N   1      21.378  17.511   5.126  0.00  0.00    -0.348 OA
BRANCH  17  18
HETATM   18  C   UNK N   1      21.427  16.870   6.342  0.00  0.00     0.178 C 
BRANCH  18  19
HETATM   19  C   UNK N   1      20.056  16.429   6.801  0.00  0.00     0.053 C 
BRANCH  19  20
HETATM   20  C   UNK N   1      19.980  16.724   8.287  0.00  0.00     0.169 C 
BRANCH  20  21
HETATM   21  O   UNK N   1      18.977  15.968   8.887  0.00  0.00    -0.396 OA
HETATM   22  C   UNK N   1      17.992  16.900   9.215  0.00  0.00     0.201 C 
ENDBRANCH  20  21
ENDBRANCH  19  20
ENDBRANCH  18  19
ENDBRANCH  17  18
ENDBRANCH  13  17
BRANCH  14  23
HETATM   23  O   UNK N   1      20.940  19.400   3.206  0.00  0.00    -0.353 OA
HETATM   24  C   UNK N   1      20.468  18.753   2.086  0.00  0.00     0.210 C 
ENDBRANCH  14  23
ENDBRANCH  10  11
ENDBRANCH   6  10
ENDBRANCH   5   6
ENDBRANCH   1   5
BRANCH   1  25
HETATM   25  C   UNK N   1      29.837  17.304   7.867  0.00  0.00     0.141 C 
BRANCH  25  26
HETATM   26  O   UNK N   1      30.928  17.965   8.448  0.00  0.00    -0.394 OA
HETATM   27  H   UNK N   1      31.882  18.023   8.615  0.00  0.00     0.210 HD
ENDBRANCH  25  26
BRANCH  25  28
HETATM   28  C   UNK N   1      30.166  16.655   6.519  0.00  0.00     0.048 C 
BRANCH  28  29
HETATM   29  C   UNK N   1      31.215  17.380   5.668  0.00  0.00     0.083 C 
BRANCH  29  30
HETATM   30  C   UNK N   1      30.952  17.334   4.132  0.00  0.00    -0.010 C 
HETATM   31  C   UNK N   1      29.691  16.626   3.668  0.00  0.00     0.010 C 
HETATM   32  C   UNK N   1      32.128  16.818   3.329  0.00  0.00     0.010 C 
ENDBRANCH  29  30
BRANCH  29  33
HETATM   33  C   UNK N   1      32.620  17.136   6.177  0.00  0.00     0.222 C 
HETATM   34  O   UNK N   1      33.529  17.907   5.883  0.00  0.00    -0.273 OA
HETATM   35  N   UNK N   1      32.896  16.019   6.884  0.00  0.00    -0.360 N 
HETATM   36  H   UNK N   1      32.166  15.396   7.104  0.00  0.00     0.162 HD
BRANCH  35  37
HETATM   37  C   UNK N   1      34.238  15.719   7.325  0.00  0.00     0.141 C 
BRANCH  37  38
HETATM   38  C   UNK N   1      34.293  15.489   8.834  0.00  0.00     0.049 C 
HETATM   39  C   UNK N   1      35.477  14.595   9.179  0.00  0.00     0.027 C 
HETATM   40  C   UNK N   1      33.028  14.739   9.220  0.00  0.00     0.027 C 
BRANCH  38  41
HETATM   41  C   UNK N   1      34.411  16.805   9.578  0.00  0.00     0.225 C 
HETATM   42  O   UNK N   1      33.886  17.811   9.126  0.00  0.00    -0.273 OA
HETATM   43  N   UNK N   1      35.096  16.886  10.737  0.00  0.00    -0.369 N 
HETATM   44  H   UNK N   1      35.585  17.705  10.983  0.00  0.00     0.159 HD
HETATM   45  H   UNK N   1      35.109  16.113  11.347  0.00  0.00     0.159 HD
ENDBRANCH  38  41
ENDBRANCH  37  38
ENDBRANCH  35  37
ENDBRANCH  29  33
ENDBRANCH  28  29
ENDBRANCH  25  28
ENDBRANCH   1  25
TORSDOF 21
ENDMDL
MODEL 3
REMARK VINA RESULT:      -6.6      3.547      4.831
REMARK  21 active torsions:
REMARK  status: ('A' for Active; 'I' for Inactive)
REMARK    1  A    between atoms: C_13  and  O_1 
REMARK    2  A    between atoms: O_3  and  C_29 
REMARK    3  A    between atoms: O_3  and  C_35 
REMARK    4  A    between atoms: O_4  and  C_33 
REMARK    5  A    between atoms: O_6  and  C_38 
REMARK    6  A    between atoms: C_12  and  N_7 
REMARK       I    between atoms: N_8  and  C_21 
REMARK    7  A    between atoms: N_8  and  C_25 
REMARK       I    between atoms: N_9  and  C_34 
REMARK    8  A    between atoms: C_10  and  C_11 
REMARK    9  A    between atoms: C_10  and  C_14 
REMARK   10  A    between atoms: C_10  and  C_17 
REMARK   11  A    between atoms: C_11  and  C_12 
REMARK   12  A    between atoms: C_12  and  C_13 
REMARK   13  A    between atoms: C_13  and  C_15 
REMARK   14  A    between atoms: C_16  and  C_15 
REMARK   15  A    between atoms: C_16  and  C_18 
REMARK   16  A    between atoms: C_16  and  C_21 
REMARK   17  A    between atoms: C_17  and  C_22 
REMARK   18  A    between atoms: C_25  and  C_26 
REMARK   19  A    between atoms: C_26  and  C_34 
REMARK   20  A    between atoms: C_35  and  C_36 
REMARK   21  A    between atoms: C_36  and  C_38 
ROOT
HETATM    1  C   UNK N   1      32.271  17.603   7.896  0.00  0.00     0.103 C 
ENDROOT
BRANCH   1   2
HETATM    2  N   UNK N   1      31.408  17.708   9.067  0.00  0.00    -0.424 N 
HETATM    3  H   UNK N   1      31.379  18.543   9.653  0.00  0.00     0.150 HD
HETATM    4  H   UNK N   1      30.811  16.918   9.309  0.00  0.00     0.150 HD
ENDBRANCH   1   2
BRANCH   1   5
HETATM    5  C   UNK N   1      31.850  16.449   7.015  0.00  0.00     0.032 C 
BRANCH   5   6
HETATM    6  C   UNK N   1      31.236  16.960   5.724  0.00  0.00    -0.005 C 
BRANCH   6   7
HETATM    7  C   UNK N   1      31.910  16.243   4.543  0.00  0.00    -0.018 C 
HETATM    8  C   UNK N   1      31.188  16.516   3.241  0.00  0.00     0.010 C 
HETATM    9  C   UNK N   1      33.355  16.689   4.367  0.00  0.00     0.010 C 
ENDBRANCH   6   7
BRANCH   6  10
HETATM   10  C   UNK N   1      29.755  16.610   5.807  0.00  0.00     0.043 C 
BRANCH  10  11
HETATM   11  C   UNK N   1      28.796  17.752   5.913  0.00  0.00    -0.055 A 
HETATM   12  C   UNK N   1      28.263  18.303   4.743  0.00  0.00     0.046 A 
HETATM   13  C   UNK N   1      27.545  19.514   4.784  0.00  0.00     0.102 A 
HETATM   14  C   UNK N   1      27.383  20.178   6.008  0.00  0.00     0.101 A 
HETATM   15  C   UNK N   1      27.876  19.589   7.187  0.00  0.00     0.040 A 
HETATM   16  C   UNK N   1      28.582  18.388   7.135  0.00  0.00     0.010 A 
BRANCH  13  17
HETATM   17  O   UNK N   1      27.040  20.070   3.654  0.00  0.00    -0.348 OA
BRANCH  17  18
HETATM   18  C   UNK N   1      25.836  19.673   3.119  0.00  0.00     0.178 C 
BRANCH  18  19
HETATM   19  C   UNK N   1      24.834  20.803   3.090  0.00  0.00     0.053 C 
BRANCH  19  20
HETATM   20  C   UNK N   1      23.459  20.162   3.096  0.00  0.00     0.169 C 
BRANCH  20  21
HETATM   21  O   UNK N   1      22.482  21.092   2.750  0.00  0.00    -0.396 OA
HETATM   22  C   UNK N   1      21.281  20.396   2.883  0.00  0.00     0.201 C 
ENDBRANCH  20  21
ENDBRANCH  19  20
ENDBRANCH  18  19
ENDBRANCH  17  18
ENDBRANCH  13  17
BRANCH  14  23
HETATM   23  O   UNK N   1      26.776  21.387   6.030  0.00  0.00    -0.353 OA
HETATM   24  C   UNK N   1      26.119  21.872   7.139  0.00  0.00     0.210 C 
ENDBRANCH  14  23
ENDBRANCH  10  11
ENDBRANCH   6  10
ENDBRANCH   5   6
ENDBRANCH   1   5
BRANCH   1  25
HETATM   25  C   UNK N   1      33.706  17.391   8.313  0.00  0.00     0.141 C 
BRANCH  25  26
HETATM   26  O   UNK N   1      34.572  17.823   7.299  0.00  0.00    -0.394 OA
HETATM   27  H   UNK N   1      34.725  18.060   6.371  0.00  0.00     0.210 HD
ENDBRANCH  25  26
BRANCH  25  28
HETATM   28  C   UNK N   1      33.915  15.927   8.710  0.00  0.00     0.048 C 
BRANCH  28  29
HETATM   29  C   UNK N   1      35.304  15.348   8.417  0.00  0.00     0.083 C 
BRANCH  29  30
HETATM   30  C   UNK N   1      35.343  14.303   7.261  0.00  0.00    -0.010 C 
HETATM   31  C   UNK N   1      36.106  14.689   6.006  0.00  0.00     0.010 C 
HETATM   32  C   UNK N   1      33.975  13.787   6.863  0.00  0.00     0.010 C 
ENDBRANCH  29  30
BRANCH  29  33
HETATM   33  C   UNK N   1      36.076  15.062   9.687  0.00  0.00     0.222 C 
HETATM   34  O   UNK N   1      36.445  15.983  10.409  0.00  0.00    -0.273 OA
HETATM   35  N   UNK N   1      36.438  13.795   9.985  0.00  0.00    -0.360 N 
HETATM   36  H   UNK N   1      36.152  13.061   9.393  0.00  0.00     0.162 HD
BRANCH  35  37
HETATM   37  C   UNK N   1      37.235  13.494  11.150  0.00  0.00     0.141 C 
BRANCH  37  38
HETATM   38  C   UNK N   1      36.486  12.580  12.119  0.00  0.00     0.049 C 
HETATM   39  C   UNK N   1      37.479  11.748  12.920  0.00  0.00     0.027 C 
HETATM   40  C   UNK N   1      35.658  11.620  11.282  0.00  0.00     0.027 C 
BRANCH  38  41
HETATM   41  C   UNK N   1      35.617  13.389  13.063  0.00  0.00     0.225 C 
HETATM   42  O   UNK N   1      34.611  13.941  12.646  0.00  0.00    -0.273 OA
HETATM   43  N   UNK N   1      35.943  13.516  14.367  0.00  0.00    -0.369 N 
HETATM   44  H   UNK N   1      35.734  14.338  14.866  0.00  0.00     0.159 HD
HETATM   45  H   UNK N   1      36.398  12.774  14.826  0.00  0.00     0.159 HD
ENDBRANCH  38  41
ENDBRANCH  37  38
ENDBRANCH  35  37
ENDBRANCH  29  33
ENDBRANCH  28  29
ENDBRANCH  25  28
ENDBRANCH   1  25
TORSDOF 21
ENDMDL
MODEL 4
REMARK VINA RESULT:      -6.6      2.442      4.517
REMARK  21 active torsions:
REMARK  status: ('A' for Active; 'I' for Inactive)
REMARK    1  A    between atoms: C_13  and  O_1 
REMARK    2  A    between atoms: O_3  and  C_29 
REMARK    3  A    between atoms: O_3  and  C_35 
REMARK    4  A    between atoms: O_4  and  C_33 
REMARK    5  A    between atoms: O_6  and  C_38 
REMARK    6  A    between atoms: C_12  and  N_7 
REMARK       I    between atoms: N_8  and  C_21 
REMARK    7  A    between atoms: N_8  and  C_25 
REMARK       I    between atoms: N_9  and  C_34 
REMARK    8  A    between atoms: C_10  and  C_11 
REMARK    9  A    between atoms: C_10  and  C_14 
REMARK   10  A    between atoms: C_10  and  C_17 
REMARK   11  A    between atoms: C_11  and  C_12 
REMARK   12  A    between atoms: C_12  and  C_13 
REMARK   13  A    between atoms: C_13  and  C_15 
REMARK   14  A    between atoms: C_16  and  C_15 
REMARK   15  A    between atoms: C_16  and  C_18 
REMARK   16  A    between atoms: C_16  and  C_21 
REMARK   17  A    between atoms: C_17  and  C_22 
REMARK   18  A    between atoms: C_25  and  C_26 
REMARK   19  A    between atoms: C_26  and  C_34 
REMARK   20  A    between atoms: C_35  and  C_36 
REMARK   21  A    between atoms: C_36  and  C_38 
ROOT
HETATM    1  C   UNK N   1      26.922  16.791   4.344  0.00  0.00     0.103 C 
ENDROOT
BRANCH   1   2
HETATM    2  N   UNK N   1      26.470  15.413   4.188  0.00  0.00    -0.424 N 
HETATM    3  H   UNK N   1      26.305  14.797   4.984  0.00  0.00     0.150 HD
HETATM    4  H   UNK N   1      26.313  15.052   3.247  0.00  0.00     0.150 HD
ENDBRANCH   1   2
BRANCH   1   5
HETATM    5  C   UNK N   1      26.061  17.738   3.539  0.00  0.00     0.032 C 
BRANCH   5   6
HETATM    6  C   UNK N   1      25.106  18.493   4.446  0.00  0.00    -0.005 C 
BRANCH   6   7
HETATM    7  C   UNK N   1      25.154  19.984   4.076  0.00  0.00    -0.018 C 
HETATM    8  C   UNK N   1      26.464  20.350   3.411  0.00  0.00     0.010 C 
HETATM    9  C   UNK N   1      24.034  20.360   3.117  0.00  0.00     0.010 C 
ENDBRANCH   6   7
BRANCH   6  10
HETATM   10  C   UNK N   1      23.728  17.902   4.175  0.00  0.00     0.043 C 
BRANCH  10  11
HETATM   11  C   UNK N   1      22.932  17.471   5.365  0.00  0.00    -0.055 A 
HETATM   12  C   UNK N   1      23.141  16.194   5.896  0.00  0.00     0.046 A 
HETATM   13  C   UNK N   1      22.261  15.666   6.861  0.00  0.00     0.102 A 
HETATM   14  C   UNK N   1      21.157  16.425   7.273  0.00  0.00     0.101 A 
HETATM   15  C   UNK N   1      20.984  17.728   6.773  0.00  0.00     0.040 A 
HETATM   16  C   UNK N   1      21.864  18.242   5.821  0.00  0.00     0.010 A 
BRANCH  13  17
HETATM   17  O   UNK N   1      22.441  14.422   7.371  0.00  0.00    -0.348 OA
BRANCH  17  18
HETATM   18  C   UNK N   1      22.202  13.287   6.631  0.00  0.00     0.178 C 
BRANCH  18  19
HETATM   19  C   UNK N   1      22.006  12.074   7.510  0.00  0.00     0.053 C 
BRANCH  19  20
HETATM   20  C   UNK N   1      21.939  12.580   8.938  0.00  0.00     0.169 C 
BRANCH  20  21
HETATM   21  O   UNK N   1      22.619  11.720   9.796  0.00  0.00    -0.396 OA
HETATM   22  C   UNK N   1      23.860  12.329   9.983  0.00  0.00     0.201 C 
ENDBRANCH  20  21
ENDBRANCH  19  20
ENDBRANCH  18  19
ENDBRANCH  17  18
ENDBRANCH  13  17
BRANCH  14  23
HETATM   23  O   UNK N   1      20.261  15.879   8.129  0.00  0.00    -0.353 OA
HETATM   24  C   UNK N   1      19.177  16.573   8.618  0.00  0.00     0.210 C 
ENDBRANCH  14  23
ENDBRANCH  10  11
ENDBRANCH   6  10
ENDBRANCH   5   6
ENDBRANCH   1   5
BRANCH   1  25
HETATM   25  C   UNK N   1      28.352  16.935   3.885  0.00  0.00     0.141 C 
BRANCH  25  26
HETATM   26  O   UNK N   1      28.925  15.670   3.687  0.00  0.00    -0.394 OA
HETATM   27  H   UNK N   1      29.130  14.926   3.101  0.00  0.00     0.210 HD
ENDBRANCH  25  26
BRANCH  25  28
HETATM   28  C   UNK N   1      29.127  17.805   4.878  0.00  0.00     0.048 C 
BRANCH  28  29
HETATM   29  C   UNK N   1      29.168  17.294   6.323  0.00  0.00     0.083 C 
BRANCH  29  30
HETATM   30  C   UNK N   1      28.733  18.338   7.396  0.00  0.00    -0.010 C 
HETATM   31  C   UNK N   1      28.122  17.798   8.677  0.00  0.00     0.010 C 
HETATM   32  C   UNK N   1      27.838  19.432   6.850  0.00  0.00     0.010 C 
ENDBRANCH  29  30
BRANCH  29  33
HETATM   33  C   UNK N   1      30.392  16.442   6.586  0.00  0.00     0.222 C 
HETATM   34  O   UNK N   1      30.422  15.270   6.223  0.00  0.00    -0.273 OA
HETATM   35  N   UNK N   1      31.423  16.946   7.300  0.00  0.00    -0.360 N 
HETATM   36  H   UNK N   1      31.386  17.883   7.601  0.00  0.00     0.162 HD
BRANCH  35  37
HETATM   37  C   UNK N   1      32.575  16.141   7.629  0.00  0.00     0.141 C 
BRANCH  37  38
HETATM   38  C   UNK N   1      33.870  16.793   7.148  0.00  0.00     0.049 C 
HETATM   39  C   UNK N   1      33.624  17.531   5.839  0.00  0.00     0.027 C 
HETATM   40  C   UNK N   1      34.857  15.673   6.862  0.00  0.00     0.027 C 
BRANCH  38  41
HETATM   41  C   UNK N   1      34.407  17.758   8.188  0.00  0.00     0.225 C 
HETATM   42  O   UNK N   1      34.949  18.794   7.837  0.00  0.00    -0.273 OA
HETATM   43  N   UNK N   1      34.301  17.486   9.505  0.00  0.00    -0.369 N 
HETATM   44  H   UNK N   1      34.990  17.782  10.143  0.00  0.00     0.159 HD
HETATM   45  H   UNK N   1      33.521  16.984   9.834  0.00  0.00     0.159 HD
ENDBRANCH  38  41
ENDBRANCH  37  38
ENDBRANCH  35  37
ENDBRANCH  29  33
ENDBRANCH  28  29
ENDBRANCH  25  28
ENDBRANCH   1  25
TORSDOF 21
ENDMDL
MODEL 5
REMARK VINA RESULT:      -6.5      2.123      3.032
REMARK  21 active torsions:
REMARK  status: ('A' for Active; 'I' for Inactive)
REMARK    1  A    between atoms: C_13  and  O_1 
REMARK    2  A    between atoms: O_3  and  C_29 
REMARK    3  A    between atoms: O_3  and  C_35 
REMARK    4  A    between atoms: O_4  and  C_33 
REMARK    5  A    between atoms: O_6  and  C_38 
REMARK    6  A    between atoms: C_12  and  N_7 
REMARK       I    between atoms: N_8  and  C_21 
REMARK    7  A    between atoms: N_8  and  C_25 
REMARK       I    between atoms: N_9  and  C_34 
REMARK    8  A    between atoms: C_10  and  C_11 
REMARK    9  A    between atoms: C_10  and  C_14 
REMARK   10  A    between atoms: C_10  and  C_17 
REMARK   11  A    between atoms: C_11  and  C_12 
REMARK   12  A    between atoms: C_12  and  C_13 
REMARK   13  A    between atoms: C_13  and  C_15 
REMARK   14  A    between atoms: C_16  and  C_15 
REMARK   15  A    between atoms: C_16  and  C_18 
REMARK   16  A    between atoms: C_16  and  C_21 
REMARK   17  A    between atoms: C_17  and  C_22 
REMARK   18  A    between atoms: C_25  and  C_26 
REMARK   19  A    between atoms: C_26  and  C_34 
REMARK   20  A    between atoms: C_35  and  C_36 
REMARK   21  A    between atoms: C_36  and  C_38 
ROOT
HETATM    1  C   UNK N   1      28.741  18.255   7.927  0.00  0.00     0.103 C 
ENDROOT
BRANCH   1   2
HETATM    2  N   UNK N   1      27.840  18.445   9.058  0.00  0.00    -0.424 N 
HETATM    3  H   UNK N   1      26.828  18.515   8.946  0.00  0.00     0.150 HD
HETATM    4  H   UNK N   1      28.236  18.510   9.995  0.00  0.00     0.150 HD
ENDBRANCH   1   2
BRANCH   1   5
HETATM    5  C   UNK N   1      28.039  17.551   6.788  0.00  0.00     0.032 C 
BRANCH   5   6
HETATM    6  C   UNK N   1      27.043  18.481   6.119  0.00  0.00    -0.005 C 
BRANCH   6   7
HETATM    7  C   UNK N   1      27.803  19.696   5.564  0.00  0.00    -0.018 C 
HETATM    8  C   UNK N   1      27.772  19.727   4.050  0.00  0.00     0.010 C 
HETATM    9  C   UNK N   1      27.208  21.005   6.060  0.00  0.00     0.010 C 
ENDBRANCH   6   7
BRANCH   6  10
HETATM   10  C   UNK N   1      26.410  17.667   4.996  0.00  0.00     0.043 C 
BRANCH  10  11
HETATM   11  C   UNK N   1      25.023  17.159   5.229  0.00  0.00    -0.055 A 
HETATM   12  C   UNK N   1      23.947  18.045   5.113  0.00  0.00     0.046 A 
HETATM   13  C   UNK N   1      22.660  17.669   5.545  0.00  0.00     0.102 A 
HETATM   14  C   UNK N   1      22.467  16.401   6.112  0.00  0.00     0.101 A 
HETATM   15  C   UNK N   1      23.544  15.498   6.175  0.00  0.00     0.040 A 
HETATM   16  C   UNK N   1      24.813  15.880   5.741  0.00  0.00     0.010 A 
BRANCH  13  17
HETATM   17  O   UNK N   1      21.611  18.524   5.457  0.00  0.00    -0.348 OA
BRANCH  17  18
HETATM   18  C   UNK N   1      21.239  19.104   4.266  0.00  0.00     0.178 C 
BRANCH  18  19
HETATM   19  C   UNK N   1      20.488  18.137   3.380  0.00  0.00     0.053 C 
BRANCH  19  20
HETATM   20  C   UNK N   1      20.421  18.773   2.005  0.00  0.00     0.169 C 
BRANCH  20  21
HETATM   21  O   UNK N   1      20.376  20.161   2.107  0.00  0.00    -0.396 OA
HETATM   22  C   UNK N   1      20.845  20.613   0.874  0.00  0.00     0.201 C 
ENDBRANCH  20  21
ENDBRANCH  19  20
ENDBRANCH  18  19
ENDBRANCH  17  18
ENDBRANCH  13  17
BRANCH  14  23
HETATM   23  O   UNK N   1      21.252  16.077   6.612  0.00  0.00    -0.353 OA
HETATM   24  C   UNK N   1      21.086  15.486   7.844  0.00  0.00     0.210 C 
ENDBRANCH  14  23
ENDBRANCH  10  11
ENDBRANCH   6  10
ENDBRANCH   5   6
ENDBRANCH   1   5
BRANCH   1  25
HETATM   25  C   UNK N   1      29.938  17.431   8.336  0.00  0.00     0.141 C 
BRANCH  25  26
HETATM   26  O   UNK N   1      30.871  18.236   9.004  0.00  0.00    -0.394 OA
HETATM   27  H   UNK N   1      31.067  18.980   9.594  0.00  0.00     0.210 HD
ENDBRANCH  25  26
BRANCH  25  28
HETATM   28  C   UNK N   1      30.514  16.717   7.111  0.00  0.00     0.048 C 
BRANCH  28  29
HETATM   29  C   UNK N   1      31.600  17.480   6.343  0.00  0.00     0.083 C 
BRANCH  29  30
HETATM   30  C   UNK N   1      31.368  17.568   4.804  0.00  0.00    -0.010 C 
HETATM   31  C   UNK N   1      30.328  16.636   4.207  0.00  0.00     0.010 C 
HETATM   32  C   UNK N   1      32.642  17.464   3.991  0.00  0.00     0.010 C 
ENDBRANCH  29  30
BRANCH  29  33
HETATM   33  C   UNK N   1      32.987  17.157   6.857  0.00  0.00     0.222 C 
HETATM   34  O   UNK N   1      33.828  18.044   6.971  0.00  0.00    -0.273 OA
HETATM   35  N   UNK N   1      33.330  15.875   7.108  0.00  0.00    -0.360 N 
HETATM   36  H   UNK N   1      32.656  15.166   7.000  0.00  0.00     0.162 HD
BRANCH  35  37
HETATM   37  C   UNK N   1      34.665  15.522   7.531  0.00  0.00     0.141 C 
BRANCH  37  38
HETATM   38  C   UNK N   1      34.641  14.480   8.647  0.00  0.00     0.049 C 
HETATM   39  C   UNK N   1      35.674  14.833   9.709  0.00  0.00     0.027 C 
HETATM   40  C   UNK N   1      35.057  13.153   8.032  0.00  0.00     0.027 C 
BRANCH  38  41
HETATM   41  C   UNK N   1      33.265  14.395   9.279  0.00  0.00     0.225 C 
HETATM   42  O   UNK N   1      32.380  13.757   8.732  0.00  0.00    -0.273 OA
HETATM   43  N   UNK N   1      32.998  15.023  10.443  0.00  0.00    -0.369 N 
HETATM   44  H   UNK N   1      32.103  15.389  10.630  0.00  0.00     0.159 HD
HETATM   45  H   UNK N   1      33.710  15.117  11.117  0.00  0.00     0.159 HD
ENDBRANCH  38  41
ENDBRANCH  37  38
ENDBRANCH  35  37
ENDBRANCH  29  33
ENDBRANCH  28  29
ENDBRANCH  25  28
ENDBRANCH   1  25
TORSDOF 21
ENDMDL
MODEL 6
REMARK VINA RESULT:      -6.5      2.673      4.143
REMARK  21 active torsions:
REMARK  status: ('A' for Active; 'I' for Inactive)
REMARK    1  A    between atoms: C_13  and  O_1 
REMARK    2  A    between atoms: O_3  and  C_29 
REMARK    3  A    between atoms: O_3  and  C_35 
REMARK    4  A    between atoms: O_4  and  C_33 
REMARK    5  A    between atoms: O_6  and  C_38 
REMARK    6  A    between atoms: C_12  and  N_7 
REMARK       I    between atoms: N_8  and  C_21 
REMARK    7  A    between atoms: N_8  and  C_25 
REMARK       I    between atoms: N_9  and  C_34 
REMARK    8  A    between atoms: C_10  and  C_11 
REMARK    9  A    between atoms: C_10  and  C_14 
REMARK   10  A    between atoms: C_10  and  C_17 
REMARK   11  A    between atoms: C_11  and  C_12 
REMARK   12  A    between atoms: C_12  and  C_13 
REMARK   13  A    between atoms: C_13  and  C_15 
REMARK   14  A    between atoms: C_16  and  C_15 
REMARK   15  A    between atoms: C_16  and  C_18 
REMARK   16  A    between atoms: C_16  and  C_21 
REMARK   17  A    between atoms: C_17  and  C_22 
REMARK   18  A    between atoms: C_25  and  C_26 
REMARK   19  A    between atoms: C_26  and  C_34 
REMARK   20  A    between atoms: C_35  and  C_36 
REMARK   21  A    between atoms: C_36  and  C_38 
ROOT
HETATM    1  C   UNK N   1      28.635  18.270   7.634  0.00  0.00     0.103 C 
ENDROOT
BRANCH   1   2
HETATM    2  N   UNK N   1      27.959  18.447   8.914  0.00  0.00    -0.424 N 
HETATM    3  H   UNK N   1      28.243  17.947   9.757  0.00  0.00     0.150 HD
HETATM    4  H   UNK N   1      27.173  19.095   8.969  0.00  0.00     0.150 HD
ENDBRANCH   1   2
BRANCH   1   5
HETATM    5  C   UNK N   1      27.673  17.777   6.577  0.00  0.00     0.032 C 
BRANCH   5   6
HETATM    6  C   UNK N   1      26.853  18.928   6.024  0.00  0.00    -0.005 C 
BRANCH   6   7
HETATM    7  C   UNK N   1      27.797  20.105   5.730  0.00  0.00    -0.018 C 
HETATM    8  C   UNK N   1      28.199  20.146   4.271  0.00  0.00     0.010 C 
HETATM    9  C   UNK N   1      27.149  21.441   6.063  0.00  0.00     0.010 C 
ENDBRANCH   6   7
BRANCH   6  10
HETATM   10  C   UNK N   1      26.216  18.401   4.743  0.00  0.00     0.043 C 
BRANCH  10  11
HETATM   11  C   UNK N   1      24.888  18.973   4.364  0.00  0.00    -0.055 A 
HETATM   12  C   UNK N   1      23.728  18.246   4.649  0.00  0.00     0.046 A 
HETATM   13  C   UNK N   1      22.487  18.636   4.108  0.00  0.00     0.102 A 
HETATM   14  C   UNK N   1      22.425  19.753   3.263  0.00  0.00     0.101 A 
HETATM   15  C   UNK N   1      23.587  20.509   3.025  0.00  0.00     0.040 A 
HETATM   16  C   UNK N   1      24.809  20.116   3.569  0.00  0.00     0.010 A 
BRANCH  13  17
HETATM   17  O   UNK N   1      21.357  17.929   4.360  0.00  0.00    -0.348 OA
BRANCH  17  18
HETATM   18  C   UNK N   1      21.200  16.629   3.939  0.00  0.00     0.178 C 
BRANCH  18  19
HETATM   19  C   UNK N   1      20.268  16.531   2.754  0.00  0.00     0.053 C 
BRANCH  19  20
HETATM   20  C   UNK N   1      20.934  15.604   1.754  0.00  0.00     0.169 C 
BRANCH  20  21
HETATM   21  O   UNK N   1      20.882  16.146   0.473  0.00  0.00    -0.396 OA
HETATM   22  C   UNK N   1      19.579  16.630   0.356  0.00  0.00     0.201 C 
ENDBRANCH  20  21
ENDBRANCH  19  20
ENDBRANCH  18  19
ENDBRANCH  17  18
ENDBRANCH  13  17
BRANCH  14  23
HETATM   23  O   UNK N   1      21.250  20.069   2.669  0.00  0.00    -0.353 OA
HETATM   24  C   UNK N   1      21.065  20.015   1.306  0.00  0.00     0.210 C 
ENDBRANCH  14  23
ENDBRANCH  10  11
ENDBRANCH   6  10
ENDBRANCH   5   6
ENDBRANCH   1   5
BRANCH   1  25
HETATM   25  C   UNK N   1      29.760  17.272   7.763  0.00  0.00     0.141 C 
BRANCH  25  26
HETATM   26  O   UNK N   1      30.950  17.928   8.104  0.00  0.00    -0.394 OA
HETATM   27  H   UNK N   1      31.646  18.120   8.752  0.00  0.00     0.210 HD
ENDBRANCH  25  26
BRANCH  25  28
HETATM   28  C   UNK N   1      29.866  16.447   6.477  0.00  0.00     0.048 C 
BRANCH  28  29
HETATM   29  C   UNK N   1      30.869  16.959   5.436  0.00  0.00     0.083 C 
BRANCH  29  30
HETATM   30  C   UNK N   1      30.586  16.494   3.976  0.00  0.00    -0.010 C 
HETATM   31  C   UNK N   1      29.199  16.767   3.421  0.00  0.00     0.010 C 
HETATM   32  C   UNK N   1      30.939  15.043   3.722  0.00  0.00     0.010 C 
ENDBRANCH  29  30
BRANCH  29  33
HETATM   33  C   UNK N   1      32.291  16.917   5.955  0.00  0.00     0.222 C 
HETATM   34  O   UNK N   1      33.095  17.785   5.629  0.00  0.00    -0.273 OA
HETATM   35  N   UNK N   1      32.702  15.874   6.709  0.00  0.00    -0.360 N 
HETATM   36  H   UNK N   1      32.056  15.173   6.954  0.00  0.00     0.162 HD
BRANCH  35  37
HETATM   37  C   UNK N   1      34.069  15.765   7.161  0.00  0.00     0.141 C 
BRANCH  37  38
HETATM   38  C   UNK N   1      34.147  15.639   8.681  0.00  0.00     0.049 C 
HETATM   39  C   UNK N   1      35.273  14.689   9.066  0.00  0.00     0.027 C 
HETATM   40  C   UNK N   1      32.842  15.012   9.147  0.00  0.00     0.027 C 
BRANCH  38  41
HETATM   41  C   UNK N   1      34.376  16.993   9.326  0.00  0.00     0.225 C 
HETATM   42  O   UNK N   1      34.059  18.013   8.734  0.00  0.00    -0.273 OA
HETATM   43  N   UNK N   1      34.933  17.091  10.551  0.00  0.00    -0.369 N 
HETATM   44  H   UNK N   1      35.507  17.855  10.789  0.00  0.00     0.159 HD
HETATM   45  H   UNK N   1      34.763  16.387  11.218  0.00  0.00     0.159 HD
ENDBRANCH  38  41
ENDBRANCH  37  38
ENDBRANCH  35  37
ENDBRANCH  29  33
ENDBRANCH  28  29
ENDBRANCH  25  28
ENDBRANCH   1  25
TORSDOF 21
ENDMDL
MODEL 7
REMARK VINA RESULT:      -6.5      2.083      3.203
REMARK  21 active torsions:
REMARK  status: ('A' for Active; 'I' for Inactive)
REMARK    1  A    between atoms: C_13  and  O_1 
REMARK    2  A    between atoms: O_3  and  C_29 
REMARK    3  A    between atoms: O_3  and  C_35 
REMARK    4  A    between atoms: O_4  and  C_33 
REMARK    5  A    between atoms: O_6  and  C_38 
REMARK    6  A    between atoms: C_12  and  N_7 
REMARK       I    between atoms: N_8  and  C_21 
REMARK    7  A    between atoms: N_8  and  C_25 
REMARK       I    between atoms: N_9  and  C_34 
REMARK    8  A    between atoms: C_10  and  C_11 
REMARK    9  A    between atoms: C_10  and  C_14 
REMARK   10  A    between atoms: C_10  and  C_17 
REMARK   11  A    between atoms: C_11  and  C_12 
REMARK   12  A    between atoms: C_12  and  C_13 
REMARK   13  A    between atoms: C_13  and  C_15 
REMARK   14  A    between atoms: C_16  and  C_15 
REMARK   15  A    between atoms: C_16  and  C_18 
REMARK   16  A    between atoms: C_16  and  C_21 
REMARK   17  A    between atoms: C_17  and  C_22 
REMARK   18  A    between atoms: C_25  and  C_26 
REMARK   19  A    between atoms: C_26  and  C_34 
REMARK   20  A    between atoms: C_35  and  C_36 
REMARK   21  A    between atoms: C_36  and  C_38 
ROOT
HETATM    1  C   UNK N   1      28.520  18.437   8.121  0.00  0.00     0.103 C 
ENDROOT
BRANCH   1   2
HETATM    2  N   UNK N   1      27.503  18.467   9.165  0.00  0.00    -0.424 N 
HETATM    3  H   UNK N   1      27.734  18.422  10.158  0.00  0.00     0.150 HD
HETATM    4  H   UNK N   1      26.522  18.535   8.893  0.00  0.00     0.150 HD
ENDBRANCH   1   2
BRANCH   1   5
HETATM    5  C   UNK N   1      27.941  17.946   6.814  0.00  0.00     0.032 C 
BRANCH   5   6
HETATM    6  C   UNK N   1      27.014  18.988   6.216  0.00  0.00    -0.005 C 
BRANCH   6   7
HETATM    7  C   UNK N   1      27.851  20.211   5.808  0.00  0.00    -0.018 C 
HETATM    8  C   UNK N   1      28.241  20.156   4.346  0.00  0.00     0.010 C 
HETATM    9  C   UNK N   1      27.090  21.511   6.029  0.00  0.00     0.010 C 
ENDBRANCH   6   7
BRANCH   6  10
HETATM   10  C   UNK N   1      26.379  18.325   5.000  0.00  0.00     0.043 C 
BRANCH  10  11
HETATM   11  C   UNK N   1      25.005  18.778   4.624  0.00  0.00    -0.055 A 
HETATM   12  C   UNK N   1      23.909  17.973   4.953  0.00  0.00     0.046 A 
HETATM   13  C   UNK N   1      22.634  18.246   4.421  0.00  0.00     0.102 A 
HETATM   14  C   UNK N   1      22.473  19.323   3.538  0.00  0.00     0.101 A 
HETATM   15  C   UNK N   1      23.568  20.159   3.255  0.00  0.00     0.040 A 
HETATM   16  C   UNK N   1      24.825  19.882   3.791  0.00  0.00     0.010 A 
BRANCH  13  17
HETATM   17  O   UNK N   1      21.567  17.463   4.716  0.00  0.00    -0.348 OA
BRANCH  17  18
HETATM   18  C   UNK N   1      21.399  16.216   4.158  0.00  0.00     0.178 C 
BRANCH  18  19
HETATM   19  C   UNK N   1      20.299  16.207   3.122  0.00  0.00     0.053 C 
BRANCH  19  20
HETATM   20  C   UNK N   1      19.743  14.796   3.094  0.00  0.00     0.169 C 
BRANCH  20  21
HETATM   21  O   UNK N   1      18.788  14.624   4.093  0.00  0.00    -0.396 OA
HETATM   22  C   UNK N   1      18.973  13.311   4.525  0.00  0.00     0.201 C 
ENDBRANCH  20  21
ENDBRANCH  19  20
ENDBRANCH  18  19
ENDBRANCH  17  18
ENDBRANCH  13  17
BRANCH  14  23
HETATM   23  O   UNK N   1      21.268  19.526   2.954  0.00  0.00    -0.353 OA
HETATM   24  C   UNK N   1      21.129  20.109   1.715  0.00  0.00     0.210 C 
ENDBRANCH  14  23
ENDBRANCH  10  11
ENDBRANCH   6  10
ENDBRANCH   5   6
ENDBRANCH   1   5
BRANCH   1  25
HETATM   25  C   UNK N   1      29.657  17.526   8.516  0.00  0.00     0.141 C 
BRANCH  25  26
HETATM   26  O   UNK N   1      30.494  18.170   9.438  0.00  0.00    -0.394 OA
HETATM   27  H   UNK N   1      30.742  18.358  10.356  0.00  0.00     0.210 HD
ENDBRANCH  25  26
BRANCH  25  28
HETATM   28  C   UNK N   1      30.389  17.043   7.261  0.00  0.00     0.048 C 
BRANCH  28  29
HETATM   29  C   UNK N   1      31.921  17.067   7.331  0.00  0.00     0.083 C 
BRANCH  29  30
HETATM   30  C   UNK N   1      32.629  17.434   5.992  0.00  0.00    -0.010 C 
HETATM   31  C   UNK N   1      31.917  17.049   4.707  0.00  0.00     0.010 C 
HETATM   32  C   UNK N   1      34.066  16.961   5.916  0.00  0.00     0.010 C 
ENDBRANCH  29  30
BRANCH  29  33
HETATM   33  C   UNK N   1      32.466  15.921   8.157  0.00  0.00     0.222 C 
HETATM   34  O   UNK N   1      32.278  14.760   7.807  0.00  0.00    -0.273 OA
HETATM   35  N   UNK N   1      33.085  16.172   9.331  0.00  0.00    -0.360 N 
HETATM   36  H   UNK N   1      33.219  17.106   9.615  0.00  0.00     0.162 HD
BRANCH  35  37
HETATM   37  C   UNK N   1      33.554  15.102  10.179  0.00  0.00     0.141 C 
BRANCH  37  38
HETATM   38  C   UNK N   1      35.024  15.284  10.550  0.00  0.00     0.049 C 
HETATM   39  C   UNK N   1      35.370  16.767  10.585  0.00  0.00     0.027 C 
HETATM   40  C   UNK N   1      35.849  14.650   9.442  0.00  0.00     0.027 C 
BRANCH  38  41
HETATM   41  C   UNK N   1      35.324  14.657  11.898  0.00  0.00     0.225 C 
HETATM   42  O   UNK N   1      34.550  13.844  12.379  0.00  0.00    -0.273 OA
HETATM   43  N   UNK N   1      36.438  14.989  12.584  0.00  0.00    -0.369 N 
HETATM   44  H   UNK N   1      36.443  15.005  13.568  0.00  0.00     0.159 HD
HETATM   45  H   UNK N   1      37.259  15.218  12.091  0.00  0.00     0.159 HD
ENDBRANCH  38  41
ENDBRANCH  37  38
ENDBRANCH  35  37
ENDBRANCH  29  33
ENDBRANCH  28  29
ENDBRANCH  25  28
ENDBRANCH   1  25
TORSDOF 21
ENDMDL
MODEL 8
REMARK VINA RESULT:      -6.4      1.670      2.311
REMARK  21 active torsions:
REMARK  status: ('A' for Active; 'I' for Inactive)
REMARK    1  A    between atoms: C_13  and  O_1 
REMARK    2  A    between atoms: O_3  and  C_29 
REMARK    3  A    between atoms: O_3  and  C_35 
REMARK    4  A    between atoms: O_4  and  C_33 
REMARK    5  A    between atoms: O_6  and  C_38 
REMARK    6  A    between atoms: C_12  and  N_7 
REMARK       I    between atoms: N_8  and  C_21 
REMARK    7  A    between atoms: N_8  and  C_25 
REMARK       I    between atoms: N_9  and  C_34 
REMARK    8  A    between atoms: C_10  and  C_11 
REMARK    9  A    between atoms: C_10  and  C_14 
REMARK   10  A    between atoms: C_10  and  C_17 
REMARK   11  A    between atoms: C_11  and  C_12 
REMARK   12  A    between atoms: C_12  and  C_13 
REMARK   13  A    between atoms: C_13  and  C_15 
REMARK   14  A    between atoms: C_16  and  C_15 
REMARK   15  A    between atoms: C_16  and  C_18 
REMARK   16  A    between atoms: C_16  and  C_21 
REMARK   17  A    between atoms: C_17  and  C_22 
REMARK   18  A    between atoms: C_25  and  C_26 
REMARK   19  A    between atoms: C_26  and  C_34 
REMARK   20  A    between atoms: C_35  and  C_36 
REMARK   21  A    between atoms: C_36  and  C_38 
ROOT
HETATM    1  C   UNK N   1      28.902  18.526   8.016  0.00  0.00     0.103 C 
ENDROOT
BRANCH   1   2
HETATM    2  N   UNK N   1      27.653  18.555   8.768  0.00  0.00    -0.424 N 
HETATM    3  H   UNK N   1      26.833  18.014   8.490  0.00  0.00     0.150 HD
HETATM    4  H   UNK N   1      27.596  19.137   9.603  0.00  0.00     0.150 HD
ENDBRANCH   1   2
BRANCH   1   5
HETATM    5  C   UNK N   1      28.661  18.114   6.581  0.00  0.00     0.032 C 
BRANCH   5   6
HETATM    6  C   UNK N   1      27.320  18.635   6.095  0.00  0.00    -0.005 C 
BRANCH   6   7
HETATM    7  C   UNK N   1      27.513  20.063   5.561  0.00  0.00    -0.018 C 
HETATM    8  C   UNK N   1      27.380  20.117   4.053  0.00  0.00     0.010 C 
HETATM    9  C   UNK N   1      26.488  21.025   6.145  0.00  0.00     0.010 C 
ENDBRANCH   6   7
BRANCH   6  10
HETATM   10  C   UNK N   1      26.889  17.685   4.984  0.00  0.00     0.043 C 
BRANCH  10  11
HETATM   11  C   UNK N   1      25.622  16.922   5.201  0.00  0.00    -0.055 A 
HETATM   12  C   UNK N   1      24.428  17.420   4.669  0.00  0.00     0.046 A 
HETATM   13  C   UNK N   1      23.190  16.861   5.041  0.00  0.00     0.102 A 
HETATM   14  C   UNK N   1      23.160  15.811   5.969  0.00  0.00     0.101 A 
HETATM   15  C   UNK N   1      24.367  15.282   6.458  0.00  0.00     0.040 A 
HETATM   16  C   UNK N   1      25.588  15.840   6.079  0.00  0.00     0.010 A 
BRANCH  13  17
HETATM   17  O   UNK N   1      22.023  17.346   4.548  0.00  0.00    -0.348 OA
BRANCH  17  18
HETATM   18  C   UNK N   1      21.579  17.036   3.283  0.00  0.00     0.178 C 
BRANCH  18  19
HETATM   19  C   UNK N   1      20.178  17.547   3.038  0.00  0.00     0.053 C 
BRANCH  19  20
HETATM   20  C   UNK N   1      20.242  19.058   3.158  0.00  0.00     0.169 C 
BRANCH  20  21
HETATM   21  O   UNK N   1      20.865  19.612   2.043  0.00  0.00    -0.396 OA
HETATM   22  C   UNK N   1      21.698  20.600   2.569  0.00  0.00     0.201 C 
ENDBRANCH  20  21
ENDBRANCH  19  20
ENDBRANCH  18  19
ENDBRANCH  17  18
ENDBRANCH  13  17
BRANCH  14  23
HETATM   23  O   UNK N   1      21.965  15.340   6.397  0.00  0.00    -0.353 OA
HETATM   24  C   UNK N   1      21.427  15.671   7.620  0.00  0.00     0.210 C 
ENDBRANCH  14  23
ENDBRANCH  10  11
ENDBRANCH   6  10
ENDBRANCH   5   6
ENDBRANCH   1   5
BRANCH   1  25
HETATM   25  C   UNK N   1      29.872  17.552   8.638  0.00  0.00     0.141 C 
BRANCH  25  26
HETATM   26  O   UNK N   1      30.863  18.246   9.347  0.00  0.00    -0.394 OA
HETATM   27  H   UNK N   1      31.580  18.249  10.000  0.00  0.00     0.210 HD
ENDBRANCH  25  26
BRANCH  25  28
HETATM   28  C   UNK N   1      30.432  16.622   7.559  0.00  0.00     0.048 C 
BRANCH  28  29
HETATM   29  C   UNK N   1      31.961  16.581   7.441  0.00  0.00     0.083 C 
BRANCH  29  30
HETATM   30  C   UNK N   1      32.505  16.711   5.986  0.00  0.00    -0.010 C 
HETATM   31  C   UNK N   1      33.811  17.464   5.801  0.00  0.00     0.010 C 
HETATM   32  C   UNK N   1      31.486  17.248   5.002  0.00  0.00     0.010 C 
ENDBRANCH  29  30
BRANCH  29  33
HETATM   33  C   UNK N   1      32.570  15.544   8.361  0.00  0.00     0.222 C 
HETATM   34  O   UNK N   1      32.351  14.350   8.180  0.00  0.00    -0.273 OA
HETATM   35  N   UNK N   1      33.285  15.937   9.438  0.00  0.00    -0.360 N 
HETATM   36  H   UNK N   1      33.444  16.897   9.586  0.00  0.00     0.162 HD
BRANCH  35  37
HETATM   37  C   UNK N   1      33.820  14.978  10.376  0.00  0.00     0.141 C 
BRANCH  37  38
HETATM   38  C   UNK N   1      35.256  15.322  10.769  0.00  0.00     0.049 C 
HETATM   39  C   UNK N   1      35.534  14.842  12.188  0.00  0.00     0.027 C 
HETATM   40  C   UNK N   1      35.370  16.838  10.771  0.00  0.00     0.027 C 
BRANCH  38  41
HETATM   41  C   UNK N   1      36.246  14.688   9.811  0.00  0.00     0.225 C 
HETATM   42  O   UNK N   1      35.876  14.315   8.709  0.00  0.00    -0.273 OA
HETATM   43  N   UNK N   1      37.539  14.524  10.160  0.00  0.00    -0.369 N 
HETATM   44  H   UNK N   1      38.061  13.757   9.831  0.00  0.00     0.159 HD
HETATM   45  H   UNK N   1      37.967  15.182  10.754  0.00  0.00     0.159 HD
ENDBRANCH  38  41
ENDBRANCH  37  38
ENDBRANCH  35  37
ENDBRANCH  29  33
ENDBRANCH  28  29
ENDBRANCH  25  28
ENDBRANCH   1  25
TORSDOF 21
ENDMDL
MODEL 9
REMARK VINA RESULT:      -6.2      4.962      8.671
REMARK  21 active torsions:
REMARK  status: ('A' for Active; 'I' for Inactive)
REMARK    1  A    between atoms: C_13  and  O_1 
REMARK    2  A    between atoms: O_3  and  C_29 
REMARK    3  A    between atoms: O_3  and  C_35 
REMARK    4  A    between atoms: O_4  and  C_33 
REMARK    5  A    between atoms: O_6  and  C_38 
REMARK    6  A    between atoms: C_12  and  N_7 
REMARK       I    between atoms: N_8  and  C_21 
REMARK    7  A    between atoms: N_8  and  C_25 
REMARK       I    between atoms: N_9  and  C_34 
REMARK    8  A    between atoms: C_10  and  C_11 
REMARK    9  A    between atoms: C_10  and  C_14 
REMARK   10  A    between atoms: C_10  and  C_17 
REMARK   11  A    between atoms: C_11  and  C_12 
REMARK   12  A    between atoms: C_12  and  C_13 
REMARK   13  A    between atoms: C_13  and  C_15 
REMARK   14  A    between atoms: C_16  and  C_15 
REMARK   15  A    between atoms: C_16  and  C_18 
REMARK   16  A    between atoms: C_16  and  C_21 
REMARK   17  A    between atoms: C_17  and  C_22 
REMARK   18  A    between atoms: C_25  and  C_26 
REMARK   19  A    between atoms: C_26  and  C_34 
REMARK   20  A    between atoms: C_35  and  C_36 
REMARK   21  A    between atoms: C_36  and  C_38 
ROOT
HETATM    1  C   UNK N   1      28.928  16.933   4.020  0.00  0.00     0.103 C 
ENDROOT
BRANCH   1   2
HETATM    2  N   UNK N   1      30.095  17.107   3.163  0.00  0.00    -0.424 N 
HETATM    3  H   UNK N   1      30.788  17.839   3.323  0.00  0.00     0.150 HD
HETATM    4  H   UNK N   1      30.223  16.473   2.374  0.00  0.00     0.150 HD
ENDBRANCH   1   2
BRANCH   1   5
HETATM    5  C   UNK N   1      28.832  18.046   5.038  0.00  0.00     0.032 C 
BRANCH   5   6
HETATM    6  C   UNK N   1      27.382  18.418   5.287  0.00  0.00    -0.005 C 
BRANCH   6   7
HETATM    7  C   UNK N   1      27.334  19.505   6.373  0.00  0.00    -0.018 C 
HETATM    8  C   UNK N   1      28.222  19.157   7.549  0.00  0.00     0.010 C 
HETATM    9  C   UNK N   1      27.793  20.854   5.838  0.00  0.00     0.010 C 
ENDBRANCH   6   7
BRANCH   6  10
HETATM   10  C   UNK N   1      26.858  18.946   3.957  0.00  0.00     0.043 C 
BRANCH  10  11
HETATM   11  C   UNK N   1      25.406  19.295   3.893  0.00  0.00    -0.055 A 
HETATM   12  C   UNK N   1      24.471  18.415   4.449  0.00  0.00     0.046 A 
HETATM   13  C   UNK N   1      23.094  18.589   4.210  0.00  0.00     0.102 A 
HETATM   14  C   UNK N   1      22.665  19.642   3.390  0.00  0.00     0.101 A 
HETATM   15  C   UNK N   1      23.607  20.552   2.879  0.00  0.00     0.040 A 
HETATM   16  C   UNK N   1      24.968  20.373   3.126  0.00  0.00     0.010 A 
BRANCH  13  17
HETATM   17  O   UNK N   1      22.177  17.733   4.727  0.00  0.00    -0.348 OA
BRANCH  17  18
HETATM   18  C   UNK N   1      21.818  17.761   6.055  0.00  0.00     0.178 C 
BRANCH  18  19
HETATM   19  C   UNK N   1      21.733  16.372   6.643  0.00  0.00     0.053 C 
BRANCH  19  20
HETATM   20  C   UNK N   1      20.426  15.775   6.155  0.00  0.00     0.169 C 
BRANCH  20  21
HETATM   21  O   UNK N   1      19.959  14.817   7.051  0.00  0.00    -0.396 OA
HETATM   22  C   UNK N   1      20.693  13.671   6.744  0.00  0.00     0.201 C 
ENDBRANCH  20  21
ENDBRANCH  19  20
ENDBRANCH  18  19
ENDBRANCH  17  18
ENDBRANCH  13  17
BRANCH  14  23
HETATM   23  O   UNK N   1      21.350  19.751   3.085  0.00  0.00    -0.353 OA
HETATM   24  C   UNK N   1      20.897  20.408   1.963  0.00  0.00     0.210 C 
ENDBRANCH  14  23
ENDBRANCH  10  11
ENDBRANCH   6  10
ENDBRANCH   5   6
ENDBRANCH   1   5
BRANCH   1  25
HETATM   25  C   UNK N   1      29.002  15.616   4.754  0.00  0.00     0.141 C 
BRANCH  25  26
HETATM   26  O   UNK N   1      30.307  15.107   4.700  0.00  0.00    -0.394 OA
HETATM   27  H   UNK N   1      31.264  15.256   4.656  0.00  0.00     0.210 HD
ENDBRANCH  25  26
BRANCH  25  28
HETATM   28  C   UNK N   1      27.949  14.655   4.196  0.00  0.00     0.048 C 
BRANCH  28  29
HETATM   29  C   UNK N   1      26.497  15.143   4.266  0.00  0.00     0.083 C 
BRANCH  29  30
HETATM   30  C   UNK N   1      25.689  14.610   5.488  0.00  0.00    -0.010 C 
HETATM   31  C   UNK N   1      25.733  15.438   6.760  0.00  0.00     0.010 C 
HETATM   32  C   UNK N   1      25.993  13.166   5.833  0.00  0.00     0.010 C 
ENDBRANCH  29  30
BRANCH  29  33
HETATM   33  C   UNK N   1      25.839  15.153   2.903  0.00  0.00     0.222 C 
HETATM   34  O   UNK N   1      25.958  16.126   2.164  0.00  0.00    -0.273 OA
HETATM   35  N   UNK N   1      25.044  14.126   2.531  0.00  0.00    -0.360 N 
HETATM   36  H   UNK N   1      24.939  13.355   3.135  0.00  0.00     0.162 HD
BRANCH  35  37
HETATM   37  C   UNK N   1      24.344  14.135   1.268  0.00  0.00     0.141 C 
BRANCH  37  38
HETATM   38  C   UNK N   1      22.888  13.702   1.431  0.00  0.00     0.049 C 
HETATM   39  C   UNK N   1      22.747  12.807   2.655  0.00  0.00     0.027 C 
HETATM   40  C   UNK N   1      22.529  12.867   0.212  0.00  0.00     0.027 C 
BRANCH  38  41
HETATM   41  C   UNK N   1      21.978  14.907   1.570  0.00  0.00     0.225 C 
HETATM   42  O   UNK N   1      21.319  15.288   0.616  0.00  0.00    -0.273 OA
HETATM   43  N   UNK N   1      21.887  15.574   2.739  0.00  0.00    -0.369 N 
HETATM   44  H   UNK N   1      21.727  16.545   2.760  0.00  0.00     0.159 HD
HETATM   45  H   UNK N   1      21.982  15.081   3.586  0.00  0.00     0.159 HD
ENDBRANCH  38  41
ENDBRANCH  37  38
ENDBRANCH  35  37
ENDBRANCH  29  33
ENDBRANCH  28  29
ENDBRANCH  25  28
ENDBRANCH   1  25
TORSDOF 21
ENDMDL
