REMARK  21 active torsions:
REMARK  status: ('A' for Active; 'I' for Inactive)
REMARK    1  A    between atoms: C_13  and  O_1 
REMARK    2  A    between atoms: O_3  and  C_29 
REMARK    3  A    between atoms: O_3  and  C_35 
REMARK    4  A    between atoms: O_4  and  C_33 
REMARK    5  A    between atoms: O_6  and  C_38 
REMARK    6  A    between atoms: C_12  and  N_7 
REMARK       I    between atoms: N_8  and  C_21 
REMARK    7  A    between atoms: N_8  and  C_25 
REMARK       I    between atoms: N_9  and  C_34 
REMARK    8  A    between atoms: C_10  and  C_11 
REMARK    9  A    between atoms: C_10  and  C_14 
REMARK   10  A    between atoms: C_10  and  C_17 
REMARK   11  A    between atoms: C_11  and  C_12 
REMARK   12  A    between atoms: C_12  and  C_13 
REMARK   13  A    between atoms: C_13  and  C_15 
REMARK   14  A    between atoms: C_16  and  C_15 
REMARK   15  A    between atoms: C_16  and  C_18 
REMARK   16  A    between atoms: C_16  and  C_21 
REMARK   17  A    between atoms: C_17  and  C_22 
REMARK   18  A    between atoms: C_25  and  C_26 
REMARK   19  A    between atoms: C_26  and  C_34 
REMARK   20  A    between atoms: C_35  and  C_36 
REMARK   21  A    between atoms: C_36  and  C_38 
ROOT
HETATM    1  C   UNK N   1       6.175  -2.887  -0.258  0.00  0.00     0.103 C 
ENDROOT
BRANCH   1   2
HETATM    2  N   UNK N   1       6.322  -1.492   0.140  0.00  0.00    -0.424 N 
HETATM    3  H   UNK N   1       7.219  -1.093   0.418  0.00  0.00     0.150 HD
HETATM    4  H   UNK N   1       5.497  -0.892   0.140  0.00  0.00     0.150 HD
ENDBRANCH   1   2
BRANCH   1   5
HETATM    5  C   UNK N   1       5.256  -3.626   0.688  0.00  0.00     0.032 C 
BRANCH   5   6
HETATM    6  C   UNK N   1       3.807  -3.267   0.413  0.00  0.00    -0.005 C 
BRANCH   6   7
HETATM    7  C   UNK N   1       2.914  -4.410   0.922  0.00  0.00    -0.018 C 
HETATM    8  C   UNK N   1       1.460  -4.181   0.567  0.00  0.00     0.010 C 
HETATM    9  C   UNK N   1       3.324  -5.750   0.328  0.00  0.00     0.010 C 
ENDBRANCH   6   7
BRANCH   6  10
HETATM   10  C   UNK N   1       3.548  -1.980   1.187  0.00  0.00     0.043 C 
BRANCH  10  11
HETATM   11  C   UNK N   1       2.715  -0.940   0.509  0.00  0.00    -0.055 A 
HETATM   12  C   UNK N   1       3.254   0.334   0.302  0.00  0.00     0.046 A 
HETATM   13  C   UNK N   1       2.434   1.399  -0.119  0.00  0.00     0.102 A 
HETATM   14  C   UNK N   1       1.063   1.178  -0.311  0.00  0.00     0.101 A 
HETATM   15  C   UNK N   1       0.540  -0.118  -0.152  0.00  0.00     0.040 A 
HETATM   16  C   UNK N   1       1.362  -1.166   0.261  0.00  0.00     0.010 A 
BRANCH  13  17
HETATM   17  O   UNK N   1       2.939   2.644  -0.305  0.00  0.00    -0.348 OA
BRANCH  17  18
HETATM   18  C   UNK N   1       4.286   2.869  -0.472  0.00  0.00     0.178 C 
BRANCH  18  19
HETATM   19  C   UNK N   1       4.861   3.698   0.653  0.00  0.00     0.053 C 
BRANCH  19  20
HETATM   20  C   UNK N   1       6.369   3.558   0.567  0.00  0.00     0.169 C 
BRANCH  20  21
HETATM   21  O   UNK N   1       6.996   4.486   1.394  0.00  0.00    -0.396 OA
HETATM   22  C   UNK N   1       7.765   5.259   0.524  0.00  0.00     0.201 C 
ENDBRANCH  20  21
ENDBRANCH  19  20
ENDBRANCH  18  19
ENDBRANCH  17  18
ENDBRANCH  13  17
BRANCH  14  23
HETATM   23  O   UNK N   1       0.261   2.223  -0.623  0.00  0.00    -0.353 OA
HETATM   24  C   UNK N   1      -1.111   2.165  -0.527  0.00  0.00     0.210 C 
ENDBRANCH  14  23
ENDBRANCH  10  11
ENDBRANCH   6  10
ENDBRANCH   5   6
ENDBRANCH   1   5
BRANCH   1  25
HETATM   25  C   UNK N   1       7.516  -3.580  -0.264  0.00  0.00     0.141 C 
BRANCH  25  26
HETATM   26  O   UNK N   1       8.197  -3.323   0.934  0.00  0.00    -0.394 OA
HETATM   27  H   UNK N   1       8.587  -3.643   1.762  0.00  0.00     0.210 HD
ENDBRANCH  25  26
BRANCH  25  28
HETATM   28  C   UNK N   1       8.302  -3.170  -1.512  0.00  0.00     0.048 C 
BRANCH  28  29
HETATM   29  C   UNK N   1       9.815  -3.414  -1.458  0.00  0.00     0.083 C 
BRANCH  29  30
HETATM   30  C   UNK N   1      10.227  -4.901  -1.239  0.00  0.00    -0.010 C 
HETATM   31  C   UNK N   1       9.559  -5.642  -0.094  0.00  0.00     0.010 C 
HETATM   32  C   UNK N   1      11.725  -5.109  -1.149  0.00  0.00     0.010 C 
ENDBRANCH  29  30
BRANCH  29  33
HETATM   33  C   UNK N   1      10.533  -2.333  -0.678  0.00  0.00     0.222 C 
HETATM   34  O   UNK N   1       9.896  -1.516  -0.020  0.00  0.00    -0.273 OA
HETATM   35  N   UNK N   1      11.875  -2.211  -0.776  0.00  0.00    -0.360 N 
HETATM   36  H   UNK N   1      12.379  -2.860  -1.318  0.00  0.00     0.162 HD
BRANCH  35  37
HETATM   37  C   UNK N   1      12.585  -1.149  -0.103  0.00  0.00     0.141 C 
BRANCH  37  38
HETATM   38  C   UNK N   1      13.367  -1.673   1.100  0.00  0.00     0.049 C 
HETATM   39  C   UNK N   1      12.419  -2.351   2.080  0.00  0.00     0.027 C 
HETATM   40  C   UNK N   1      13.966  -0.467   1.806  0.00  0.00     0.027 C 
BRANCH  38  41
HETATM   41  C   UNK N   1      14.439  -2.653   0.663  0.00  0.00     0.225 C 
HETATM   42  O   UNK N   1      14.127  -3.683   0.087  0.00  0.00    -0.273 OA
HETATM   43  N   UNK N   1      15.743  -2.406   0.907  0.00  0.00    -0.369 N 
HETATM   44  H   UNK N   1      16.375  -3.140   1.085  0.00  0.00     0.159 HD
HETATM   45  H   UNK N   1      16.068  -1.477   0.907  0.00  0.00     0.159 HD
ENDBRANCH  38  41
ENDBRANCH  37  38
ENDBRANCH  35  37
ENDBRANCH  29  33
ENDBRANCH  28  29
ENDBRANCH  25  28
ENDBRANCH   1  25
TORSDOF 21
