MODEL 1
REMARK VINA RESULT:      -9.1      0.000      0.000
REMARK  11 active torsions:
REMARK  status: ('A' for Active; 'I' for Inactive)
REMARK    1  A    between atoms: S_2  and  C_15 
REMARK    2  A    between atoms: O_7  and  C_33 
REMARK    3  A    between atoms: O_7  and  C_36 
REMARK    4  A    between atoms: N_8  and  C_14 
REMARK    5  A    between atoms: N_8  and  C_16 
REMARK    6  A    between atoms: N_9  and  C_26 
REMARK    7  A    between atoms: N_9  and  C_29 
REMARK    8  A    between atoms: C_14  and  C_15 
REMARK    9  A    between atoms: C_16  and  C_17 
REMARK   10  A    between atoms: C_18  and  C_19 
REMARK   11  A    between atoms: C_36  and  C_37 
ROOT
HETATM    1  N   UNK N   1      22.400  20.087   3.050  0.00  0.00    -0.352 N 
ATOM      2  HN  UNK N   1      22.222  21.015   2.664  1.00  0.00     0.166 HD
HETATM    3  N   UNK N   1      21.583  17.959   3.745  0.00  0.00    -0.338 N 
ATOM      4  HN  UNK N   1      20.807  17.306   3.858  1.00  0.00     0.168 HD
HETATM    5  C   UNK N   1      26.239  18.802   4.027  0.00  0.00    -0.001 A 
HETATM    6  C   UNK N   1      23.878  18.468   3.937  0.00  0.00     0.036 A 
HETATM    7  C   UNK N   1      25.119  18.048   4.239  0.00  0.00     0.031 A 
HETATM    8  C   UNK N   1      23.664  19.730   3.391  0.00  0.00     0.047 A 
HETATM    9  C   UNK N   1      26.095  20.103   3.501  0.00  0.00     0.016 A 
HETATM   10  C   UNK N   1      22.831  17.595   4.114  0.00  0.00     0.119 A 
HETATM   11  C   UNK N   1      24.787  20.576   3.190  0.00  0.00     0.031 A 
HETATM   12  C   UNK N   1      21.359  19.208   3.221  0.00  0.00     0.182 A 
ENDROOT
BRANCH  10  13
HETATM   13  N   UNK N   1      23.131  16.309   4.662  0.00  0.00    -0.342 N 
HETATM   14  H   UNK N   1      23.959  15.865   4.370  0.00  0.00     0.167 HD
BRANCH  13  15
HETATM   15  C   UNK N   1      22.315  15.638   5.593  0.00  0.00     0.035 A 
HETATM   16  C   UNK N   1      22.071  14.269   5.427  0.00  0.00     0.056 A 
HETATM   17  C   UNK N   1      21.339  13.564   6.388  0.00  0.00     0.069 A 
HETATM   18 Cl   UNK N   1      21.114  11.833   6.195  0.00  0.00    -0.081 Cl
HETATM   19  C   UNK N   1      20.873  14.234   7.531  0.00  0.00     0.091 A 
HETATM   20  C   UNK N   1      21.054  15.623   7.639  0.00  0.00     0.041 A 
HETATM   21  C   UNK N   1      21.760  16.320   6.673  0.00  0.00     0.032 A 
BRANCH  19  22
HETATM   22  O   UNK N   1      20.311  13.537   8.547  0.00  0.00    -0.345 OA
BRANCH  22  23
HETATM   23  C   UNK N   1      20.567  13.872   9.862  0.00  0.00     0.214 C 
BRANCH  23  24
HETATM   24  C   UNK N   1      21.799  13.177  10.350  0.00  0.00    -0.031 A 
HETATM   25  C   UNK N   1      21.781  12.495  11.571  0.00  0.00     0.051 A 
HETATM   26  C   UNK N   1      22.944  11.891  12.057  0.00  0.00     0.117 A 
HETATM   27  F   UNK N   1      22.924  11.253  13.250  0.00  0.00    -0.206 F 
HETATM   28  C   UNK N   1      24.131  11.960  11.320  0.00  0.00     0.042 A 
HETATM   29  C   UNK N   1      24.153  12.633  10.094  0.00  0.00     0.004 A 
HETATM   30  C   UNK N   1      22.991  13.248   9.613  0.00  0.00     0.009 A 
ENDBRANCH  23  24
ENDBRANCH  22  23
ENDBRANCH  19  22
ENDBRANCH  13  15
ENDBRANCH  10  13
BRANCH   5  31
HETATM   31  C   UNK N   1      27.453  18.028   4.279  0.00  0.00     0.086 A 
HETATM   32  O   UNK N   1      27.899  17.991   5.508  0.00  0.00    -0.313 OA
HETATM   33  C   UNK N   1      28.901  17.198   5.599  0.00  0.00     0.071 A 
HETATM   34  C   UNK N   1      29.180  16.657   4.347  0.00  0.00     0.037 A 
HETATM   35  C   UNK N   1      28.221  17.201   3.481  0.00  0.00     0.040 A 
BRANCH  33  36
HETATM   36  C   UNK N   1      29.532  16.961   6.936  0.00  0.00     0.179 C 
BRANCH  36  37
HETATM   37  N   UNK N   1      30.960  17.156   6.917  0.00  0.00    -0.415 N 
HETATM   38  H   UNK N   1      31.568  17.159   6.099  0.00  0.00     0.153 HD
BRANCH  37  39
HETATM   39  C   UNK N   1      31.355  17.345   8.295  0.00  0.00     0.129 C 
BRANCH  39  40
HETATM   40  C   UNK N   1      32.536  18.277   8.310  0.00  0.00     0.159 C 
BRANCH  40  41
HETATM   41  S   UNK N   1      34.064  17.308   8.292  0.00  0.00     0.142 S 
HETATM   42  O   UNK N   1      35.049  17.721   9.399  0.00  0.00    -0.228 OA
HETATM   43  O   UNK N   1      34.688  18.270   7.283  0.00  0.00    -0.228 OA
HETATM   44  C   UNK N   1      34.651  15.857   7.380  0.00  0.00     0.161 C 
ENDBRANCH  40  41
ENDBRANCH  39  40
ENDBRANCH  37  39
ENDBRANCH  36  37
ENDBRANCH  33  36
ENDBRANCH   5  31
TORSDOF 11
ENDMDL
MODEL 2
REMARK VINA RESULT:      -8.8      2.360      3.128
REMARK  11 active torsions:
REMARK  status: ('A' for Active; 'I' for Inactive)
REMARK    1  A    between atoms: S_2  and  C_15 
REMARK    2  A    between atoms: O_7  and  C_33 
REMARK    3  A    between atoms: O_7  and  C_36 
REMARK    4  A    between atoms: N_8  and  C_14 
REMARK    5  A    between atoms: N_8  and  C_16 
REMARK    6  A    between atoms: N_9  and  C_26 
REMARK    7  A    between atoms: N_9  and  C_29 
REMARK    8  A    between atoms: C_14  and  C_15 
REMARK    9  A    between atoms: C_16  and  C_17 
REMARK   10  A    between atoms: C_18  and  C_19 
REMARK   11  A    between atoms: C_36  and  C_37 
ROOT
HETATM    1  N   UNK N   1      19.305  19.292   2.321  0.00  0.00    -0.352 N 
ATOM      2  HN  UNK N   1      18.676  19.978   1.902  1.00  0.00     0.166 HD
HETATM    3  N   UNK N   1      19.691  17.087   3.135  0.00  0.00    -0.338 N 
ATOM      4  HN  UNK N   1      19.357  16.138   3.303  1.00  0.00     0.168 HD
HETATM    5  C   UNK N   1      23.272  20.192   3.213  0.00  0.00    -0.001 A 
HETATM    6  C   UNK N   1      21.409  18.700   3.222  0.00  0.00     0.036 A 
HETATM    7  C   UNK N   1      22.694  18.987   3.497  0.00  0.00     0.031 A 
HETATM    8  C   UNK N   1      20.577  19.647   2.631  0.00  0.00     0.047 A 
HETATM    9  C   UNK N   1      22.481  21.209   2.637  0.00  0.00     0.016 A 
HETATM   10  C   UNK N   1      20.954  17.428   3.474  0.00  0.00     0.119 A 
HETATM   11  C   UNK N   1      21.111  20.933   2.353  0.00  0.00     0.031 A 
HETATM   12  C   UNK N   1      18.858  18.018   2.566  0.00  0.00     0.182 A 
ENDROOT
BRANCH  10  13
HETATM   13  N   UNK N   1      21.873  16.505   4.065  0.00  0.00    -0.342 N 
HETATM   14  H   UNK N   1      22.592  16.144   3.500  0.00  0.00     0.167 HD
BRANCH  13  15
HETATM   15  C   UNK N   1      21.812  16.082   5.406  0.00  0.00     0.035 A 
HETATM   16  C   UNK N   1      21.057  16.823   6.324  0.00  0.00     0.056 A 
HETATM   17  C   UNK N   1      20.908  16.371   7.639  0.00  0.00     0.069 A 
HETATM   18 Cl   UNK N   1      19.893  17.278   8.748  0.00  0.00    -0.081 Cl
HETATM   19  C   UNK N   1      21.501  15.157   8.025  0.00  0.00     0.091 A 
HETATM   20  C   UNK N   1      22.324  14.471   7.116  0.00  0.00     0.041 A 
HETATM   21  C   UNK N   1      22.486  14.936   5.821  0.00  0.00     0.032 A 
BRANCH  19  22
HETATM   22  O   UNK N   1      21.230  14.623   9.239  0.00  0.00    -0.345 OA
BRANCH  22  23
HETATM   23  C   UNK N   1      21.140  13.254   9.406  0.00  0.00     0.214 C 
BRANCH  23  24
HETATM   24  C   UNK N   1      22.300  12.747  10.206  0.00  0.00    -0.031 A 
HETATM   25  C   UNK N   1      22.113  12.352  11.534  0.00  0.00     0.051 A 
HETATM   26  C   UNK N   1      23.204  11.929  12.301  0.00  0.00     0.117 A 
HETATM   27  F   UNK N   1      23.020  11.570  13.593  0.00  0.00    -0.206 F 
HETATM   28  C   UNK N   1      24.485  11.894  11.740  0.00  0.00     0.042 A 
HETATM   29  C   UNK N   1      24.675  12.281  10.410  0.00  0.00     0.004 A 
HETATM   30  C   UNK N   1      23.585  12.715   9.645  0.00  0.00     0.009 A 
ENDBRANCH  23  24
ENDBRANCH  22  23
ENDBRANCH  19  22
ENDBRANCH  13  15
ENDBRANCH  10  13
BRANCH   5  31
HETATM   31  C   UNK N   1      24.713  20.158   3.453  0.00  0.00     0.086 A 
HETATM   32  O   UNK N   1      25.130  19.526   4.519  0.00  0.00    -0.313 OA
HETATM   33  C   UNK N   1      26.411  19.487   4.547  0.00  0.00     0.071 A 
HETATM   34  C   UNK N   1      26.919  20.148   3.432  0.00  0.00     0.037 A 
HETATM   35  C   UNK N   1      25.798  20.584   2.710  0.00  0.00     0.040 A 
BRANCH  33  36
HETATM   36  C   UNK N   1      27.101  18.757   5.656  0.00  0.00     0.179 C 
BRANCH  36  37
HETATM   37  N   UNK N   1      26.980  19.432   6.923  0.00  0.00    -0.415 N 
HETATM   38  H   UNK N   1      26.118  19.729   7.380  0.00  0.00     0.153 HD
BRANCH  37  39
HETATM   39  C   UNK N   1      28.329  19.604   7.415  0.00  0.00     0.129 C 
BRANCH  39  40
HETATM   40  C   UNK N   1      28.565  18.569   8.480  0.00  0.00     0.159 C 
BRANCH  40  41
HETATM   41  S   UNK N   1      30.078  17.653   8.100  0.00  0.00     0.142 S 
HETATM   42  O   UNK N   1      29.833  16.445   7.178  0.00  0.00    -0.228 OA
HETATM   43  O   UNK N   1      29.912  16.810   9.363  0.00  0.00    -0.228 OA
HETATM   44  C   UNK N   1      31.843  17.907   8.416  0.00  0.00     0.161 C 
ENDBRANCH  40  41
ENDBRANCH  39  40
ENDBRANCH  37  39
ENDBRANCH  36  37
ENDBRANCH  33  36
ENDBRANCH   5  31
TORSDOF 11
ENDMDL
MODEL 3
REMARK VINA RESULT:      -8.6      8.685     13.468
REMARK  11 active torsions:
REMARK  status: ('A' for Active; 'I' for Inactive)
REMARK    1  A    between atoms: S_2  and  C_15 
REMARK    2  A    between atoms: O_7  and  C_33 
REMARK    3  A    between atoms: O_7  and  C_36 
REMARK    4  A    between atoms: N_8  and  C_14 
REMARK    5  A    between atoms: N_8  and  C_16 
REMARK    6  A    between atoms: N_9  and  C_26 
REMARK    7  A    between atoms: N_9  and  C_29 
REMARK    8  A    between atoms: C_14  and  C_15 
REMARK    9  A    between atoms: C_16  and  C_17 
REMARK   10  A    between atoms: C_18  and  C_19 
REMARK   11  A    between atoms: C_36  and  C_37 
ROOT
HETATM    1  N   UNK N   1      35.977  13.470  16.068  0.00  0.00    -0.352 N 
ATOM      2  HN  UNK N   1      35.848  13.408  17.078  1.00  0.00     0.166 HD
HETATM    3  N   UNK N   1      36.920  14.579  14.181  0.00  0.00    -0.338 N 
ATOM      4  HN  UNK N   1      37.501  15.323  13.795  1.00  0.00     0.168 HD
HETATM    5  C   UNK N   1      34.343  10.666  13.458  0.00  0.00    -0.001 A 
HETATM    6  C   UNK N   1      35.562  12.674  13.881  0.00  0.00     0.036 A 
HETATM    7  C   UNK N   1      35.046  11.761  13.039  0.00  0.00     0.031 A 
HETATM    8  C   UNK N   1      35.390  12.555  15.257  0.00  0.00     0.047 A 
HETATM    9  C   UNK N   1      34.107  10.495  14.839  0.00  0.00     0.016 A 
HETATM   10  C   UNK N   1      36.323  13.691  13.356  0.00  0.00     0.119 A 
HETATM   11  C   UNK N   1      34.629  11.461  15.748  0.00  0.00     0.031 A 
HETATM   12  C   UNK N   1      36.743  14.479  15.539  0.00  0.00     0.182 A 
ENDROOT
BRANCH  10  13
HETATM   13  N   UNK N   1      36.470  13.737  11.934  0.00  0.00    -0.342 N 
HETATM   14  H   UNK N   1      37.102  13.110  11.515  0.00  0.00     0.167 HD
BRANCH  13  15
HETATM   15  C   UNK N   1      35.766  14.623  11.096  0.00  0.00     0.035 A 
HETATM   16  C   UNK N   1      34.650  14.156  10.389  0.00  0.00     0.056 A 
HETATM   17  C   UNK N   1      33.883  15.039   9.623  0.00  0.00     0.069 A 
HETATM   18 Cl   UNK N   1      32.445  14.443   8.810  0.00  0.00    -0.081 Cl
HETATM   19  C   UNK N   1      34.226  16.401   9.588  0.00  0.00     0.091 A 
HETATM   20  C   UNK N   1      35.395  16.836  10.233  0.00  0.00     0.041 A 
HETATM   21  C   UNK N   1      36.165  15.952  10.972  0.00  0.00     0.032 A 
BRANCH  19  22
HETATM   22  O   UNK N   1      33.403  17.295   8.991  0.00  0.00    -0.345 OA
BRANCH  22  23
HETATM   23  C   UNK N   1      33.787  17.954   7.840  0.00  0.00     0.214 C 
BRANCH  23  24
HETATM   24  C   UNK N   1      32.915  17.553   6.691  0.00  0.00    -0.031 A 
HETATM   25  C   UNK N   1      33.443  17.501   5.398  0.00  0.00     0.051 A 
HETATM   26  C   UNK N   1      32.619  17.180   4.314  0.00  0.00     0.117 A 
HETATM   27  F   UNK N   1      33.132  17.154   3.062  0.00  0.00    -0.206 F 
HETATM   28  C   UNK N   1      31.264  16.904   4.521  0.00  0.00     0.042 A 
HETATM   29  C   UNK N   1      30.732  16.947   5.814  0.00  0.00     0.004 A 
HETATM   30  C   UNK N   1      31.554  17.279   6.897  0.00  0.00     0.009 A 
ENDBRANCH  23  24
ENDBRANCH  22  23
ENDBRANCH  19  22
ENDBRANCH  13  15
ENDBRANCH  10  13
BRANCH   5  31
HETATM   31  C   UNK N   1      34.063   9.760  12.347  0.00  0.00     0.086 A 
HETATM   32  O   UNK N   1      33.355  10.228  11.352  0.00  0.00    -0.313 OA
HETATM   33  C   UNK N   1      33.276   9.364  10.409  0.00  0.00     0.071 A 
HETATM   34  C   UNK N   1      33.964   8.212  10.778  0.00  0.00     0.037 A 
HETATM   35  C   UNK N   1      34.486   8.477  12.052  0.00  0.00     0.040 A 
BRANCH  33  36
HETATM   36  C   UNK N   1      32.557   9.718   9.145  0.00  0.00     0.179 C 
BRANCH  36  37
HETATM   37  N   UNK N   1      32.870  11.046   8.683  0.00  0.00    -0.415 N 
HETATM   38  H   UNK N   1      32.814  11.912   9.218  0.00  0.00     0.153 HD
BRANCH  37  39
HETATM   39  C   UNK N   1      33.279  10.903   7.303  0.00  0.00     0.129 C 
BRANCH  39  40
HETATM   40  C   UNK N   1      34.345  11.928   7.031  0.00  0.00     0.159 C 
BRANCH  40  41
HETATM   41  S   UNK N   1      35.884  11.421   7.837  0.00  0.00     0.142 S 
HETATM   42  O   UNK N   1      37.098  11.465   6.892  0.00  0.00    -0.228 OA
HETATM   43  O   UNK N   1      35.598   9.956   7.511  0.00  0.00    -0.228 OA
HETATM   44  C   UNK N   1      36.370  11.022   9.535  0.00  0.00     0.161 C 
ENDBRANCH  40  41
ENDBRANCH  39  40
ENDBRANCH  37  39
ENDBRANCH  36  37
ENDBRANCH  33  36
ENDBRANCH   5  31
TORSDOF 11
ENDMDL
MODEL 4
REMARK VINA RESULT:      -8.6      2.504      3.620
REMARK  11 active torsions:
REMARK  status: ('A' for Active; 'I' for Inactive)
REMARK    1  A    between atoms: S_2  and  C_15 
REMARK    2  A    between atoms: O_7  and  C_33 
REMARK    3  A    between atoms: O_7  and  C_36 
REMARK    4  A    between atoms: N_8  and  C_14 
REMARK    5  A    between atoms: N_8  and  C_16 
REMARK    6  A    between atoms: N_9  and  C_26 
REMARK    7  A    between atoms: N_9  and  C_29 
REMARK    8  A    between atoms: C_14  and  C_15 
REMARK    9  A    between atoms: C_16  and  C_17 
REMARK   10  A    between atoms: C_18  and  C_19 
REMARK   11  A    between atoms: C_36  and  C_37 
ROOT
HETATM    1  N   UNK N   1      25.823  20.945   3.707  0.00  0.00    -0.352 N 
ATOM      2  HN  UNK N   1      25.742  21.946   3.529  1.00  0.00     0.166 HD
HETATM    3  N   UNK N   1      25.381  18.697   3.049  0.00  0.00    -0.338 N 
ATOM      4  HN  UNK N   1      24.992  18.036   2.378  1.00  0.00     0.168 HD
HETATM    5  C   UNK N   1      27.858  19.452   7.020  0.00  0.00    -0.001 A 
HETATM    6  C   UNK N   1      26.539  19.139   5.056  0.00  0.00     0.036 A 
HETATM    7  C   UNK N   1      27.208  18.658   6.119  0.00  0.00     0.031 A 
HETATM    8  C   UNK N   1      26.461  20.510   4.823  0.00  0.00     0.047 A 
HETATM    9  C   UNK N   1      27.800  20.853   6.861  0.00  0.00     0.016 A 
HETATM   10  C   UNK N   1      25.991  18.246   4.167  0.00  0.00     0.119 A 
HETATM   11  C   UNK N   1      27.080  21.387   5.751  0.00  0.00     0.031 A 
HETATM   12  C   UNK N   1      25.286  20.048   2.818  0.00  0.00     0.182 A 
ENDROOT
BRANCH  10  13
HETATM   13  N   UNK N   1      26.128  16.854   4.465  0.00  0.00    -0.342 N 
HETATM   14  H   UNK N   1      26.854  16.356   4.025  0.00  0.00     0.167 HD
BRANCH  13  15
HETATM   15  C   UNK N   1      25.289  16.150   5.349  0.00  0.00     0.035 A 
HETATM   16  C   UNK N   1      23.915  16.426   5.354  0.00  0.00     0.056 A 
HETATM   17  C   UNK N   1      23.051  15.676   6.158  0.00  0.00     0.069 A 
HETATM   18 Cl   UNK N   1      21.324  15.990   6.087  0.00  0.00    -0.081 Cl
HETATM   19  C   UNK N   1      23.566  14.631   6.942  0.00  0.00     0.091 A 
HETATM   20  C   UNK N   1      24.955  14.424   6.989  0.00  0.00     0.041 A 
HETATM   21  C   UNK N   1      25.810  15.185   6.208  0.00  0.00     0.032 A 
BRANCH  19  22
HETATM   22  O   UNK N   1      22.728  13.791   7.594  0.00  0.00    -0.345 OA
BRANCH  22  23
HETATM   23  C   UNK N   1      23.112  12.498   7.894  0.00  0.00     0.214 C 
BRANCH  23  24
HETATM   24  C   UNK N   1      23.085  12.275   9.374  0.00  0.00    -0.031 A 
HETATM   25  C   UNK N   1      21.861  12.196  10.047  0.00  0.00     0.051 A 
HETATM   26  C   UNK N   1      21.832  12.043  11.436  0.00  0.00     0.117 A 
HETATM   27  F   UNK N   1      20.644  11.991  12.083  0.00  0.00    -0.206 F 
HETATM   28  C   UNK N   1      23.026  11.961  12.159  0.00  0.00     0.042 A 
HETATM   29  C   UNK N   1      24.253  12.031  11.490  0.00  0.00     0.004 A 
HETATM   30  C   UNK N   1      24.283  12.195  10.100  0.00  0.00     0.009 A 
ENDBRANCH  23  24
ENDBRANCH  22  23
ENDBRANCH  19  22
ENDBRANCH  13  15
ENDBRANCH  10  13
BRANCH   5  31
HETATM   31  C   UNK N   1      28.644  18.655   7.959  0.00  0.00     0.086 A 
HETATM   32  O   UNK N   1      29.908  18.471   7.681  0.00  0.00    -0.313 OA
HETATM   33  C   UNK N   1      30.493  17.847   8.636  0.00  0.00     0.071 A 
HETATM   34  C   UNK N   1      29.571  17.566   9.639  0.00  0.00     0.037 A 
HETATM   35  C   UNK N   1      28.355  18.104   9.194  0.00  0.00     0.040 A 
BRANCH  33  36
HETATM   36  C   UNK N   1      31.964  17.582   8.549  0.00  0.00     0.179 C 
BRANCH  36  37
HETATM   37  N   UNK N   1      32.326  16.851   7.362  0.00  0.00    -0.415 N 
HETATM   38  H   UNK N   1      32.942  17.164   6.613  0.00  0.00     0.153 HD
BRANCH  37  39
HETATM   39  C   UNK N   1      31.638  15.582   7.449  0.00  0.00     0.129 C 
BRANCH  39  40
HETATM   40  C   UNK N   1      31.824  14.869   6.138  0.00  0.00     0.159 C 
BRANCH  40  41
HETATM   41  S   UNK N   1      30.797  15.658   4.875  0.00  0.00     0.142 S 
HETATM   42  O   UNK N   1      30.969  17.187   4.831  0.00  0.00    -0.228 OA
HETATM   43  O   UNK N   1      29.626  15.749   5.852  0.00  0.00    -0.228 OA
HETATM   44  C   UNK N   1      29.728  15.065   3.538  0.00  0.00     0.161 C 
ENDBRANCH  40  41
ENDBRANCH  39  40
ENDBRANCH  37  39
ENDBRANCH  36  37
ENDBRANCH  33  36
ENDBRANCH   5  31
TORSDOF 11
ENDMDL
MODEL 5
REMARK VINA RESULT:      -8.6      2.334      2.614
REMARK  11 active torsions:
REMARK  status: ('A' for Active; 'I' for Inactive)
REMARK    1  A    between atoms: S_2  and  C_15 
REMARK    2  A    between atoms: O_7  and  C_33 
REMARK    3  A    between atoms: O_7  and  C_36 
REMARK    4  A    between atoms: N_8  and  C_14 
REMARK    5  A    between atoms: N_8  and  C_16 
REMARK    6  A    between atoms: N_9  and  C_26 
REMARK    7  A    between atoms: N_9  and  C_29 
REMARK    8  A    between atoms: C_14  and  C_15 
REMARK    9  A    between atoms: C_16  and  C_17 
REMARK   10  A    between atoms: C_18  and  C_19 
REMARK   11  A    between atoms: C_36  and  C_37 
ROOT
HETATM    1  N   UNK N   1      21.444  20.715   2.691  0.00  0.00    -0.352 N 
ATOM      2  HN  UNK N   1      21.402  21.691   2.395  1.00  0.00     0.166 HD
HETATM    3  N   UNK N   1      20.336  18.654   3.138  0.00  0.00    -0.338 N 
ATOM      4  HN  UNK N   1      19.480  18.099   3.155  1.00  0.00     0.168 HD
HETATM    5  C   UNK N   1      25.041  18.859   3.671  0.00  0.00    -0.001 A 
HETATM    6  C   UNK N   1      22.664  18.842   3.462  0.00  0.00     0.036 A 
HETATM    7  C   UNK N   1      23.827  18.239   3.765  0.00  0.00     0.031 A 
HETATM    8  C   UNK N   1      22.636  20.168   3.039  0.00  0.00     0.047 A 
HETATM    9  C   UNK N   1      25.086  20.212   3.274  0.00  0.00     0.016 A 
HETATM   10  C   UNK N   1      21.509  18.099   3.512  0.00  0.00     0.119 A 
HETATM   11  C   UNK N   1      23.863  20.877   2.966  0.00  0.00     0.031 A 
HETATM   12  C   UNK N   1      20.295  19.966   2.735  0.00  0.00     0.182 A 
ENDROOT
BRANCH  10  13
HETATM   13  N   UNK N   1      21.620  16.738   3.937  0.00  0.00    -0.342 N 
HETATM   14  H   UNK N   1      21.699  16.043   3.245  0.00  0.00     0.167 HD
BRANCH  13  15
HETATM   15  C   UNK N   1      21.625  16.330   5.285  0.00  0.00     0.035 A 
HETATM   16  C   UNK N   1      20.800  16.993   6.203  0.00  0.00     0.056 A 
HETATM   17  C   UNK N   1      20.720  16.547   7.526  0.00  0.00     0.069 A 
HETATM   18 Cl   UNK N   1      19.619  17.346   8.636  0.00  0.00    -0.081 Cl
HETATM   19  C   UNK N   1      21.455  15.417   7.921  0.00  0.00     0.091 A 
HETATM   20  C   UNK N   1      22.342  14.817   7.010  0.00  0.00     0.041 A 
HETATM   21  C   UNK N   1      22.434  15.277   5.706  0.00  0.00     0.032 A 
BRANCH  19  22
HETATM   22  O   UNK N   1      21.263  14.873   9.145  0.00  0.00    -0.345 OA
BRANCH  22  23
HETATM   23  C   UNK N   1      21.097  13.510   9.297  0.00  0.00     0.214 C 
BRANCH  23  24
HETATM   24  C   UNK N   1      22.224  12.931  10.095  0.00  0.00    -0.031 A 
HETATM   25  C   UNK N   1      21.981  12.407  11.369  0.00  0.00     0.051 A 
HETATM   26  C   UNK N   1      23.039  11.916  12.140  0.00  0.00     0.117 A 
HETATM   27  F   UNK N   1      22.800  11.432  13.381  0.00  0.00    -0.206 F 
HETATM   28  C   UNK N   1      24.345  11.940  11.638  0.00  0.00     0.042 A 
HETATM   29  C   UNK N   1      24.591  12.456  10.361  0.00  0.00     0.004 A 
HETATM   30  C   UNK N   1      23.534  12.958   9.593  0.00  0.00     0.009 A 
ENDBRANCH  23  24
ENDBRANCH  22  23
ENDBRANCH  19  22
ENDBRANCH  13  15
ENDBRANCH  10  13
BRANCH   5  31
HETATM   31  C   UNK N   1      26.136  17.915   3.886  0.00  0.00     0.086 A 
HETATM   32  O   UNK N   1      27.128  18.307   4.643  0.00  0.00    -0.313 OA
HETATM   33  C   UNK N   1      27.958  17.349   4.828  0.00  0.00     0.071 A 
HETATM   34  C   UNK N   1      27.523  16.219   4.143  0.00  0.00     0.037 A 
HETATM   35  C   UNK N   1      26.319  16.593   3.528  0.00  0.00     0.040 A 
BRANCH  33  36
HETATM   36  C   UNK N   1      29.143  17.564   5.717  0.00  0.00     0.179 C 
BRANCH  36  37
HETATM   37  N   UNK N   1      29.504  16.381   6.457  0.00  0.00    -0.415 N 
HETATM   38  H   UNK N   1      28.896  15.821   7.053  0.00  0.00     0.153 HD
BRANCH  37  39
HETATM   39  C   UNK N   1      30.906  16.151   6.184  0.00  0.00     0.129 C 
BRANCH  39  40
HETATM   40  C   UNK N   1      31.366  17.214   5.225  0.00  0.00     0.159 C 
BRANCH  40  41
HETATM   41  S   UNK N   1      31.820  16.445   3.650  0.00  0.00     0.142 S 
HETATM   42  O   UNK N   1      30.720  16.574   2.582  0.00  0.00    -0.228 OA
HETATM   43  O   UNK N   1      31.290  15.096   4.131  0.00  0.00    -0.228 OA
HETATM   44  C   UNK N   1      33.325  15.696   2.977  0.00  0.00     0.161 C 
ENDBRANCH  40  41
ENDBRANCH  39  40
ENDBRANCH  37  39
ENDBRANCH  36  37
ENDBRANCH  33  36
ENDBRANCH   5  31
TORSDOF 11
ENDMDL
MODEL 6
REMARK VINA RESULT:      -8.3      3.929      8.303
REMARK  11 active torsions:
REMARK  status: ('A' for Active; 'I' for Inactive)
REMARK    1  A    between atoms: S_2  and  C_15 
REMARK    2  A    between atoms: O_7  and  C_33 
REMARK    3  A    between atoms: O_7  and  C_36 
REMARK    4  A    between atoms: N_8  and  C_14 
REMARK    5  A    between atoms: N_8  and  C_16 
REMARK    6  A    between atoms: N_9  and  C_26 
REMARK    7  A    between atoms: N_9  and  C_29 
REMARK    8  A    between atoms: C_14  and  C_15 
REMARK    9  A    between atoms: C_16  and  C_17 
REMARK   10  A    between atoms: C_18  and  C_19 
REMARK   11  A    between atoms: C_36  and  C_37 
ROOT
HETATM    1  N   UNK N   1      20.426  19.147   1.409  0.00  0.00    -0.352 N 
ATOM      2  HN  UNK N   1      19.769  19.173   0.629  1.00  0.00     0.166 HD
HETATM    3  N   UNK N   1      22.095  20.223   2.727  0.00  0.00    -0.338 N 
ATOM      4  HN  UNK N   1      22.658  21.048   2.934  1.00  0.00     0.168 HD
HETATM    5  C   UNK N   1      20.765  15.827   3.900  0.00  0.00    -0.001 A 
HETATM    6  C   UNK N   1      21.449  18.007   3.211  0.00  0.00     0.036 A 
HETATM    7  C   UNK N   1      21.548  16.940   4.023  0.00  0.00     0.031 A 
HETATM    8  C   UNK N   1      20.528  18.026   2.166  0.00  0.00     0.047 A 
HETATM    9  C   UNK N   1      19.828  15.766   2.847  0.00  0.00     0.016 A 
HETATM   10  C   UNK N   1      22.228  19.107   3.477  0.00  0.00     0.119 A 
HETATM   11  C   UNK N   1      19.718  16.878   1.962  0.00  0.00     0.031 A 
HETATM   12  C   UNK N   1      21.201  20.246   1.684  0.00  0.00     0.182 A 
ENDROOT
BRANCH  10  13
HETATM   13  N   UNK N   1      23.137  19.019   4.578  0.00  0.00    -0.342 N 
HETATM   14  H   UNK N   1      22.765  19.060   5.488  0.00  0.00     0.167 HD
BRANCH  13  15
HETATM   15  C   UNK N   1      24.531  18.878   4.441  0.00  0.00     0.035 A 
HETATM   16  C   UNK N   1      25.375  19.843   5.004  0.00  0.00     0.056 A 
HETATM   17  C   UNK N   1      26.763  19.675   4.959  0.00  0.00     0.069 A 
HETATM   18 Cl   UNK N   1      27.796  20.860   5.741  0.00  0.00    -0.081 Cl
HETATM   19  C   UNK N   1      27.302  18.521   4.366  0.00  0.00     0.091 A 
HETATM   20  C   UNK N   1      26.444  17.607   3.732  0.00  0.00     0.041 A 
HETATM   21  C   UNK N   1      25.071  17.789   3.760  0.00  0.00     0.032 A 
BRANCH  19  22
HETATM   22  O   UNK N   1      28.627  18.262   4.461  0.00  0.00    -0.345 OA
BRANCH  22  23
HETATM   23  C   UNK N   1      29.080  17.076   5.007  0.00  0.00     0.214 C 
BRANCH  23  24
HETATM   24  C   UNK N   1      29.493  17.279   6.431  0.00  0.00    -0.031 A 
HETATM   25  C   UNK N   1      28.526  17.521   7.412  0.00  0.00     0.051 A 
HETATM   26  C   UNK N   1      28.910  17.765   8.733  0.00  0.00     0.117 A 
HETATM   27  F   UNK N   1      27.970  18.021   9.673  0.00  0.00    -0.206 F 
HETATM   28  C   UNK N   1      30.265  17.763   9.082  0.00  0.00     0.042 A 
HETATM   29  C   UNK N   1      31.236  17.515   8.107  0.00  0.00     0.004 A 
HETATM   30  C   UNK N   1      30.852  17.281   6.781  0.00  0.00     0.009 A 
ENDBRANCH  23  24
ENDBRANCH  22  23
ENDBRANCH  19  22
ENDBRANCH  13  15
ENDBRANCH  10  13
BRANCH   5  31
HETATM   31  C   UNK N   1      20.966  14.911   5.021  0.00  0.00     0.086 A 
HETATM   32  O   UNK N   1      20.594  15.321   6.206  0.00  0.00    -0.313 OA
HETATM   33  C   UNK N   1      20.732  14.383   7.070  0.00  0.00     0.071 A 
HETATM   34  C   UNK N   1      21.246  13.251   6.446  0.00  0.00     0.037 A 
HETATM   35  C   UNK N   1      21.394  13.599   5.096  0.00  0.00     0.040 A 
BRANCH  33  36
HETATM   36  C   UNK N   1      20.308  14.620   8.486  0.00  0.00     0.179 C 
BRANCH  36  37
HETATM   37  N   UNK N   1      21.371  14.386   9.429  0.00  0.00    -0.415 N 
HETATM   38  H   UNK N   1      22.144  15.013   9.650  0.00  0.00     0.153 HD
BRANCH  37  39
HETATM   39  C   UNK N   1      21.121  13.081   9.998  0.00  0.00     0.129 C 
BRANCH  39  40
HETATM   40  C   UNK N   1      22.264  12.755  10.919  0.00  0.00     0.159 C 
BRANCH  40  41
HETATM   41  S   UNK N   1      23.602  11.994   9.968  0.00  0.00     0.142 S 
HETATM   42  O   UNK N   1      24.923  11.909  10.754  0.00  0.00    -0.228 OA
HETATM   43  O   UNK N   1      23.970  13.346   9.361  0.00  0.00    -0.228 OA
HETATM   44  C   UNK N   1      23.721  11.161   8.365  0.00  0.00     0.161 C 
ENDBRANCH  40  41
ENDBRANCH  39  40
ENDBRANCH  37  39
ENDBRANCH  36  37
ENDBRANCH  33  36
ENDBRANCH   5  31
TORSDOF 11
ENDMDL
MODEL 7
REMARK VINA RESULT:      -8.3      4.534      8.514
REMARK  11 active torsions:
REMARK  status: ('A' for Active; 'I' for Inactive)
REMARK    1  A    between atoms: S_2  and  C_15 
REMARK    2  A    between atoms: O_7  and  C_33 
REMARK    3  A    between atoms: O_7  and  C_36 
REMARK    4  A    between atoms: N_8  and  C_14 
REMARK    5  A    between atoms: N_8  and  C_16 
REMARK    6  A    between atoms: N_9  and  C_26 
REMARK    7  A    between atoms: N_9  and  C_29 
REMARK    8  A    between atoms: C_14  and  C_15 
REMARK    9  A    between atoms: C_16  and  C_17 
REMARK   10  A    between atoms: C_18  and  C_19 
REMARK   11  A    between atoms: C_36  and  C_37 
ROOT
HETATM    1  N   UNK N   1      19.935  19.250   1.743  0.00  0.00    -0.352 N 
ATOM      2  HN  UNK N   1      19.349  19.563   0.969  1.00  0.00     0.166 HD
HETATM    3  N   UNK N   1      21.105  19.735   3.761  0.00  0.00    -0.338 N 
ATOM      4  HN  UNK N   1      21.371  20.400   4.489  1.00  0.00     0.168 HD
HETATM    5  C   UNK N   1      21.144  15.284   2.133  0.00  0.00    -0.001 A 
HETATM    6  C   UNK N   1      21.154  17.558   2.857  0.00  0.00     0.036 A 
HETATM    7  C   UNK N   1      21.533  16.274   2.990  0.00  0.00     0.031 A 
HETATM    8  C   UNK N   1      20.336  17.956   1.803  0.00  0.00     0.047 A 
HETATM    9  C   UNK N   1      20.336  15.619   1.026  0.00  0.00     0.016 A 
HETATM   10  C   UNK N   1      21.535  18.456   3.825  0.00  0.00     0.119 A 
HETATM   11  C   UNK N   1      19.937  16.978   0.854  0.00  0.00     0.031 A 
HETATM   12  C   UNK N   1      20.311  20.141   2.717  0.00  0.00     0.182 A 
ENDROOT
BRANCH  10  13
HETATM   13  N   UNK N   1      22.360  17.969   4.887  0.00  0.00    -0.342 N 
HETATM   14  H   UNK N   1      21.921  17.693   5.723  0.00  0.00     0.167 HD
BRANCH  13  15
HETATM   15  C   UNK N   1      23.761  17.859   4.811  0.00  0.00     0.035 A 
HETATM   16  C   UNK N   1      24.509  18.949   4.349  0.00  0.00     0.056 A 
HETATM   17  C   UNK N   1      25.907  18.894   4.350  0.00  0.00     0.069 A 
HETATM   18 Cl   UNK N   1      26.821  20.304   3.840  0.00  0.00    -0.081 Cl
HETATM   19  C   UNK N   1      26.554  17.748   4.840  0.00  0.00     0.091 A 
HETATM   20  C   UNK N   1      25.789  16.632   5.219  0.00  0.00     0.041 A 
HETATM   21  C   UNK N   1      24.404  16.684   5.194  0.00  0.00     0.032 A 
BRANCH  19  22
HETATM   22  O   UNK N   1      27.897  17.742   5.005  0.00  0.00    -0.345 OA
BRANCH  22  23
HETATM   23  C   UNK N   1      28.511  16.787   5.793  0.00  0.00     0.214 C 
BRANCH  23  24
HETATM   24  C   UNK N   1      29.009  17.400   7.065  0.00  0.00    -0.031 A 
HETATM   25  C   UNK N   1      30.382  17.449   7.325  0.00  0.00     0.051 A 
HETATM   26  C   UNK N   1      30.850  17.970   8.536  0.00  0.00     0.117 A 
HETATM   27  F   UNK N   1      32.179  17.993   8.791  0.00  0.00    -0.206 F 
HETATM   28  C   UNK N   1      29.946  18.450   9.489  0.00  0.00     0.042 A 
HETATM   29  C   UNK N   1      28.572  18.410   9.230  0.00  0.00     0.004 A 
HETATM   30  C   UNK N   1      28.103  17.878   8.023  0.00  0.00     0.009 A 
ENDBRANCH  23  24
ENDBRANCH  22  23
ENDBRANCH  19  22
ENDBRANCH  13  15
ENDBRANCH  10  13
BRANCH   5  31
HETATM   31  C   UNK N   1      21.554  13.969   2.621  0.00  0.00     0.086 A 
HETATM   32  O   UNK N   1      22.169  13.921   3.774  0.00  0.00    -0.313 OA
HETATM   33  C   UNK N   1      22.375  12.705   4.124  0.00  0.00     0.071 A 
HETATM   34  C   UNK N   1      21.882  11.851   3.142  0.00  0.00     0.037 A 
HETATM   35  C   UNK N   1      21.337  12.686   2.156  0.00  0.00     0.040 A 
BRANCH  33  36
HETATM   36  C   UNK N   1      23.016  12.419   5.446  0.00  0.00     0.179 C 
BRANCH  36  37
HETATM   37  N   UNK N   1      22.311  11.413   6.198  0.00  0.00    -0.415 N 
HETATM   38  H   UNK N   1      22.494  10.410   6.205  0.00  0.00     0.153 HD
BRANCH  37  39
HETATM   39  C   UNK N   1      21.288  12.114   6.942  0.00  0.00     0.129 C 
BRANCH  39  40
HETATM   40  C   UNK N   1      21.918  13.338   7.547  0.00  0.00     0.159 C 
BRANCH  40  41
HETATM   41  S   UNK N   1      20.723  14.698   7.532  0.00  0.00     0.142 S 
HETATM   42  O   UNK N   1      19.733  14.613   6.357  0.00  0.00    -0.228 OA
HETATM   43  O   UNK N   1      21.694  15.571   6.740  0.00  0.00    -0.228 OA
HETATM   44  C   UNK N   1      20.311  16.053   8.660  0.00  0.00     0.161 C 
ENDBRANCH  40  41
ENDBRANCH  39  40
ENDBRANCH  37  39
ENDBRANCH  36  37
ENDBRANCH  33  36
ENDBRANCH   5  31
TORSDOF 11
ENDMDL
MODEL 8
REMARK VINA RESULT:      -8.3      2.374      3.365
REMARK  11 active torsions:
REMARK  status: ('A' for Active; 'I' for Inactive)
REMARK    1  A    between atoms: S_2  and  C_15 
REMARK    2  A    between atoms: O_7  and  C_33 
REMARK    3  A    between atoms: O_7  and  C_36 
REMARK    4  A    between atoms: N_8  and  C_14 
REMARK    5  A    between atoms: N_8  and  C_16 
REMARK    6  A    between atoms: N_9  and  C_26 
REMARK    7  A    between atoms: N_9  and  C_29 
REMARK    8  A    between atoms: C_14  and  C_15 
REMARK    9  A    between atoms: C_16  and  C_17 
REMARK   10  A    between atoms: C_18  and  C_19 
REMARK   11  A    between atoms: C_36  and  C_37 
ROOT
HETATM    1  N   UNK N   1      25.371  20.739   4.132  0.00  0.00    -0.352 N 
ATOM      2  HN  UNK N   1      25.091  21.720   4.114  1.00  0.00     0.166 HD
HETATM    3  N   UNK N   1      25.275  18.556   3.182  0.00  0.00    -0.338 N 
ATOM      4  HN  UNK N   1      24.940  17.926   2.453  1.00  0.00     0.168 HD
HETATM    5  C   UNK N   1      27.992  19.247   7.004  0.00  0.00    -0.001 A 
HETATM    6  C   UNK N   1      26.545  18.946   5.131  0.00  0.00     0.036 A 
HETATM    7  C   UNK N   1      27.402  18.467   6.050  0.00  0.00     0.031 A 
HETATM    8  C   UNK N   1      26.195  20.293   5.113  0.00  0.00     0.047 A 
HETATM    9  C   UNK N   1      27.664  20.618   7.063  0.00  0.00     0.016 A 
HETATM   10  C   UNK N   1      26.075  18.088   4.165  0.00  0.00     0.119 A 
HETATM   11  C   UNK N   1      26.743  21.144   6.109  0.00  0.00     0.031 A 
HETATM   12  C   UNK N   1      24.911  19.881   3.165  0.00  0.00     0.182 A 
ENDROOT
BRANCH  10  13
HETATM   13  N   UNK N   1      26.493  16.723   4.237  0.00  0.00    -0.342 N 
HETATM   14  H   UNK N   1      27.332  16.472   3.788  0.00  0.00     0.167 HD
BRANCH  13  15
HETATM   15  C   UNK N   1      25.779  15.714   4.912  0.00  0.00     0.035 A 
HETATM   16  C   UNK N   1      26.170  14.378   4.756  0.00  0.00     0.056 A 
HETATM   17  C   UNK N   1      25.534  13.369   5.487  0.00  0.00     0.069 A 
HETATM   18 Cl   UNK N   1      26.096  11.713   5.332  0.00  0.00    -0.081 Cl
HETATM   19  C   UNK N   1      24.517  13.709   6.395  0.00  0.00     0.091 A 
HETATM   20  C   UNK N   1      24.080  15.042   6.475  0.00  0.00     0.041 A 
HETATM   21  C   UNK N   1      24.699  16.034   5.732  0.00  0.00     0.032 A 
BRANCH  19  22
HETATM   22  O   UNK N   1      24.008  12.772   7.229  0.00  0.00    -0.345 OA
BRANCH  22  23
HETATM   23  C   UNK N   1      24.536  12.585   8.491  0.00  0.00     0.214 C 
BRANCH  23  24
HETATM   24  C   UNK N   1      23.442  12.519   9.512  0.00  0.00    -0.031 A 
HETATM   25  C   UNK N   1      23.720  12.067  10.805  0.00  0.00     0.051 A 
HETATM   26  C   UNK N   1      22.691  11.951  11.745  0.00  0.00     0.117 A 
HETATM   27  F   UNK N   1      22.963  11.491  12.989  0.00  0.00    -0.206 F 
HETATM   28  C   UNK N   1      21.380  12.294  11.397  0.00  0.00     0.042 A 
HETATM   29  C   UNK N   1      21.099  12.754  10.107  0.00  0.00     0.004 A 
HETATM   30  C   UNK N   1      22.127  12.859   9.162  0.00  0.00     0.009 A 
ENDBRANCH  23  24
ENDBRANCH  22  23
ENDBRANCH  19  22
ENDBRANCH  13  15
ENDBRANCH  10  13
BRANCH   5  31
HETATM   31  C   UNK N   1      29.007  18.501   7.744  0.00  0.00     0.086 A 
HETATM   32  O   UNK N   1      29.627  17.538   7.112  0.00  0.00    -0.313 OA
HETATM   33  C   UNK N   1      30.555  17.043   7.844  0.00  0.00     0.071 A 
HETATM   34  C   UNK N   1      30.574  17.696   9.073  0.00  0.00     0.037 A 
HETATM   35  C   UNK N   1      29.557  18.659   9.003  0.00  0.00     0.040 A 
BRANCH  33  36
HETATM   36  C   UNK N   1      31.431  15.963   7.291  0.00  0.00     0.179 C 
BRANCH  36  37
HETATM   37  N   UNK N   1      32.315  15.404   8.282  0.00  0.00    -0.415 N 
HETATM   38  H   UNK N   1      32.086  15.174   9.248  0.00  0.00     0.153 HD
BRANCH  37  39
HETATM   39  C   UNK N   1      33.594  15.237   7.628  0.00  0.00     0.129 C 
BRANCH  39  40
HETATM   40  C   UNK N   1      34.519  16.301   8.151  0.00  0.00     0.159 C 
BRANCH  40  41
HETATM   41  S   UNK N   1      34.729  16.088   9.936  0.00  0.00     0.142 S 
HETATM   42  O   UNK N   1      35.221  17.366  10.638  0.00  0.00    -0.228 OA
HETATM   43  O   UNK N   1      36.151  15.572   9.730  0.00  0.00    -0.228 OA
HETATM   44  C   UNK N   1      34.348  14.775  11.123  0.00  0.00     0.161 C 
ENDBRANCH  40  41
ENDBRANCH  39  40
ENDBRANCH  37  39
ENDBRANCH  36  37
ENDBRANCH  33  36
ENDBRANCH   5  31
TORSDOF 11
ENDMDL
MODEL 9
REMARK VINA RESULT:      -8.3      7.744     13.293
REMARK  11 active torsions:
REMARK  status: ('A' for Active; 'I' for Inactive)
REMARK    1  A    between atoms: S_2  and  C_15 
REMARK    2  A    between atoms: O_7  and  C_33 
REMARK    3  A    between atoms: O_7  and  C_36 
REMARK    4  A    between atoms: N_8  and  C_14 
REMARK    5  A    between atoms: N_8  and  C_16 
REMARK    6  A    between atoms: N_9  and  C_26 
REMARK    7  A    between atoms: N_9  and  C_29 
REMARK    8  A    between atoms: C_14  and  C_15 
REMARK    9  A    between atoms: C_16  and  C_17 
REMARK   10  A    between atoms: C_18  and  C_19 
REMARK   11  A    between atoms: C_36  and  C_37 
ROOT
HETATM    1  N   UNK N   1      38.680  12.866   8.610  0.00  0.00    -0.352 N 
ATOM      2  HN  UNK N   1      39.209  12.435   7.851  1.00  0.00     0.166 HD
HETATM    3  N   UNK N   1      38.402  13.289  10.938  0.00  0.00    -0.338 N 
ATOM      4  HN  UNK N   1      38.732  13.189  11.899  1.00  0.00     0.168 HD
HETATM    5  C   UNK N   1      35.291  15.180   7.903  0.00  0.00    -0.001 A 
HETATM    6  C   UNK N   1      36.842  14.135   9.385  0.00  0.00     0.036 A 
HETATM    7  C   UNK N   1      35.755  14.893   9.155  0.00  0.00     0.031 A 
HETATM    8  C   UNK N   1      37.559  13.576   8.331  0.00  0.00     0.047 A 
HETATM    9  C   UNK N   1      35.953  14.626   6.787  0.00  0.00     0.016 A 
HETATM   10  C   UNK N   1      37.269  13.980  10.682  0.00  0.00     0.119 A 
HETATM   11  C   UNK N   1      37.096  13.803   7.008  0.00  0.00     0.031 A 
HETATM   12  C   UNK N   1      39.108  12.721   9.906  0.00  0.00     0.182 A 
ENDROOT
BRANCH  10  13
HETATM   13  N   UNK N   1      36.491  14.599  11.710  0.00  0.00    -0.342 N 
HETATM   14  H   UNK N   1      36.262  15.550  11.606  0.00  0.00     0.167 HD
BRANCH  13  15
HETATM   15  C   UNK N   1      36.033  13.932  12.862  0.00  0.00     0.035 A 
HETATM   16  C   UNK N   1      35.188  12.823  12.720  0.00  0.00     0.056 A 
HETATM   17  C   UNK N   1      34.794  12.091  13.845  0.00  0.00     0.069 A 
HETATM   18 Cl   UNK N   1      33.799  10.660  13.631  0.00  0.00    -0.081 Cl
HETATM   19  C   UNK N   1      35.271  12.461  15.113  0.00  0.00     0.091 A 
HETATM   20  C   UNK N   1      36.048  13.624  15.246  0.00  0.00     0.041 A 
HETATM   21  C   UNK N   1      36.416  14.359  14.131  0.00  0.00     0.032 A 
BRANCH  19  22
HETATM   22  O   UNK N   1      35.038  11.669  16.186  0.00  0.00    -0.345 OA
BRANCH  22  23
HETATM   23  C   UNK N   1      35.279  12.123  17.468  0.00  0.00     0.214 C 
BRANCH  23  24
HETATM   24  C   UNK N   1      35.281  10.981  18.436  0.00  0.00    -0.031 A 
HETATM   25  C   UNK N   1      34.563   9.817  18.145  0.00  0.00     0.051 A 
HETATM   26  C   UNK N   1      34.518   8.769  19.070  0.00  0.00     0.117 A 
HETATM   27  F   UNK N   1      33.802   7.655  18.792  0.00  0.00    -0.206 F 
HETATM   28  C   UNK N   1      35.196   8.879  20.289  0.00  0.00     0.042 A 
HETATM   29  C   UNK N   1      35.922  10.039  20.581  0.00  0.00     0.004 A 
HETATM   30  C   UNK N   1      35.958  11.092  19.660  0.00  0.00     0.009 A 
ENDBRANCH  23  24
ENDBRANCH  22  23
ENDBRANCH  19  22
ENDBRANCH  13  15
ENDBRANCH  10  13
BRANCH   5  31
HETATM   31  C   UNK N   1      34.213  16.166   7.950  0.00  0.00     0.086 A 
HETATM   32  O   UNK N   1      33.019  15.769   7.593  0.00  0.00    -0.313 OA
HETATM   33  C   UNK N   1      32.160  16.701   7.783  0.00  0.00     0.071 A 
HETATM   34  C   UNK N   1      32.801  17.826   8.293  0.00  0.00     0.037 A 
HETATM   35  C   UNK N   1      34.152  17.469   8.408  0.00  0.00     0.040 A 
BRANCH  33  36
HETATM   36  C   UNK N   1      30.715  16.439   7.494  0.00  0.00     0.179 C 
BRANCH  36  37
HETATM   37  N   UNK N   1      30.060  17.564   6.876  0.00  0.00    -0.415 N 
HETATM   38  H   UNK N   1      30.498  18.302   6.326  0.00  0.00     0.153 HD
BRANCH  37  39
HETATM   39  C   UNK N   1      28.656  17.434   7.195  0.00  0.00     0.129 C 
BRANCH  39  40
HETATM   40  C   UNK N   1      28.102  18.817   7.400  0.00  0.00     0.159 C 
BRANCH  40  41
HETATM   41  S   UNK N   1      27.448  19.439   5.832  0.00  0.00     0.142 S 
HETATM   42  O   UNK N   1      28.482  19.400   4.693  0.00  0.00    -0.228 OA
HETATM   43  O   UNK N   1      27.825  20.869   6.216  0.00  0.00    -0.228 OA
HETATM   44  C   UNK N   1      25.816  19.953   5.238  0.00  0.00     0.161 C 
ENDBRANCH  40  41
ENDBRANCH  39  40
ENDBRANCH  37  39
ENDBRANCH  36  37
ENDBRANCH  33  36
ENDBRANCH   5  31
TORSDOF 11
ENDMDL
