MODEL 1
REMARK VINA RESULT:      -7.9      0.000      0.000
REMARK  4 active torsions:
REMARK  status: ('A' for Active; 'I' for Inactive)
REMARK    1  A    between atoms: C_15  and  O_3 
REMARK    2  A    between atoms: O_5  and  C_25 
REMARK    3  A    between atoms: C_10  and  C_21 
REMARK    4  A    between atoms: C_21  and  C_25 
ROOT
HETATM    1  O   UNK N   1      35.027  15.793   8.356  0.00  0.00    -0.334 OA
HETATM    2  O   UNK N   1      34.084  14.641  10.121  0.00  0.00    -0.347 OA
HETATM    3  O   UNK N   1      25.773  20.154   5.407  0.00  0.00    -0.289 OA
HETATM    4  C   UNK N   1      32.921  16.101   7.191  0.00  0.00     0.004 C 
HETATM    5  C   UNK N   1      32.065  16.552   8.390  0.00  0.00     0.004 C 
HETATM    6  C   UNK N   1      30.614  17.015   8.037  0.00  0.00    -0.001 C 
HETATM    7  C   UNK N   1      33.938  15.098   7.810  0.00  0.00     0.160 C 
HETATM    8  C   UNK N   1      30.503  17.562   6.598  0.00  0.00     0.035 C 
HETATM    9  C   UNK N   1      33.229  14.495   9.025  0.00  0.00     0.168 C 
HETATM   10  C   UNK N   1      31.973  15.315   9.272  0.00  0.00     0.041 C 
HETATM   11  C   UNK N   1      31.999  15.461   6.146  0.00  0.00     0.045 C 
HETATM   12  C   UNK N   1      30.974  16.470   5.591  0.00  0.00     0.124 C 
HETATM   13  C   UNK N   1      29.033  17.964   6.283  0.00  0.00     0.004 C 
HETATM   14  C   UNK N   1      30.180  18.070   9.063  0.00  0.00     0.010 C 
HETATM   15  C   UNK N   1      33.653  17.273   6.522  0.00  0.00     0.019 C 
HETATM   16  C   UNK N   1      28.831  18.745   8.799  0.00  0.00     0.036 C 
HETATM   17  C   UNK N   1      35.255  15.234   9.625  0.00  0.00     0.159 C 
HETATM   18  C   UNK N   1      28.449  18.888   7.350  0.00  0.00    -0.064 C 
HETATM   19  C   UNK N   1      28.142  16.714   6.274  0.00  0.00     0.025 C 
HETATM   20  C   UNK N   1      28.888  18.577   4.900  0.00  0.00    -0.009 C 
HETATM   21  C   UNK N   1      36.360  14.192   9.554  0.00  0.00     0.078 C 
HETATM   22  C   UNK N   1      35.688  16.343  10.563  0.00  0.00     0.078 C 
HETATM   23  C   UNK N   1      27.334  19.587   7.065  0.00  0.00     0.058 C 
HETATM   24  C   UNK N   1      27.790  19.284   4.585  0.00  0.00     0.052 C 
HETATM   25  C   UNK N   1      26.863  19.679   5.665  0.00  0.00     0.171 C 
ENDROOT
BRANCH   7  26
HETATM   26  C   UNK N   1      34.465  14.108   6.773  0.00  0.00     0.188 C 
HETATM   27  O   UNK N   1      34.240  12.915   6.917  0.00  0.00    -0.292 OA
BRANCH  26  28
HETATM   28  C   UNK N   1      35.315  14.547   5.619  0.00  0.00     0.245 C 
BRANCH  28  29
HETATM   29  O   UNK N   1      36.576  14.937   6.066  0.00  0.00    -0.393 OA
HETATM   30  H   UNK N   1      37.001  15.725   5.693  0.00  0.00     0.209 HD
ENDBRANCH  28  29
ENDBRANCH  26  28
ENDBRANCH   7  26
BRANCH  12  31
HETATM   31  O   UNK N   1      31.434  17.055   4.407  0.00  0.00    -0.395 OA
HETATM   32  H   UNK N   1      31.109  17.196   3.504  0.00  0.00     0.210 HD
ENDBRANCH  12  31
TORSDOF 4
ENDMDL
MODEL 2
REMARK VINA RESULT:      -7.9     12.189     16.320
REMARK  4 active torsions:
REMARK  status: ('A' for Active; 'I' for Inactive)
REMARK    1  A    between atoms: C_15  and  O_3 
REMARK    2  A    between atoms: O_5  and  C_25 
REMARK    3  A    between atoms: C_10  and  C_21 
REMARK    4  A    between atoms: C_21  and  C_25 
ROOT
HETATM    1  O   UNK N   1      26.935  26.461  -5.977  0.00  0.00    -0.334 OA
HETATM    2  O   UNK N   1      25.247  24.910  -6.255  0.00  0.00    -0.347 OA
HETATM    3  O   UNK N   1      34.439  19.025  -4.648  0.00  0.00    -0.289 OA
HETATM    4  C   UNK N   1      28.433  24.907  -4.869  0.00  0.00     0.004 C 
HETATM    5  C   UNK N   1      28.265  23.711  -5.826  0.00  0.00     0.004 C 
HETATM    6  C   UNK N   1      29.209  22.496  -5.549  0.00  0.00    -0.001 C 
HETATM    7  C   UNK N   1      27.038  25.596  -4.878  0.00  0.00     0.160 C 
HETATM    8  C   UNK N   1      30.526  22.918  -4.861  0.00  0.00     0.035 C 
HETATM    9  C   UNK N   1      26.032  24.482  -5.181  0.00  0.00     0.168 C 
HETATM   10  C   UNK N   1      26.827  23.260  -5.613  0.00  0.00     0.041 C 
HETATM   11  C   UNK N   1      28.837  24.374  -3.488  0.00  0.00     0.045 C 
HETATM   12  C   UNK N   1      30.200  23.655  -3.528  0.00  0.00     0.124 C 
HETATM   13  C   UNK N   1      31.406  21.669  -4.566  0.00  0.00     0.004 C 
HETATM   14  C   UNK N   1      29.486  21.786  -6.880  0.00  0.00     0.010 C 
HETATM   15  C   UNK N   1      29.523  25.881  -5.337  0.00  0.00     0.019 C 
HETATM   16  C   UNK N   1      30.508  20.646  -6.831  0.00  0.00     0.036 C 
HETATM   17  C   UNK N   1      25.683  26.208  -6.563  0.00  0.00     0.159 C 
HETATM   18  C   UNK N   1      31.600  20.797  -5.806  0.00  0.00    -0.064 C 
HETATM   19  C   UNK N   1      30.713  20.777  -3.527  0.00  0.00     0.025 C 
HETATM   20  C   UNK N   1      32.747  22.043  -3.955  0.00  0.00    -0.009 C 
HETATM   21  C   UNK N   1      24.656  27.217  -6.074  0.00  0.00     0.078 C 
HETATM   22  C   UNK N   1      25.825  26.342  -8.065  0.00  0.00     0.078 C 
HETATM   23  C   UNK N   1      32.590  19.886  -5.811  0.00  0.00     0.058 C 
HETATM   24  C   UNK N   1      33.756  21.157  -3.948  0.00  0.00     0.052 C 
HETATM   25  C   UNK N   1      33.638  19.934  -4.767  0.00  0.00     0.171 C 
ENDROOT
BRANCH   7  26
HETATM   26  C   UNK N   1      26.791  26.401  -3.603  0.00  0.00     0.188 C 
HETATM   27  O   UNK N   1      26.193  25.881  -2.673  0.00  0.00    -0.292 OA
BRANCH  26  28
HETATM   28  C   UNK N   1      27.199  27.839  -3.483  0.00  0.00     0.245 C 
BRANCH  28  29
HETATM   29  O   UNK N   1      26.136  28.607  -3.010  0.00  0.00    -0.393 OA
HETATM   30  H   UNK N   1      25.531  29.035  -3.634  0.00  0.00     0.209 HD
ENDBRANCH  28  29
ENDBRANCH  26  28
ENDBRANCH   7  26
BRANCH  12  31
HETATM   31  O   UNK N   1      31.237  24.525  -3.177  0.00  0.00    -0.395 OA
HETATM   32  H   UNK N   1      31.616  25.356  -3.502  0.00  0.00     0.210 HD
ENDBRANCH  12  31
TORSDOF 4
ENDMDL
MODEL 3
REMARK VINA RESULT:      -7.5      3.082      6.013
REMARK  4 active torsions:
REMARK  status: ('A' for Active; 'I' for Inactive)
REMARK    1  A    between atoms: C_15  and  O_3 
REMARK    2  A    between atoms: O_5  and  C_25 
REMARK    3  A    between atoms: C_10  and  C_21 
REMARK    4  A    between atoms: C_21  and  C_25 
ROOT
HETATM    1  O   UNK N   1      36.135  11.605  11.550  0.00  0.00    -0.334 OA
HETATM    2  O   UNK N   1      38.286  12.367  11.193  0.00  0.00    -0.347 OA
HETATM    3  O   UNK N   1      31.948  17.968   4.111  0.00  0.00    -0.289 OA
HETATM    4  C   UNK N   1      35.082  13.542  10.537  0.00  0.00     0.004 C 
HETATM    5  C   UNK N   1      35.957  13.638   9.272  0.00  0.00     0.004 C 
HETATM    6  C   UNK N   1      35.503  14.708   8.226  0.00  0.00    -0.001 C 
HETATM    7  C   UNK N   1      36.054  13.003  11.627  0.00  0.00     0.160 C 
HETATM    8  C   UNK N   1      33.987  14.992   8.293  0.00  0.00     0.035 C 
HETATM    9  C   UNK N   1      37.446  13.484  11.209  0.00  0.00     0.168 C 
HETATM   10  C   UNK N   1      37.331  14.030   9.795  0.00  0.00     0.041 C 
HETATM   11  C   UNK N   1      34.530  14.937  10.855  0.00  0.00     0.045 C 
HETATM   12  C   UNK N   1      33.612  15.459   9.732  0.00  0.00     0.124 C 
HETATM   13  C   UNK N   1      33.597  16.096   7.267  0.00  0.00     0.004 C 
HETATM   14  C   UNK N   1      35.911  14.222   6.830  0.00  0.00     0.010 C 
HETATM   15  C   UNK N   1      33.891  12.592  10.353  0.00  0.00     0.019 C 
HETATM   16  C   UNK N   1      35.427  15.078   5.655  0.00  0.00     0.036 C 
HETATM   17  C   UNK N   1      37.502  11.284  11.621  0.00  0.00     0.159 C 
HETATM   18  C   UNK N   1      34.113  15.782   5.864  0.00  0.00    -0.064 C 
HETATM   19  C   UNK N   1      34.244  17.430   7.667  0.00  0.00     0.025 C 
HETATM   20  C   UNK N   1      32.101  16.357   7.246  0.00  0.00    -0.009 C 
HETATM   21  C   UNK N   1      37.884  10.913  13.045  0.00  0.00     0.078 C 
HETATM   22  C   UNK N   1      37.759  10.095  10.718  0.00  0.00     0.078 C 
HETATM   23  C   UNK N   1      33.586  16.442   4.816  0.00  0.00     0.058 C 
HETATM   24  C   UNK N   1      31.543  17.010   6.213  0.00  0.00     0.052 C 
HETATM   25  C   UNK N   1      32.345  17.228   4.992  0.00  0.00     0.171 C 
ENDROOT
BRANCH   7  26
HETATM   26  C   UNK N   1      35.600  13.385  13.034  0.00  0.00     0.188 C 
HETATM   27  O   UNK N   1      34.606  12.853  13.507  0.00  0.00    -0.292 OA
BRANCH  26  28
HETATM   28  C   UNK N   1      36.296  14.448  13.830  0.00  0.00     0.245 C 
BRANCH  28  29
HETATM   29  O   UNK N   1      37.119  13.871  14.795  0.00  0.00    -0.393 OA
HETATM   30  H   UNK N   1      37.633  13.077  14.583  0.00  0.00     0.209 HD
ENDBRANCH  28  29
ENDBRANCH  26  28
ENDBRANCH   7  26
BRANCH  12  31
HETATM   31  O   UNK N   1      32.270  15.180  10.008  0.00  0.00    -0.395 OA
HETATM   32  H   UNK N   1      31.466  15.675  10.229  0.00  0.00     0.210 HD
ENDBRANCH  12  31
TORSDOF 4
ENDMDL
MODEL 4
REMARK VINA RESULT:      -7.2      1.584      2.236
REMARK  4 active torsions:
REMARK  status: ('A' for Active; 'I' for Inactive)
REMARK    1  A    between atoms: C_15  and  O_3 
REMARK    2  A    between atoms: O_5  and  C_25 
REMARK    3  A    between atoms: C_10  and  C_21 
REMARK    4  A    between atoms: C_21  and  C_25 
ROOT
HETATM    1  O   UNK N   1      33.532  16.513   6.770  0.00  0.00    -0.334 OA
HETATM    2  O   UNK N   1      32.815  15.981   8.900  0.00  0.00    -0.347 OA
HETATM    3  O   UNK N   1      24.097  20.517   3.885  0.00  0.00    -0.289 OA
HETATM    4  C   UNK N   1      31.293  16.630   5.845  0.00  0.00     0.004 C 
HETATM    5  C   UNK N   1      30.631  17.464   6.959  0.00  0.00     0.004 C 
HETATM    6  C   UNK N   1      29.160  17.911   6.675  0.00  0.00    -0.001 C 
HETATM    7  C   UNK N   1      32.354  15.773   6.594  0.00  0.00     0.160 C 
HETATM    8  C   UNK N   1      28.863  18.034   5.165  0.00  0.00     0.035 C 
HETATM    9  C   UNK N   1      31.808  15.592   8.012  0.00  0.00     0.168 C 
HETATM   10  C   UNK N   1      30.627  16.538   8.167  0.00  0.00     0.041 C 
HETATM   11  C   UNK N   1      30.210  15.788   5.158  0.00  0.00     0.045 C 
HETATM   12  C   UNK N   1      29.150  16.670   4.469  0.00  0.00     0.124 C 
HETATM   13  C   UNK N   1      27.376  18.435   4.938  0.00  0.00     0.004 C 
HETATM   14  C   UNK N   1      28.913  19.242   7.396  0.00  0.00     0.010 C 
HETATM   15  C   UNK N   1      31.959  17.508   4.776  0.00  0.00     0.019 C 
HETATM   16  C   UNK N   1      27.562  19.911   7.121  0.00  0.00     0.036 C 
HETATM   17  C   UNK N   1      33.921  16.323   8.107  0.00  0.00     0.159 C 
HETATM   18  C   UNK N   1      26.981  19.664   5.755  0.00  0.00    -0.064 C 
HETATM   19  C   UNK N   1      26.454  17.301   5.407  0.00  0.00     0.025 C 
HETATM   20  C   UNK N   1      27.056  18.639   3.466  0.00  0.00    -0.009 C 
HETATM   21  C   UNK N   1      34.970  15.226   8.202  0.00  0.00     0.078 C 
HETATM   22  C   UNK N   1      34.519  17.618   8.618  0.00  0.00     0.078 C 
HETATM   23  C   UNK N   1      25.861  20.332   5.423  0.00  0.00     0.058 C 
HETATM   24  C   UNK N   1      25.947  19.305   3.103  0.00  0.00     0.052 C 
HETATM   25  C   UNK N   1      25.198  20.057   4.130  0.00  0.00     0.171 C 
ENDROOT
BRANCH   7  26
HETATM   26  C   UNK N   1      32.695  14.494   5.832  0.00  0.00     0.188 C 
HETATM   27  O   UNK N   1      32.337  13.416   6.283  0.00  0.00    -0.292 OA
BRANCH  26  28
HETATM   28  C   UNK N   1      33.520  14.513   4.580  0.00  0.00     0.245 C 
BRANCH  28  29
HETATM   29  O   UNK N   1      34.876  14.426   4.891  0.00  0.00    -0.393 OA
HETATM   30  H   UNK N   1      35.180  14.612   5.793  0.00  0.00     0.209 HD
ENDBRANCH  28  29
ENDBRANCH  26  28
ENDBRANCH   7  26
BRANCH  12  31
HETATM   31  O   UNK N   1      29.454  16.859   3.117  0.00  0.00    -0.395 OA
HETATM   32  H   UNK N   1      30.130  16.565   2.487  0.00  0.00     0.210 HD
ENDBRANCH  12  31
TORSDOF 4
ENDMDL
MODEL 5
REMARK VINA RESULT:      -6.9      7.709     12.191
REMARK  4 active torsions:
REMARK  status: ('A' for Active; 'I' for Inactive)
REMARK    1  A    between atoms: C_15  and  O_3 
REMARK    2  A    between atoms: O_5  and  C_25 
REMARK    3  A    between atoms: C_10  and  C_21 
REMARK    4  A    between atoms: C_21  and  C_25 
ROOT
HETATM    1  O   UNK N   1      35.077  12.241  12.076  0.00  0.00    -0.334 OA
HETATM    2  O   UNK N   1      36.731  13.815  12.422  0.00  0.00    -0.347 OA
HETATM    3  O   UNK N   1      34.703   9.419  22.336  0.00  0.00    -0.289 OA
HETATM    4  C   UNK N   1      35.545  11.028  14.124  0.00  0.00     0.004 C 
HETATM    5  C   UNK N   1      35.652  12.233  15.080  0.00  0.00     0.004 C 
HETATM    6  C   UNK N   1      35.806  11.873  16.593  0.00  0.00    -0.001 C 
HETATM    7  C   UNK N   1      36.093  11.569  12.772  0.00  0.00     0.160 C 
HETATM    8  C   UNK N   1      35.180  10.505  16.941  0.00  0.00     0.035 C 
HETATM    9  C   UNK N   1      37.087  12.672  13.145  0.00  0.00     0.168 C 
HETATM   10  C   UNK N   1      36.912  12.958  14.628  0.00  0.00     0.041 C 
HETATM   11  C   UNK N   1      36.378   9.875  14.699  0.00  0.00     0.045 C 
HETATM   12  C   UNK N   1      35.835   9.398  16.060  0.00  0.00     0.124 C 
HETATM   13  C   UNK N   1      35.402  10.175  18.445  0.00  0.00     0.004 C 
HETATM   14  C   UNK N   1      35.170  12.996  17.423  0.00  0.00     0.010 C 
HETATM   15  C   UNK N   1      34.099  10.535  13.967  0.00  0.00     0.019 C 
HETATM   16  C   UNK N   1      35.102  12.754  18.934  0.00  0.00     0.036 C 
HETATM   17  C   UNK N   1      35.642  13.444  11.619  0.00  0.00     0.159 C 
HETATM   18  C   UNK N   1      34.953  11.316  19.356  0.00  0.00    -0.064 C 
HETATM   19  C   UNK N   1      36.899   9.979  18.720  0.00  0.00     0.025 C 
HETATM   20  C   UNK N   1      34.739   8.869  18.850  0.00  0.00    -0.009 C 
HETATM   21  C   UNK N   1      36.102  13.299  10.177  0.00  0.00     0.078 C 
HETATM   22  C   UNK N   1      34.581  14.524  11.689  0.00  0.00     0.078 C 
HETATM   23  C   UNK N   1      34.761  11.067  20.664  0.00  0.00     0.058 C 
HETATM   24  C   UNK N   1      34.529   8.592  20.148  0.00  0.00     0.052 C 
HETATM   25  C   UNK N   1      34.702   9.668  21.144  0.00  0.00     0.171 C 
ENDROOT
BRANCH   7  26
HETATM   26  C   UNK N   1      36.629  10.447  11.885  0.00  0.00     0.188 C 
HETATM   27  O   UNK N   1      37.826  10.394  11.646  0.00  0.00    -0.292 OA
BRANCH  26  28
HETATM   28  C   UNK N   1      35.719   9.447  11.236  0.00  0.00     0.245 C 
BRANCH  28  29
HETATM   29  O   UNK N   1      34.803  10.091  10.407  0.00  0.00    -0.393 OA
HETATM   30  H   UNK N   1      33.996  10.477  10.783  0.00  0.00     0.209 HD
ENDBRANCH  28  29
ENDBRANCH  26  28
ENDBRANCH   7  26
BRANCH  12  31
HETATM   31  O   UNK N   1      34.968   8.313  15.904  0.00  0.00    -0.395 OA
HETATM   32  H   UNK N   1      34.115   8.019  16.262  0.00  0.00     0.210 HD
ENDBRANCH  12  31
TORSDOF 4
ENDMDL
MODEL 6
REMARK VINA RESULT:      -6.9      4.109      9.127
REMARK  4 active torsions:
REMARK  status: ('A' for Active; 'I' for Inactive)
REMARK    1  A    between atoms: C_15  and  O_3 
REMARK    2  A    between atoms: O_5  and  C_25 
REMARK    3  A    between atoms: C_10  and  C_21 
REMARK    4  A    between atoms: C_21  and  C_25 
ROOT
HETATM    1  O   UNK N   1      35.164  15.169   7.321  0.00  0.00    -0.334 OA
HETATM    2  O   UNK N   1      33.434  13.781   6.678  0.00  0.00    -0.347 OA
HETATM    3  O   UNK N   1      37.180   9.634  16.190  0.00  0.00    -0.289 OA
HETATM    4  C   UNK N   1      35.091  14.488   9.649  0.00  0.00     0.004 C 
HETATM    5  C   UNK N   1      35.004  12.965   9.435  0.00  0.00     0.004 C 
HETATM    6  C   UNK N   1      35.090  12.102  10.736  0.00  0.00    -0.001 C 
HETATM    7  C   UNK N   1      34.318  15.084   8.437  0.00  0.00     0.160 C 
HETATM    8  C   UNK N   1      35.880  12.807  11.859  0.00  0.00     0.035 C 
HETATM    9  C   UNK N   1      33.286  14.022   8.047  0.00  0.00     0.168 C 
HETATM   10  C   UNK N   1      33.633  12.753   8.808  0.00  0.00     0.041 C 
HETATM   11  C   UNK N   1      34.454  14.828  11.002  0.00  0.00     0.045 C 
HETATM   12  C   UNK N   1      35.217  14.182  12.174  0.00  0.00     0.124 C 
HETATM   13  C   UNK N   1      35.896  11.928  13.144  0.00  0.00     0.004 C 
HETATM   14  C   UNK N   1      35.726  10.752  10.379  0.00  0.00     0.010 C 
HETATM   15  C   UNK N   1      36.541  14.993   9.669  0.00  0.00     0.019 C 
HETATM   16  C   UNK N   1      36.020   9.819  11.557  0.00  0.00     0.036 C 
HETATM   17  C   UNK N   1      34.434  14.659   6.233  0.00  0.00     0.159 C 
HETATM   18  C   UNK N   1      36.356  10.500  12.857  0.00  0.00    -0.064 C 
HETATM   19  C   UNK N   1      34.473  11.807  13.709  0.00  0.00     0.025 C 
HETATM   20  C   UNK N   1      36.725  12.549  14.255  0.00  0.00    -0.009 C 
HETATM   21  C   UNK N   1      33.799  15.793   5.444  0.00  0.00     0.078 C 
HETATM   22  C   UNK N   1      35.391  13.908   5.330  0.00  0.00     0.078 C 
HETATM   23  C   UNK N   1      36.746   9.724  13.885  0.00  0.00     0.058 C 
HETATM   24  C   UNK N   1      37.133  11.801  15.293  0.00  0.00     0.052 C 
HETATM   25  C   UNK N   1      36.998  10.333  15.210  0.00  0.00     0.171 C 
ENDROOT
BRANCH   7  26
HETATM   26  C   UNK N   1      33.773  16.479   8.739  0.00  0.00     0.188 C 
HETATM   27  O   UNK N   1      32.570  16.629   8.900  0.00  0.00    -0.292 OA
BRANCH  26  28
HETATM   28  C   UNK N   1      34.661  17.687   8.773  0.00  0.00     0.245 C 
BRANCH  28  29
HETATM   29  O   UNK N   1      34.714  18.285   7.516  0.00  0.00    -0.393 OA
HETATM   30  H   UNK N   1      34.520  17.764   6.721  0.00  0.00     0.209 HD
ENDBRANCH  28  29
ENDBRANCH  26  28
ENDBRANCH   7  26
BRANCH  12  31
HETATM   31  O   UNK N   1      36.152  15.069  12.716  0.00  0.00    -0.395 OA
HETATM   32  H   UNK N   1      37.088  15.057  12.969  0.00  0.00     0.210 HD
ENDBRANCH  12  31
TORSDOF 4
ENDMDL
MODEL 7
REMARK VINA RESULT:      -6.9      2.074      4.423
REMARK  4 active torsions:
REMARK  status: ('A' for Active; 'I' for Inactive)
REMARK    1  A    between atoms: C_15  and  O_3 
REMARK    2  A    between atoms: O_5  and  C_25 
REMARK    3  A    between atoms: C_10  and  C_21 
REMARK    4  A    between atoms: C_21  and  C_25 
ROOT
HETATM    1  O   UNK N   1      35.783  11.852   7.836  0.00  0.00    -0.334 OA
HETATM    2  O   UNK N   1      36.999  13.004   6.246  0.00  0.00    -0.347 OA
HETATM    3  O   UNK N   1      27.990  19.104   8.077  0.00  0.00    -0.289 OA
HETATM    4  C   UNK N   1      34.492  13.789   8.521  0.00  0.00     0.004 C 
HETATM    5  C   UNK N   1      34.132  14.326   7.122  0.00  0.00     0.004 C 
HETATM    6  C   UNK N   1      33.140  15.534   7.105  0.00  0.00    -0.001 C 
HETATM    7  C   UNK N   1      35.902  13.159   8.331  0.00  0.00     0.160 C 
HETATM    8  C   UNK N   1      32.214  15.554   8.340  0.00  0.00     0.035 C 
HETATM    9  C   UNK N   1      36.549  13.939   7.184  0.00  0.00     0.168 C 
HETATM   10  C   UNK N   1      35.462  14.789   6.545  0.00  0.00     0.041 C 
HETATM   11  C   UNK N   1      34.480  14.961   9.511  0.00  0.00     0.045 C 
HETATM   12  C   UNK N   1      33.079  15.591   9.636  0.00  0.00     0.124 C 
HETATM   13  C   UNK N   1      31.281  16.799   8.298  0.00  0.00     0.004 C 
HETATM   14  C   UNK N   1      32.327  15.474   5.807  0.00  0.00     0.010 C 
HETATM   15  C   UNK N   1      33.490  12.738   9.018  0.00  0.00     0.019 C 
HETATM   16  C   UNK N   1      31.201  16.503   5.674  0.00  0.00     0.036 C 
HETATM   17  C   UNK N   1      36.712  11.742   6.786  0.00  0.00     0.159 C 
HETATM   18  C   UNK N   1      30.547  16.922   6.964  0.00  0.00    -0.064 C 
HETATM   19  C   UNK N   1      32.116  18.079   8.440  0.00  0.00     0.025 C 
HETATM   20  C   UNK N   1      30.300  16.821   9.458  0.00  0.00    -0.009 C 
HETATM   21  C   UNK N   1      37.997  11.098   7.283  0.00  0.00     0.078 C 
HETATM   22  C   UNK N   1      36.109  10.864   5.708  0.00  0.00     0.078 C 
HETATM   23  C   UNK N   1      29.472  17.727   6.886  0.00  0.00     0.058 C 
HETATM   24  C   UNK N   1      29.214  17.610   9.409  0.00  0.00     0.052 C 
HETATM   25  C   UNK N   1      28.849  18.242   8.125  0.00  0.00     0.171 C 
ENDROOT
BRANCH   7  26
HETATM   26  C   UNK N   1      36.686  13.110   9.642  0.00  0.00     0.188 C 
HETATM   27  O   UNK N   1      36.365  12.301  10.501  0.00  0.00    -0.292 OA
BRANCH  26  28
HETATM   28  C   UNK N   1      37.794  14.076   9.939  0.00  0.00     0.245 C 
BRANCH  28  29
HETATM   29  O   UNK N   1      38.601  13.587  10.964  0.00  0.00    -0.393 OA
HETATM   30  H   UNK N   1      39.544  13.427  10.805  0.00  0.00     0.209 HD
ENDBRANCH  28  29
ENDBRANCH  26  28
ENDBRANCH   7  26
BRANCH  12  31
HETATM   31  O   UNK N   1      32.377  15.046  10.715  0.00  0.00    -0.395 OA
HETATM   32  H   UNK N   1      31.630  15.294  11.282  0.00  0.00     0.210 HD
ENDBRANCH  12  31
TORSDOF 4
ENDMDL
MODEL 8
REMARK VINA RESULT:      -6.8     12.202     16.058
REMARK  4 active torsions:
REMARK  status: ('A' for Active; 'I' for Inactive)
REMARK    1  A    between atoms: C_15  and  O_3 
REMARK    2  A    between atoms: O_5  and  C_25 
REMARK    3  A    between atoms: C_10  and  C_21 
REMARK    4  A    between atoms: C_21  and  C_25 
ROOT
HETATM    1  O   UNK N   1      27.799  26.223  -4.092  0.00  0.00    -0.334 OA
HETATM    2  O   UNK N   1      28.123  27.064  -6.218  0.00  0.00    -0.347 OA
HETATM    3  O   UNK N   1      36.379  19.937  -4.561  0.00  0.00    -0.289 OA
HETATM    4  C   UNK N   1      29.161  24.250  -4.464  0.00  0.00     0.004 C 
HETATM    5  C   UNK N   1      30.366  24.933  -5.141  0.00  0.00     0.004 C 
HETATM    6  C   UNK N   1      31.590  24.002  -5.422  0.00  0.00    -0.001 C 
HETATM    7  C   UNK N   1      27.940  25.100  -4.921  0.00  0.00     0.160 C 
HETATM    8  C   UNK N   1      31.667  22.816  -4.437  0.00  0.00     0.035 C 
HETATM    9  C   UNK N   1      28.333  25.684  -6.281  0.00  0.00     0.168 C 
HETATM   10  C   UNK N   1      29.819  25.422  -6.474  0.00  0.00     0.041 C 
HETATM   11  C   UNK N   1      29.097  22.793  -4.938  0.00  0.00     0.045 C 
HETATM   12  C   UNK N   1      30.344  21.995  -4.510  0.00  0.00     0.124 C 
HETATM   13  C   UNK N   1      32.873  21.897  -4.789  0.00  0.00     0.004 C 
HETATM   14  C   UNK N   1      32.866  24.851  -5.364  0.00  0.00     0.010 C 
HETATM   15  C   UNK N   1      29.277  24.245  -2.933  0.00  0.00     0.019 C 
HETATM   16  C   UNK N   1      34.186  24.083  -5.479  0.00  0.00     0.036 C 
HETATM   17  C   UNK N   1      27.589  27.320  -4.946  0.00  0.00     0.159 C 
HETATM   18  C   UNK N   1      34.175  22.684  -4.923  0.00  0.00    -0.064 C 
HETATM   19  C   UNK N   1      32.639  21.232  -6.153  0.00  0.00     0.025 C 
HETATM   20  C   UNK N   1      33.032  20.754  -3.800  0.00  0.00    -0.009 C 
HETATM   21  C   UNK N   1      26.103  27.616  -5.071  0.00  0.00     0.078 C 
HETATM   22  C   UNK N   1      28.282  28.527  -4.348  0.00  0.00     0.078 C 
HETATM   23  C   UNK N   1      35.344  22.018  -4.887  0.00  0.00     0.058 C 
HETATM   24  C   UNK N   1      34.187  20.072  -3.737  0.00  0.00     0.052 C 
HETATM   25  C   UNK N   1      35.372  20.608  -4.437  0.00  0.00     0.171 C 
ENDROOT
BRANCH   7  26
HETATM   26  C   UNK N   1      26.640  24.299  -4.878  0.00  0.00     0.188 C 
HETATM   27  O   UNK N   1      26.075  24.133  -3.808  0.00  0.00    -0.292 OA
BRANCH  26  28
HETATM   28  C   UNK N   1      26.072  23.646  -6.103  0.00  0.00     0.245 C 
BRANCH  28  29
HETATM   29  O   UNK N   1      25.188  24.510  -6.747  0.00  0.00    -0.393 OA
HETATM   30  H   UNK N   1      24.245  24.499  -6.518  0.00  0.00     0.209 HD
ENDBRANCH  28  29
ENDBRANCH  26  28
ENDBRANCH   7  26
BRANCH  12  31
HETATM   31  O   UNK N   1      30.118  21.313  -3.311  0.00  0.00    -0.395 OA
HETATM   32  H   UNK N   1      29.455  21.309  -2.603  0.00  0.00     0.210 HD
ENDBRANCH  12  31
TORSDOF 4
ENDMDL
MODEL 9
REMARK VINA RESULT:      -6.8      1.670      2.260
REMARK  4 active torsions:
REMARK  status: ('A' for Active; 'I' for Inactive)
REMARK    1  A    between atoms: C_15  and  O_3 
REMARK    2  A    between atoms: O_5  and  C_25 
REMARK    3  A    between atoms: C_10  and  C_21 
REMARK    4  A    between atoms: C_21  and  C_25 
ROOT
HETATM    1  O   UNK N   1      34.811  14.685   5.720  0.00  0.00    -0.334 OA
HETATM    2  O   UNK N   1      34.101  13.245   7.379  0.00  0.00    -0.347 OA
HETATM    3  O   UNK N   1      26.007  20.652   6.223  0.00  0.00    -0.289 OA
HETATM    4  C   UNK N   1      32.583  15.507   5.222  0.00  0.00     0.004 C 
HETATM    5  C   UNK N   1      32.101  15.740   6.667  0.00  0.00     0.004 C 
HETATM    6  C   UNK N   1      30.707  16.436   6.803  0.00  0.00    -0.001 C 
HETATM    7  C   UNK N   1      33.526  14.275   5.334  0.00  0.00     0.160 C 
HETATM    8  C   UNK N   1      30.376  17.332   5.590  0.00  0.00     0.035 C 
HETATM    9  C   UNK N   1      33.012  13.472   6.532  0.00  0.00     0.168 C 
HETATM   10  C   UNK N   1      31.999  14.342   7.258  0.00  0.00     0.041 C 
HETATM   11  C   UNK N   1      31.358  15.254   4.335  0.00  0.00     0.045 C 
HETATM   12  C   UNK N   1      30.422  16.478   4.287  0.00  0.00     0.124 C 
HETATM   13  C   UNK N   1      28.962  17.962   5.753  0.00  0.00     0.004 C 
HETATM   14  C   UNK N   1      30.696  17.245   8.105  0.00  0.00     0.010 C 
HETATM   15  C   UNK N   1      33.336  16.719   4.655  0.00  0.00     0.019 C 
HETATM   16  C   UNK N   1      29.456  18.112   8.344  0.00  0.00     0.036 C 
HETATM   17  C   UNK N   1      35.216  13.807   6.740  0.00  0.00     0.159 C 
HETATM   18  C   UNK N   1      28.793  18.652   7.105  0.00  0.00    -0.064 C 
HETATM   19  C   UNK N   1      27.893  16.860   5.704  0.00  0.00     0.025 C 
HETATM   20  C   UNK N   1      28.622  18.911   4.616  0.00  0.00    -0.009 C 
HETATM   21  C   UNK N   1      36.085  12.698   6.169  0.00  0.00     0.078 C 
HETATM   22  C   UNK N   1      36.025  14.594   7.751  0.00  0.00     0.078 C 
HETATM   23  C   UNK N   1      27.777  19.520   7.269  0.00  0.00     0.058 C 
HETATM   24  C   UNK N   1      27.616  19.792   4.749  0.00  0.00     0.052 C 
HETATM   25  C   UNK N   1      27.031  20.008   6.088  0.00  0.00     0.171 C 
ENDROOT
BRANCH   7  26
HETATM   26  C   UNK N   1      33.637  13.520   4.010  0.00  0.00     0.188 C 
HETATM   27  O   UNK N   1      32.974  12.506   3.843  0.00  0.00    -0.292 OA
BRANCH  26  28
HETATM   28  C   UNK N   1      34.590  13.944   2.933  0.00  0.00     0.245 C 
BRANCH  28  29
HETATM   29  O   UNK N   1      33.905  14.592   1.907  0.00  0.00    -0.393 OA
HETATM   30  H   UNK N   1      33.084  15.072   2.098  0.00  0.00     0.209 HD
ENDBRANCH  28  29
ENDBRANCH  26  28
ENDBRANCH   7  26
BRANCH  12  31
HETATM   31  O   UNK N   1      30.701  17.282   3.178  0.00  0.00    -0.395 OA
HETATM   32  H   UNK N   1      31.476  17.706   2.777  0.00  0.00     0.210 HD
ENDBRANCH  12  31
TORSDOF 4
ENDMDL
