MODEL 1
REMARK VINA RESULT:      -7.8      0.000      0.000
REMARK  6 active torsions:
REMARK  status: ('A' for Active; 'I' for Inactive)
REMARK       I    between atoms: N_8  and  C_21 
REMARK    1  A    between atoms: C_20  and  N_12 
REMARK    2  A    between atoms: C_19  and  C_20 
REMARK    3  A    between atoms: C_19  and  C_21 
REMARK    4  A    between atoms: C_20  and  C_22 
REMARK    5  A    between atoms: C_22  and  C_24 
REMARK    6  A    between atoms: C_23  and  C_25 
ROOT
HETATM    1  O   UNK N   1      35.679  12.188  10.802  0.00  0.00    -0.273 OA
HETATM    2  N   UNK N   1      36.146  14.359  10.524  0.00  0.00    -0.344 N 
HETATM    3  N   UNK N   1      35.009  16.095   8.839  0.00  0.00    -0.314 N 
HETATM    4  N   UNK N   1      35.253  14.817   7.045  0.00  0.00    -0.286 N 
ATOM      5  HN  UNK N   1      35.572  14.068   6.431  1.00  0.00     0.188 HD
HETATM    6  N   UNK N   1      34.400  15.786   6.732  0.00  0.00    -0.280 N 
ATOM      7  HN  UNK N   1      33.942  15.922   5.832  1.00  0.00     0.188 HD
HETATM    8  C   UNK N   1      36.175  15.733  10.991  0.00  0.00     0.146 C 
HETATM    9  C   UNK N   1      35.156  16.580  10.213  0.00  0.00     0.152 C 
HETATM   10  C   UNK N   1      36.500  14.133   9.136  0.00  0.00     0.203 C 
HETATM   11  C   UNK N   1      35.614  15.013   8.326  0.00  0.00     0.118 A 
HETATM   12  C   UNK N   1      35.702  13.309  11.291  0.00  0.00     0.222 C 
HETATM   13  C   UNK N   1      34.251  16.561   7.830  0.00  0.00     0.209 A 
ENDROOT
BRANCH  12  14
HETATM   14  C   UNK N   1      35.183  13.433  12.716  0.00  0.00     0.127 C 
BRANCH  14  15
HETATM   15  C   UNK N   1      36.082  13.033  13.877  0.00  0.00     0.087 C 
BRANCH  15  16
HETATM   16  N   UNK N   1      37.419  12.707  13.397  0.00  0.00    -0.425 N 
HETATM   17  H   UNK N   1      38.292  12.803  12.880  0.00  0.00     0.150 HD
HETATM   18  H   UNK N   1      37.586  11.829  13.888  0.00  0.00     0.150 HD
ENDBRANCH  15  16
BRANCH  15  19
HETATM   19  C   UNK N   1      35.477  11.881  14.681  0.00  0.00     0.067 C 
BRANCH  19  20
HETATM   20  C   UNK N   1      35.386  12.158  16.149  0.00  0.00    -0.015 A 
HETATM   21  C   UNK N   1      35.345  11.092  17.060  0.00  0.00     0.125 A 
HETATM   22  F   UNK N   1      35.410   9.809  16.620  0.00  0.00    -0.205 F 
HETATM   23  C   UNK N   1      35.230  11.347  18.428  0.00  0.00     0.088 A 
HETATM   24  C   UNK N   1      35.153  12.664  18.892  0.00  0.00     0.157 A 
HETATM   25  F   UNK N   1      35.031  12.904  20.220  0.00  0.00    -0.203 F 
HETATM   26  C   UNK N   1      35.199  13.729  17.986  0.00  0.00     0.155 A 
HETATM   27  F   UNK N   1      35.121  15.007  18.428  0.00  0.00    -0.203 F 
HETATM   28  C   UNK N   1      35.319  13.476  16.619  0.00  0.00     0.055 A 
ENDBRANCH  19  20
ENDBRANCH  15  19
ENDBRANCH  14  15
ENDBRANCH  12  14
BRANCH  13  29
HETATM   29  C   UNK N   1      33.336  17.749   7.888  0.00  0.00     0.450 C 
HETATM   30  F   UNK N   1      32.735  17.923   6.656  0.00  0.00    -0.163 F 
HETATM   31  F   UNK N   1      32.362  17.522   8.841  0.00  0.00    -0.163 F 
HETATM   32  F   UNK N   1      34.019  18.905   8.218  0.00  0.00    -0.163 F 
ENDBRANCH  13  29
TORSDOF 6
ENDMDL
MODEL 2
REMARK VINA RESULT:      -7.6      2.029      2.700
REMARK  6 active torsions:
REMARK  status: ('A' for Active; 'I' for Inactive)
REMARK       I    between atoms: N_8  and  C_21 
REMARK    1  A    between atoms: C_20  and  N_12 
REMARK    2  A    between atoms: C_19  and  C_20 
REMARK    3  A    between atoms: C_19  and  C_21 
REMARK    4  A    between atoms: C_20  and  C_22 
REMARK    5  A    between atoms: C_22  and  C_24 
REMARK    6  A    between atoms: C_23  and  C_25 
ROOT
HETATM    1  O   UNK N   1      37.494  15.034  10.152  0.00  0.00    -0.273 OA
HETATM    2  N   UNK N   1      35.304  15.309  10.520  0.00  0.00    -0.344 N 
HETATM    3  N   UNK N   1      33.483  16.428   8.915  0.00  0.00    -0.314 N 
HETATM    4  N   UNK N   1      34.643  18.283   8.563  0.00  0.00    -0.286 N 
ATOM      5  HN  UNK N   1      35.348  19.013   8.663  1.00  0.00     0.188 HD
HETATM    6  N   UNK N   1      33.668  18.244   7.661  0.00  0.00    -0.280 N 
ATOM      7  HN  UNK N   1      33.483  18.941   6.940  1.00  0.00     0.188 HD
HETATM    8  C   UNK N   1      33.962  14.790  10.706  0.00  0.00     0.146 C 
HETATM    9  C   UNK N   1      33.082  15.145   9.498  0.00  0.00     0.152 C 
HETATM   10  C   UNK N   1      35.438  16.749  10.409  0.00  0.00     0.203 C 
HETATM   11  C   UNK N   1      34.522  17.175   9.316  0.00  0.00     0.118 A 
HETATM   12  C   UNK N   1      36.405  14.509  10.338  0.00  0.00     0.222 C 
HETATM   13  C   UNK N   1      32.965  17.110   7.877  0.00  0.00     0.209 A 
ENDROOT
BRANCH  12  14
HETATM   14  C   UNK N   1      36.378  12.987  10.303  0.00  0.00     0.127 C 
BRANCH  14  15
HETATM   15  C   UNK N   1      36.645  12.205  11.582  0.00  0.00     0.087 C 
BRANCH  15  16
HETATM   16  N   UNK N   1      37.277  10.929  11.275  0.00  0.00    -0.425 N 
HETATM   17  H   UNK N   1      37.426   9.920  11.265  0.00  0.00     0.150 HD
HETATM   18  H   UNK N   1      38.074  11.243  10.719  0.00  0.00     0.150 HD
ENDBRANCH  15  16
BRANCH  15  19
HETATM   19  C   UNK N   1      35.365  12.016  12.397  0.00  0.00     0.067 C 
BRANCH  19  20
HETATM   20  C   UNK N   1      35.474  12.512  13.806  0.00  0.00    -0.015 A 
HETATM   21  C   UNK N   1      34.556  12.075  14.772  0.00  0.00     0.125 A 
HETATM   22  F   UNK N   1      33.581  11.190  14.445  0.00  0.00    -0.205 F 
HETATM   23  C   UNK N   1      34.638  12.559  16.081  0.00  0.00     0.088 A 
HETATM   24  C   UNK N   1      35.632  13.478  16.428  0.00  0.00     0.157 A 
HETATM   25  F   UNK N   1      35.699  13.950  17.696  0.00  0.00    -0.203 F 
HETATM   26  C   UNK N   1      36.552  13.910  15.466  0.00  0.00     0.155 A 
HETATM   27  F   UNK N   1      37.515  14.804  15.795  0.00  0.00    -0.203 F 
HETATM   28  C   UNK N   1      36.475  13.425  14.160  0.00  0.00     0.055 A 
ENDBRANCH  19  20
ENDBRANCH  15  19
ENDBRANCH  14  15
ENDBRANCH  12  14
BRANCH  13  29
HETATM   29  C   UNK N   1      31.796  16.687   7.037  0.00  0.00     0.450 C 
HETATM   30  F   UNK N   1      31.648  17.569   5.983  0.00  0.00    -0.163 F 
HETATM   31  F   UNK N   1      32.032  15.420   6.539  0.00  0.00    -0.163 F 
HETATM   32  F   UNK N   1      30.622  16.664   7.768  0.00  0.00    -0.163 F 
ENDBRANCH  13  29
TORSDOF 6
ENDMDL
MODEL 3
REMARK VINA RESULT:      -7.6     11.026     15.090
REMARK  6 active torsions:
REMARK  status: ('A' for Active; 'I' for Inactive)
REMARK       I    between atoms: N_8  and  C_21 
REMARK    1  A    between atoms: C_20  and  N_12 
REMARK    2  A    between atoms: C_19  and  C_20 
REMARK    3  A    between atoms: C_19  and  C_21 
REMARK    4  A    between atoms: C_20  and  C_22 
REMARK    5  A    between atoms: C_22  and  C_24 
REMARK    6  A    between atoms: C_23  and  C_25 
ROOT
HETATM    1  O   UNK N   1      23.567  20.945   2.970  0.00  0.00    -0.273 OA
HETATM    2  N   UNK N   1      22.689  19.089   3.860  0.00  0.00    -0.344 N 
HETATM    3  N   UNK N   1      21.004  17.348   2.732  0.00  0.00    -0.314 N 
HETATM    4  N   UNK N   1      19.548  18.883   2.071  0.00  0.00    -0.286 N 
ATOM      5  HN  UNK N   1      19.061  19.774   1.981  1.00  0.00     0.188 HD
HETATM    6  N   UNK N   1      19.253  17.753   1.438  0.00  0.00    -0.280 N 
ATOM      7  HN  UNK N   1      18.494  17.613   0.772  1.00  0.00     0.188 HD
HETATM    8  C   UNK N   1      22.807  17.740   4.381  0.00  0.00     0.146 C 
HETATM    9  C   UNK N   1      22.145  16.740   3.420  0.00  0.00     0.152 C 
HETATM   10  C   UNK N   1      21.347  19.611   3.693  0.00  0.00     0.203 C 
HETATM   11  C   UNK N   1      20.613  18.626   2.851  0.00  0.00     0.118 A 
HETATM   12  C   UNK N   1      23.764  19.828   3.427  0.00  0.00     0.222 C 
HETATM   13  C   UNK N   1      20.145  16.821   1.841  0.00  0.00     0.209 A 
ENDROOT
BRANCH  12  14
HETATM   14  C   UNK N   1      25.207  19.347   3.429  0.00  0.00     0.127 C 
BRANCH  14  15
HETATM   15  C   UNK N   1      26.089  19.628   4.638  0.00  0.00     0.087 C 
BRANCH  15  16
HETATM   16  N   UNK N   1      25.900  20.997   5.097  0.00  0.00    -0.425 N 
HETATM   17  H   UNK N   1      25.982  22.014   5.115  0.00  0.00     0.150 HD
HETATM   18  H   UNK N   1      25.320  20.841   5.922  0.00  0.00     0.150 HD
ENDBRANCH  15  16
BRANCH  15  19
HETATM   19  C   UNK N   1      27.559  19.333   4.337  0.00  0.00     0.067 C 
BRANCH  19  20
HETATM   20  C   UNK N   1      28.287  18.693   5.479  0.00  0.00    -0.015 A 
HETATM   21  C   UNK N   1      29.264  17.720   5.225  0.00  0.00     0.125 A 
HETATM   22  F   UNK N   1      29.570  17.367   3.951  0.00  0.00    -0.205 F 
HETATM   23  C   UNK N   1      29.924  17.100   6.290  0.00  0.00     0.088 A 
HETATM   24  C   UNK N   1      29.611  17.447   7.607  0.00  0.00     0.157 A 
HETATM   25  F   UNK N   1      30.248  16.836   8.634  0.00  0.00    -0.203 F 
HETATM   26  C   UNK N   1      28.640  18.423   7.861  0.00  0.00     0.155 A 
HETATM   27  F   UNK N   1      28.329  18.761   9.135  0.00  0.00    -0.203 F 
HETATM   28  C   UNK N   1      27.983  19.046   6.800  0.00  0.00     0.055 A 
ENDBRANCH  19  20
ENDBRANCH  15  19
ENDBRANCH  14  15
ENDBRANCH  12  14
BRANCH  13  29
HETATM   29  C   UNK N   1      20.163  15.413   1.323  0.00  0.00     0.450 C 
HETATM   30  F   UNK N   1      19.171  15.262   0.373  0.00  0.00    -0.163 F 
HETATM   31  F   UNK N   1      21.391  15.162   0.741  0.00  0.00    -0.163 F 
HETATM   32  F   UNK N   1      19.956  14.492   2.334  0.00  0.00    -0.163 F 
ENDBRANCH  13  29
TORSDOF 6
ENDMDL
MODEL 4
REMARK VINA RESULT:      -7.6     12.885     14.620
REMARK  6 active torsions:
REMARK  status: ('A' for Active; 'I' for Inactive)
REMARK       I    between atoms: N_8  and  C_21 
REMARK    1  A    between atoms: C_20  and  N_12 
REMARK    2  A    between atoms: C_19  and  C_20 
REMARK    3  A    between atoms: C_19  and  C_21 
REMARK    4  A    between atoms: C_20  and  C_22 
REMARK    5  A    between atoms: C_22  and  C_24 
REMARK    6  A    between atoms: C_23  and  C_25 
ROOT
HETATM    1  O   UNK N   1      18.823  15.363   5.730  0.00  0.00    -0.273 OA
HETATM    2  N   UNK N   1      20.566  15.422   4.328  0.00  0.00    -0.344 N 
HETATM    3  N   UNK N   1      22.172  17.483   3.766  0.00  0.00    -0.314 N 
HETATM    4  N   UNK N   1      20.526  18.899   3.321  0.00  0.00    -0.286 N 
ATOM      5  HN  UNK N   1      19.597  19.261   3.112  1.00  0.00     0.188 HD
HETATM    6  N   UNK N   1      21.641  19.610   3.456  0.00  0.00    -0.280 N 
ATOM      7  HN  UNK N   1      21.726  20.622   3.368  1.00  0.00     0.188 HD
HETATM    8  C   UNK N   1      21.906  15.029   3.934  0.00  0.00     0.146 C 
HETATM    9  C   UNK N   1      22.865  16.224   4.048  0.00  0.00     0.152 C 
HETATM   10  C   UNK N   1      19.927  16.451   3.532  0.00  0.00     0.203 C 
HETATM   11  C   UNK N   1      20.861  17.611   3.513  0.00  0.00     0.118 A 
HETATM   12  C   UNK N   1      19.941  14.950   5.456  0.00  0.00     0.222 C 
HETATM   13  C   UNK N   1      22.640  18.744   3.731  0.00  0.00     0.209 A 
ENDROOT
BRANCH  12  14
HETATM   14  C   UNK N   1      20.555  13.966   6.442  0.00  0.00     0.127 C 
BRANCH  14  15
HETATM   15  C   UNK N   1      21.163  14.485   7.738  0.00  0.00     0.087 C 
BRANCH  15  16
HETATM   16  N   UNK N   1      21.274  15.937   7.701  0.00  0.00    -0.425 N 
HETATM   17  H   UNK N   1      21.611  16.858   7.419  0.00  0.00     0.150 HD
HETATM   18  H   UNK N   1      20.573  16.198   8.394  0.00  0.00     0.150 HD
ENDBRANCH  15  16
BRANCH  15  19
HETATM   19  C   UNK N   1      22.512  13.825   8.025  0.00  0.00     0.067 C 
BRANCH  19  20
HETATM   20  C   UNK N   1      22.592  13.191   9.379  0.00  0.00    -0.015 A 
HETATM   21  C   UNK N   1      23.842  12.855   9.919  0.00  0.00     0.125 A 
HETATM   22  F   UNK N   1      24.982  13.118   9.231  0.00  0.00    -0.205 F 
HETATM   23  C   UNK N   1      23.918  12.236  11.169  0.00  0.00     0.088 A 
HETATM   24  C   UNK N   1      22.751  11.951  11.883  0.00  0.00     0.157 A 
HETATM   25  F   UNK N   1      22.831  11.342  13.090  0.00  0.00    -0.203 F 
HETATM   26  C   UNK N   1      21.503  12.291  11.348  0.00  0.00     0.155 A 
HETATM   27  F   UNK N   1      20.367  12.014  12.032  0.00  0.00    -0.203 F 
HETATM   28  C   UNK N   1      21.425  12.913  10.101  0.00  0.00     0.055 A 
ENDBRANCH  19  20
ENDBRANCH  15  19
ENDBRANCH  14  15
ENDBRANCH  12  14
BRANCH  13  29
HETATM   29  C   UNK N   1      24.057  19.167   3.986  0.00  0.00     0.450 C 
HETATM   30  F   UNK N   1      24.904  18.444   3.168  0.00  0.00    -0.163 F 
HETATM   31  F   UNK N   1      24.185  20.512   3.697  0.00  0.00    -0.163 F 
HETATM   32  F   UNK N   1      24.425  18.959   5.303  0.00  0.00    -0.163 F 
ENDBRANCH  13  29
TORSDOF 6
ENDMDL
MODEL 5
REMARK VINA RESULT:      -7.6     11.638     15.632
REMARK  6 active torsions:
REMARK  status: ('A' for Active; 'I' for Inactive)
REMARK       I    between atoms: N_8  and  C_21 
REMARK    1  A    between atoms: C_20  and  N_12 
REMARK    2  A    between atoms: C_19  and  C_20 
REMARK    3  A    between atoms: C_19  and  C_21 
REMARK    4  A    between atoms: C_20  and  C_22 
REMARK    5  A    between atoms: C_22  and  C_24 
REMARK    6  A    between atoms: C_23  and  C_25 
ROOT
HETATM    1  O   UNK N   1      23.289  20.906   2.989  0.00  0.00    -0.273 OA
HETATM    2  N   UNK N   1      22.418  19.034   3.851  0.00  0.00    -0.344 N 
HETATM    3  N   UNK N   1      20.850  17.232   2.652  0.00  0.00    -0.314 N 
HETATM    4  N   UNK N   1      19.390  18.715   1.891  0.00  0.00    -0.286 N 
ATOM      5  HN  UNK N   1      18.883  19.590   1.764  1.00  0.00     0.188 HD
HETATM    6  N   UNK N   1      19.165  17.570   1.256  0.00  0.00    -0.280 N 
ATOM      7  HN  UNK N   1      18.449  17.401   0.550  1.00  0.00     0.188 HD
HETATM    8  C   UNK N   1      22.545  17.694   4.394  0.00  0.00     0.146 C 
HETATM    9  C   UNK N   1      21.969  16.665   3.409  0.00  0.00     0.152 C 
HETATM   10  C   UNK N   1      21.072  19.513   3.603  0.00  0.00     0.203 C 
HETATM   11  C   UNK N   1      20.416  18.498   2.733  0.00  0.00     0.118 A 
HETATM   12  C   UNK N   1      23.493  19.800   3.471  0.00  0.00     0.222 C 
HETATM   13  C   UNK N   1      20.059  16.670   1.720  0.00  0.00     0.209 A 
ENDROOT
BRANCH  12  14
HETATM   14  C   UNK N   1      24.948  19.362   3.559  0.00  0.00     0.127 C 
BRANCH  14  15
HETATM   15  C   UNK N   1      26.047  20.415   3.559  0.00  0.00     0.087 C 
BRANCH  15  16
HETATM   16  N   UNK N   1      26.043  21.154   2.303  0.00  0.00    -0.425 N 
HETATM   17  H   UNK N   1      25.996  21.319   1.298  0.00  0.00     0.150 HD
HETATM   18  H   UNK N   1      26.165  22.107   2.646  0.00  0.00     0.150 HD
ENDBRANCH  15  16
BRANCH  15  19
HETATM   19  C   UNK N   1      27.415  19.792   3.841  0.00  0.00     0.067 C 
BRANCH  19  20
HETATM   20  C   UNK N   1      27.625  19.433   5.279  0.00  0.00    -0.015 A 
HETATM   21  C   UNK N   1      27.567  20.430   6.263  0.00  0.00     0.125 A 
HETATM   22  F   UNK N   1      27.301  21.718   5.924  0.00  0.00    -0.205 F 
HETATM   23  C   UNK N   1      27.792  20.103   7.603  0.00  0.00     0.088 A 
HETATM   24  C   UNK N   1      28.075  18.783   7.964  0.00  0.00     0.157 A 
HETATM   25  F   UNK N   1      28.302  18.474   9.263  0.00  0.00    -0.203 F 
HETATM   26  C   UNK N   1      28.128  17.785   6.984  0.00  0.00     0.155 A 
HETATM   27  F   UNK N   1      28.407  16.505   7.326  0.00  0.00    -0.203 F 
HETATM   28  C   UNK N   1      27.900  18.109   5.646  0.00  0.00     0.055 A 
ENDBRANCH  19  20
ENDBRANCH  15  19
ENDBRANCH  14  15
ENDBRANCH  12  14
BRANCH  13  29
HETATM   29  C   UNK N   1      20.148  15.257   1.221  0.00  0.00     0.450 C 
HETATM   30  F   UNK N   1      21.422  15.022   0.740  0.00  0.00    -0.163 F 
HETATM   31  F   UNK N   1      19.890  14.392   2.267  0.00  0.00    -0.163 F 
HETATM   32  F   UNK N   1      19.238  15.013   0.209  0.00  0.00    -0.163 F 
ENDBRANCH  13  29
TORSDOF 6
ENDMDL
MODEL 6
REMARK VINA RESULT:      -7.4      3.347      9.050
REMARK  6 active torsions:
REMARK  status: ('A' for Active; 'I' for Inactive)
REMARK       I    between atoms: N_8  and  C_21 
REMARK    1  A    between atoms: C_20  and  N_12 
REMARK    2  A    between atoms: C_19  and  C_20 
REMARK    3  A    between atoms: C_19  and  C_21 
REMARK    4  A    between atoms: C_20  and  C_22 
REMARK    5  A    between atoms: C_22  and  C_24 
REMARK    6  A    between atoms: C_23  and  C_25 
ROOT
HETATM    1  O   UNK N   1      34.815  16.452  10.794  0.00  0.00    -0.273 OA
HETATM    2  N   UNK N   1      35.662  14.384  10.896  0.00  0.00    -0.344 N 
HETATM    3  N   UNK N   1      35.114  12.455  12.664  0.00  0.00    -0.314 N 
HETATM    4  N   UNK N   1      35.447  13.724  14.450  0.00  0.00    -0.286 N 
ATOM      5  HN  UNK N   1      35.741  14.505  15.036  1.00  0.00     0.188 HD
HETATM    6  N   UNK N   1      34.824  12.622  14.853  0.00  0.00    -0.280 N 
ATOM      7  HN  UNK N   1      34.551  12.398  15.809  1.00  0.00     0.188 HD
HETATM    8  C   UNK N   1      35.831  13.042  10.369  0.00  0.00     0.146 C 
HETATM    9  C   UNK N   1      35.105  12.025  11.264  0.00  0.00     0.152 C 
HETATM   10  C   UNK N   1      36.202  14.640  12.216  0.00  0.00     0.203 C 
HETATM   11  C   UNK N   1      35.616  13.613  13.120  0.00  0.00     0.118 A 
HETATM   12  C   UNK N   1      34.934  15.359  10.258  0.00  0.00     0.222 C 
HETATM   13  C   UNK N   1      34.619  11.853  13.761  0.00  0.00     0.209 A 
ENDROOT
BRANCH  12  14
HETATM   14  C   UNK N   1      34.211  15.177   8.932  0.00  0.00     0.127 C 
BRANCH  14  15
HETATM   15  C   UNK N   1      32.689  15.141   8.909  0.00  0.00     0.087 C 
BRANCH  15  16
HETATM   16  N   UNK N   1      32.210  13.774   9.066  0.00  0.00    -0.425 N 
HETATM   17  H   UNK N   1      31.741  12.974   9.490  0.00  0.00     0.150 HD
HETATM   18  H   UNK N   1      32.573  13.348   8.213  0.00  0.00     0.150 HD
ENDBRANCH  15  16
BRANCH  15  19
HETATM   19  C   UNK N   1      32.135  15.788   7.639  0.00  0.00     0.067 C 
BRANCH  19  20
HETATM   20  C   UNK N   1      30.957  16.679   7.886  0.00  0.00    -0.015 A 
HETATM   21  C   UNK N   1      29.901  16.711   6.964  0.00  0.00     0.125 A 
HETATM   22  F   UNK N   1      29.929  15.924   5.858  0.00  0.00    -0.205 F 
HETATM   23  C   UNK N   1      28.814  17.563   7.176  0.00  0.00     0.088 A 
HETATM   24  C   UNK N   1      28.778  18.385   8.307  0.00  0.00     0.157 A 
HETATM   25  F   UNK N   1      27.727  19.216   8.502  0.00  0.00    -0.203 F 
HETATM   26  C   UNK N   1      29.829  18.350   9.231  0.00  0.00     0.155 A 
HETATM   27  F   UNK N   1      29.802  19.146  10.326  0.00  0.00    -0.203 F 
HETATM   28  C   UNK N   1      30.913  17.496   9.022  0.00  0.00     0.055 A 
ENDBRANCH  19  20
ENDBRANCH  15  19
ENDBRANCH  14  15
ENDBRANCH  12  14
BRANCH  13  29
HETATM   29  C   UNK N   1      33.909  10.532  13.799  0.00  0.00     0.450 C 
HETATM   30  F   UNK N   1      34.833   9.522  13.989  0.00  0.00    -0.163 F 
HETATM   31  F   UNK N   1      33.014  10.531  14.852  0.00  0.00    -0.163 F 
HETATM   32  F   UNK N   1      33.217  10.288  12.627  0.00  0.00    -0.163 F 
ENDBRANCH  13  29
TORSDOF 6
ENDMDL
MODEL 7
REMARK VINA RESULT:      -7.4      6.133      9.083
REMARK  6 active torsions:
REMARK  status: ('A' for Active; 'I' for Inactive)
REMARK       I    between atoms: N_8  and  C_21 
REMARK    1  A    between atoms: C_20  and  N_12 
REMARK    2  A    between atoms: C_19  and  C_20 
REMARK    3  A    between atoms: C_19  and  C_21 
REMARK    4  A    between atoms: C_20  and  C_22 
REMARK    5  A    between atoms: C_22  and  C_24 
REMARK    6  A    between atoms: C_23  and  C_25 
ROOT
HETATM    1  O   UNK N   1      31.141  16.472   8.355  0.00  0.00    -0.273 OA
HETATM    2  N   UNK N   1      29.386  16.607   6.973  0.00  0.00    -0.344 N 
HETATM    3  N   UNK N   1      27.827  18.722   6.477  0.00  0.00    -0.314 N 
HETATM    4  N   UNK N   1      27.414  19.167   8.608  0.00  0.00    -0.286 N 
ATOM      5  HN  UNK N   1      27.353  19.061   9.621  1.00  0.00     0.188 HD
HETATM    6  N   UNK N   1      27.033  20.223   7.898  0.00  0.00    -0.280 N 
ATOM      7  HN  UNK N   1      26.623  21.081   8.264  1.00  0.00     0.188 HD
HETATM    8  C   UNK N   1      28.797  16.602   5.646  0.00  0.00     0.146 C 
HETATM    9  C   UNK N   1      28.290  18.007   5.285  0.00  0.00     0.152 C 
HETATM   10  C   UNK N   1      28.509  16.949   8.075  0.00  0.00     0.203 C 
HETATM   11  C   UNK N   1      27.896  18.264   7.736  0.00  0.00     0.118 A 
HETATM   12  C   UNK N   1      30.726  16.415   7.205  0.00  0.00     0.222 C 
HETATM   13  C   UNK N   1      27.290  19.949   6.600  0.00  0.00     0.209 A 
ENDROOT
BRANCH  12  14
HETATM   14  C   UNK N   1      31.770  16.177   6.124  0.00  0.00     0.127 C 
BRANCH  14  15
HETATM   15  C   UNK N   1      32.623  17.340   5.638  0.00  0.00     0.087 C 
BRANCH  15  16
HETATM   16  N   UNK N   1      32.302  17.662   4.254  0.00  0.00    -0.425 N 
HETATM   17  H   UNK N   1      32.394  18.085   3.330  0.00  0.00     0.150 HD
HETATM   18  H   UNK N   1      31.441  17.128   4.131  0.00  0.00     0.150 HD
ENDBRANCH  15  16
BRANCH  15  19
HETATM   19  C   UNK N   1      34.114  17.051   5.816  0.00  0.00     0.067 C 
BRANCH  19  20
HETATM   20  C   UNK N   1      34.477  16.608   7.199  0.00  0.00    -0.015 A 
HETATM   21  C   UNK N   1      34.396  17.514   8.267  0.00  0.00     0.125 A 
HETATM   22  F   UNK N   1      33.970  18.786   8.058  0.00  0.00    -0.205 F 
HETATM   23  C   UNK N   1      34.762  17.111   9.553  0.00  0.00     0.088 A 
HETATM   24  C   UNK N   1      35.212  15.807   9.779  0.00  0.00     0.157 A 
HETATM   25  F   UNK N   1      35.575  15.426  11.027  0.00  0.00    -0.203 F 
HETATM   26  C   UNK N   1      35.288  14.900   8.716  0.00  0.00     0.155 A 
HETATM   27  F   UNK N   1      35.727  13.636   8.926  0.00  0.00    -0.203 F 
HETATM   28  C   UNK N   1      34.919  15.299   7.431  0.00  0.00     0.055 A 
ENDBRANCH  19  20
ENDBRANCH  15  19
ENDBRANCH  14  15
ENDBRANCH  12  14
BRANCH  13  29
HETATM   29  C   UNK N   1      27.028  20.915   5.482  0.00  0.00     0.450 C 
HETATM   30  F   UNK N   1      27.986  20.748   4.500  0.00  0.00    -0.163 F 
HETATM   31  F   UNK N   1      25.780  20.657   4.947  0.00  0.00    -0.163 F 
HETATM   32  F   UNK N   1      27.061  22.226   5.919  0.00  0.00    -0.163 F 
ENDBRANCH  13  29
TORSDOF 6
ENDMDL
MODEL 8
REMARK VINA RESULT:      -7.3      4.875     10.602
REMARK  6 active torsions:
REMARK  status: ('A' for Active; 'I' for Inactive)
REMARK       I    between atoms: N_8  and  C_21 
REMARK    1  A    between atoms: C_20  and  N_12 
REMARK    2  A    between atoms: C_19  and  C_20 
REMARK    3  A    between atoms: C_19  and  C_21 
REMARK    4  A    between atoms: C_20  and  C_22 
REMARK    5  A    between atoms: C_22  and  C_24 
REMARK    6  A    between atoms: C_23  and  C_25 
ROOT
HETATM    1  O   UNK N   1      31.385  17.732   8.218  0.00  0.00    -0.273 OA
HETATM    2  N   UNK N   1      33.325  16.761   7.668  0.00  0.00    -0.344 N 
HETATM    3  N   UNK N   1      35.094  15.567   9.277  0.00  0.00    -0.314 N 
HETATM    4  N   UNK N   1      35.230  17.253  10.708  0.00  0.00    -0.286 N 
ATOM      5  HN  UNK N   1      35.138  18.185  11.110  1.00  0.00     0.188 HD
HETATM    6  N   UNK N   1      35.788  16.194  11.284  0.00  0.00    -0.280 N 
ATOM      7  HN  UNK N   1      36.206  16.162  12.213  1.00  0.00     0.188 HD
HETATM    8  C   UNK N   1      34.095  15.717   7.018  0.00  0.00     0.146 C 
HETATM    9  C   UNK N   1      34.754  14.810   8.069  0.00  0.00     0.152 C 
HETATM   10  C   UNK N   1      34.058  17.687   8.508  0.00  0.00     0.203 C 
HETATM   11  C   UNK N   1      34.811  16.860   9.492  0.00  0.00     0.118 A 
HETATM   12  C   UNK N   1      31.954  16.837   7.609  0.00  0.00     0.222 C 
HETATM   13  C   UNK N   1      35.699  15.167  10.410  0.00  0.00     0.209 A 
ENDROOT
BRANCH  12  14
HETATM   14  C   UNK N   1      31.060  15.853   6.869  0.00  0.00     0.127 C 
BRANCH  14  15
HETATM   15  C   UNK N   1      30.424  16.267   5.549  0.00  0.00     0.087 C 
BRANCH  15  16
HETATM   16  N   UNK N   1      31.024  17.501   5.060  0.00  0.00    -0.425 N 
HETATM   17  H   UNK N   1      31.562  18.367   5.075  0.00  0.00     0.150 HD
HETATM   18  H   UNK N   1      30.703  17.495   4.091  0.00  0.00     0.150 HD
ENDBRANCH  15  16
BRANCH  15  19
HETATM   19  C   UNK N   1      28.905  16.392   5.677  0.00  0.00     0.067 C 
BRANCH  19  20
HETATM   20  C   UNK N   1      28.419  17.808   5.680  0.00  0.00    -0.015 A 
HETATM   21  C   UNK N   1      28.230  18.478   6.897  0.00  0.00     0.125 A 
HETATM   22  F   UNK N   1      28.503  17.859   8.074  0.00  0.00    -0.205 F 
HETATM   23  C   UNK N   1      27.747  19.790   6.904  0.00  0.00     0.088 A 
HETATM   24  C   UNK N   1      27.453  20.435   5.700  0.00  0.00     0.157 A 
HETATM   25  F   UNK N   1      26.977  21.703   5.713  0.00  0.00    -0.203 F 
HETATM   26  C   UNK N   1      27.647  19.769   4.484  0.00  0.00     0.155 A 
HETATM   27  F   UNK N   1      27.360  20.387   3.313  0.00  0.00    -0.203 F 
HETATM   28  C   UNK N   1      28.133  18.461   4.475  0.00  0.00     0.055 A 
ENDBRANCH  19  20
ENDBRANCH  15  19
ENDBRANCH  14  15
ENDBRANCH  12  14
BRANCH  13  29
HETATM   29  C   UNK N   1      36.191  13.781  10.707  0.00  0.00     0.450 C 
HETATM   30  F   UNK N   1      36.847  13.781  11.923  0.00  0.00    -0.163 F 
HETATM   31  F   UNK N   1      35.110  12.923  10.775  0.00  0.00    -0.163 F 
HETATM   32  F   UNK N   1      37.059  13.325   9.732  0.00  0.00    -0.163 F 
ENDBRANCH  13  29
TORSDOF 6
ENDMDL
MODEL 9
REMARK VINA RESULT:      -7.2      2.568      3.510
REMARK  6 active torsions:
REMARK  status: ('A' for Active; 'I' for Inactive)
REMARK       I    between atoms: N_8  and  C_21 
REMARK    1  A    between atoms: C_20  and  N_12 
REMARK    2  A    between atoms: C_19  and  C_20 
REMARK    3  A    between atoms: C_19  and  C_21 
REMARK    4  A    between atoms: C_20  and  C_22 
REMARK    5  A    between atoms: C_22  and  C_24 
REMARK    6  A    between atoms: C_23  and  C_25 
ROOT
HETATM    1  O   UNK N   1      35.729   9.392  13.058  0.00  0.00    -0.273 OA
HETATM    2  N   UNK N   1      36.619  10.792  11.556  0.00  0.00    -0.344 N 
HETATM    3  N   UNK N   1      35.525  12.981  10.480  0.00  0.00    -0.314 N 
HETATM    4  N   UNK N   1      33.642  11.982   9.873  0.00  0.00    -0.286 N 
ATOM      5  HN  UNK N   1      32.964  11.251   9.659  1.00  0.00     0.188 HD
HETATM    6  N   UNK N   1      33.446  13.294   9.785  0.00  0.00    -0.280 N 
ATOM      7  HN  UNK N   1      32.588  13.758   9.488  1.00  0.00     0.188 HD
HETATM    8  C   UNK N   1      37.589  11.796  11.158  0.00  0.00     0.146 C 
HETATM    9  C   UNK N   1      36.897  13.154  10.963  0.00  0.00     0.152 C 
HETATM   10  C   UNK N   1      35.555  10.503  10.615  0.00  0.00     0.203 C 
HETATM   11  C   UNK N   1      34.906  11.805  10.298  0.00  0.00     0.118 A 
HETATM   12  C   UNK N   1      36.606  10.204  12.797  0.00  0.00     0.222 C 
HETATM   13  C   UNK N   1      34.595  13.899  10.159  0.00  0.00     0.209 A 
ENDROOT
BRANCH  12  14
HETATM   14  C   UNK N   1      37.589  10.515  13.917  0.00  0.00     0.127 C 
BRANCH  14  15
HETATM   15  C   UNK N   1      37.072  11.091  15.228  0.00  0.00     0.087 C 
BRANCH  15  16
HETATM   16  N   UNK N   1      36.547  10.030  16.077  0.00  0.00    -0.425 N 
HETATM   17  H   UNK N   1      36.130   9.135  16.332  0.00  0.00     0.150 HD
HETATM   18  H   UNK N   1      36.680  10.445  17.000  0.00  0.00     0.150 HD
ENDBRANCH  15  16
BRANCH  15  19
HETATM   19  C   UNK N   1      36.030  12.184  14.984  0.00  0.00     0.067 C 
BRANCH  19  20
HETATM   20  C   UNK N   1      36.158  13.351  15.913  0.00  0.00    -0.015 A 
HETATM   21  C   UNK N   1      35.435  13.371  17.114  0.00  0.00     0.125 A 
HETATM   22  F   UNK N   1      34.634  12.328  17.452  0.00  0.00    -0.205 F 
HETATM   23  C   UNK N   1      35.530  14.473  17.968  0.00  0.00     0.088 A 
HETATM   24  C   UNK N   1      36.344  15.556  17.627  0.00  0.00     0.157 A 
HETATM   25  F   UNK N   1      36.424  16.625  18.454  0.00  0.00    -0.203 F 
HETATM   26  C   UNK N   1      37.071  15.536  16.431  0.00  0.00     0.155 A 
HETATM   27  F   UNK N   1      37.858  16.585  16.091  0.00  0.00    -0.203 F 
HETATM   28  C   UNK N   1      36.980  14.435  15.579  0.00  0.00     0.055 A 
ENDBRANCH  19  20
ENDBRANCH  15  19
ENDBRANCH  14  15
ENDBRANCH  12  14
BRANCH  13  29
HETATM   29  C   UNK N   1      34.763  15.388  10.225  0.00  0.00     0.450 C 
HETATM   30  F   UNK N   1      33.628  15.999   9.728  0.00  0.00    -0.163 F 
HETATM   31  F   UNK N   1      34.941  15.764  11.543  0.00  0.00    -0.163 F 
HETATM   32  F   UNK N   1      35.856  15.813   9.491  0.00  0.00    -0.163 F 
ENDBRANCH  13  29
TORSDOF 6
ENDMDL
