MODEL 1
REMARK VINA RESULT:      -5.8      0.000      0.000
REMARK  4 active torsions:
REMARK  status: ('A' for Active; 'I' for Inactive)
REMARK    1  A    between atoms: C_11  and  O_2 
REMARK    2  A    between atoms: O_3  and  C_15 
REMARK    3  A    between atoms: C_14  and  N_5 
REMARK       I    between atoms: N_10  and  C_18 
REMARK    4  A    between atoms: C_13  and  C_15 
ROOT
HETATM    1  O   UNK N   1      33.843  11.937  14.685  0.00  0.00    -0.246 OA
HETATM    2  N   UNK N   1      35.419  13.156  15.776  0.00  0.00    -0.267 N 
HETATM    3  N   UNK N   1      35.312  13.013  13.400  0.00  0.00    -0.141 N 
ATOM      4  HN  UNK N   1      34.863  12.661  12.554  1.00  0.00     0.189 HD
HETATM    5  N   UNK N   1      37.003  14.276  14.421  0.00  0.00    -0.188 N 
ATOM      6  HN  UNK N   1      37.821  14.879  14.344  1.00  0.00     0.185 HD
HETATM    7  N   UNK N   1      36.928  14.134  12.035  0.00  0.00    -0.234 N 
HETATM    8  C   UNK N   1      34.809  12.680  14.626  0.00  0.00     0.343 A 
HETATM    9  C   UNK N   1      36.522  13.947  15.645  0.00  0.00     0.207 A 
HETATM   10  C   UNK N   1      36.404  13.808  13.302  0.00  0.00     0.680 A 
HETATM   11  H   UNK N   1      37.622  14.827  11.947  0.00  0.00     0.174 HD
HETATM   12  H   UNK N   1      36.599  13.665  11.235  0.00  0.00     0.174 HD
ENDROOT
BRANCH   2  13
HETATM   13  C   UNK N   1      35.011  12.803  17.151  0.00  0.00     0.236 C 
HETATM   14  O   UNK N   1      35.677  11.668  17.631  0.00  0.00    -0.356 OA
HETATM   15  C   UNK N   1      35.225  11.658  18.949  0.00  0.00     0.176 C 
HETATM   16  C   UNK N   1      35.453  13.060  19.458  0.00  0.00     0.153 C 
HETATM   17  C   UNK N   1      35.140  13.880  18.228  0.00  0.00     0.088 C 
BRANCH  15  18
HETATM   18  C   UNK N   1      35.919  10.599  19.779  0.00  0.00     0.198 C 
BRANCH  18  19
HETATM   19  O   UNK N   1      36.438  11.188  20.934  0.00  0.00    -0.398 OA
HETATM   20  H   UNK N   1      36.017  11.926  21.403  0.00  0.00     0.209 HD
ENDBRANCH  18  19
ENDBRANCH  15  18
BRANCH  16  21
HETATM   21  O   UNK N   1      34.563  13.354  20.492  0.00  0.00    -0.393 OA
HETATM   22  H   UNK N   1      34.507  14.144  21.052  0.00  0.00     0.210 HD
ENDBRANCH  16  21
ENDBRANCH   2  13
TORSDOF 4
ENDMDL
MODEL 2
REMARK VINA RESULT:      -5.6      8.703     12.001
REMARK  4 active torsions:
REMARK  status: ('A' for Active; 'I' for Inactive)
REMARK    1  A    between atoms: C_11  and  O_2 
REMARK    2  A    between atoms: O_3  and  C_15 
REMARK    3  A    between atoms: C_14  and  N_5 
REMARK       I    between atoms: N_10  and  C_18 
REMARK    4  A    between atoms: C_13  and  C_15 
ROOT
HETATM    1  O   UNK N   1      34.964  19.003   8.239  0.00  0.00    -0.246 OA
HETATM    2  N   UNK N   1      33.531  17.241   8.220  0.00  0.00    -0.267 N 
HETATM    3  N   UNK N   1      35.234  17.504   9.866  0.00  0.00    -0.141 N 
ATOM      4  HN  UNK N   1      36.009  18.039  10.259  1.00  0.00     0.189 HD
HETATM    5  N   UNK N   1      33.830  15.628   9.924  0.00  0.00    -0.188 N 
ATOM      6  HN  UNK N   1      33.544  14.755  10.366  1.00  0.00     0.185 HD
HETATM    7  N   UNK N   1      35.543  15.859  11.577  0.00  0.00    -0.234 N 
HETATM    8  C   UNK N   1      34.583  17.967   8.757  0.00  0.00     0.343 A 
HETATM    9  C   UNK N   1      33.179  16.068   8.820  0.00  0.00     0.207 A 
HETATM   10  C   UNK N   1      34.856  16.340  10.445  0.00  0.00     0.680 A 
HETATM   11  H   UNK N   1      35.184  15.100  12.091  0.00  0.00     0.174 HD
HETATM   12  H   UNK N   1      36.386  16.285  11.854  0.00  0.00     0.174 HD
ENDROOT
BRANCH   2  13
HETATM   13  C   UNK N   1      32.805  17.603   6.986  0.00  0.00     0.236 C 
HETATM   14  O   UNK N   1      33.452  17.144   5.831  0.00  0.00    -0.356 OA
HETATM   15  C   UNK N   1      32.503  17.484   4.868  0.00  0.00     0.176 C 
HETATM   16  C   UNK N   1      31.196  16.939   5.387  0.00  0.00     0.153 C 
HETATM   17  C   UNK N   1      31.342  17.176   6.872  0.00  0.00     0.088 C 
BRANCH  15  18
HETATM   18  C   UNK N   1      32.872  16.955   3.498  0.00  0.00     0.198 C 
BRANCH  18  19
HETATM   19  O   UNK N   1      31.888  17.329   2.581  0.00  0.00    -0.398 OA
HETATM   20  H   UNK N   1      31.620  16.788   1.821  0.00  0.00     0.209 HD
ENDBRANCH  18  19
ENDBRANCH  15  18
BRANCH  16  21
HETATM   21  O   UNK N   1      30.124  17.668   4.870  0.00  0.00    -0.393 OA
HETATM   22  H   UNK N   1      29.659  17.566   4.025  0.00  0.00     0.210 HD
ENDBRANCH  16  21
ENDBRANCH   2  13
TORSDOF 4
ENDMDL
MODEL 3
REMARK VINA RESULT:      -5.6     14.947     16.915
REMARK  4 active torsions:
REMARK  status: ('A' for Active; 'I' for Inactive)
REMARK    1  A    between atoms: C_11  and  O_2 
REMARK    2  A    between atoms: O_3  and  C_15 
REMARK    3  A    between atoms: C_14  and  N_5 
REMARK       I    between atoms: N_10  and  C_18 
REMARK    4  A    between atoms: C_13  and  C_15 
ROOT
HETATM    1  O   UNK N   1      19.569  13.040  10.443  0.00  0.00    -0.246 OA
HETATM    2  N   UNK N   1      21.623  13.557   9.622  0.00  0.00    -0.267 N 
HETATM    3  N   UNK N   1      21.307  12.190  11.549  0.00  0.00    -0.141 N 
ATOM      4  HN  UNK N   1      20.686  11.727  12.213  1.00  0.00     0.189 HD
HETATM    5  N   UNK N   1      23.475  12.685  10.808  0.00  0.00    -0.188 N 
ATOM      6  HN  UNK N   1      24.485  12.588  10.910  1.00  0.00     0.185 HD
HETATM    7  N   UNK N   1      23.186  11.326  12.754  0.00  0.00    -0.234 N 
HETATM    8  C   UNK N   1      20.780  12.926  10.525  0.00  0.00     0.343 A 
HETATM    9  C   UNK N   1      22.970  13.426   9.792  0.00  0.00     0.207 A 
HETATM   10  C   UNK N   1      22.649  12.071  11.686  0.00  0.00     0.680 A 
HETATM   11  H   UNK N   1      24.145  11.109  12.776  0.00  0.00     0.174 HD
HETATM   12  H   UNK N   1      22.597  11.021  13.482  0.00  0.00     0.174 HD
ENDROOT
BRANCH   2  13
HETATM   13  C   UNK N   1      21.171  14.436   8.525  0.00  0.00     0.236 C 
HETATM   14  O   UNK N   1      20.737  15.685   8.987  0.00  0.00    -0.356 OA
HETATM   15  C   UNK N   1      20.520  16.333   7.771  0.00  0.00     0.176 C 
HETATM   16  C   UNK N   1      21.780  16.110   6.972  0.00  0.00     0.153 C 
HETATM   17  C   UNK N   1      22.149  14.703   7.381  0.00  0.00     0.088 C 
BRANCH  15  18
HETATM   18  C   UNK N   1      20.182  17.797   7.961  0.00  0.00     0.198 C 
BRANCH  18  19
HETATM   19  O   UNK N   1      21.059  18.573   7.201  0.00  0.00    -0.398 OA
HETATM   20  H   UNK N   1      21.150  18.503   6.237  0.00  0.00     0.209 HD
ENDBRANCH  18  19
ENDBRANCH  15  18
BRANCH  16  21
HETATM   21  O   UNK N   1      21.509  16.175   5.605  0.00  0.00    -0.393 OA
HETATM   22  H   UNK N   1      22.116  16.311   4.861  0.00  0.00     0.210 HD
ENDBRANCH  16  21
ENDBRANCH   2  13
TORSDOF 4
ENDMDL
MODEL 4
REMARK VINA RESULT:      -5.5     17.793     20.270
REMARK  4 active torsions:
REMARK  status: ('A' for Active; 'I' for Inactive)
REMARK    1  A    between atoms: C_11  and  O_2 
REMARK    2  A    between atoms: O_3  and  C_15 
REMARK    3  A    between atoms: C_14  and  N_5 
REMARK       I    between atoms: N_10  and  C_18 
REMARK    4  A    between atoms: C_13  and  C_15 
ROOT
HETATM    1  O   UNK N   1      23.782  18.189   5.203  0.00  0.00    -0.246 OA
HETATM    2  N   UNK N   1      23.960  19.696   3.514  0.00  0.00    -0.267 N 
HETATM    3  N   UNK N   1      25.852  18.813   4.663  0.00  0.00    -0.141 N 
ATOM      4  HN  UNK N   1      26.246  18.199   5.377  1.00  0.00     0.189 HD
HETATM    5  N   UNK N   1      26.153  20.389   2.955  0.00  0.00    -0.188 N 
ATOM      6  HN  UNK N   1      26.774  20.956   2.378  1.00  0.00     0.185 HD
HETATM    7  N   UNK N   1      28.066  19.531   4.105  0.00  0.00    -0.234 N 
HETATM    8  C   UNK N   1      24.498  18.862   4.482  0.00  0.00     0.343 A 
HETATM    9  C   UNK N   1      24.812  20.457   2.768  0.00  0.00     0.207 A 
HETATM   10  C   UNK N   1      26.673  19.574   3.901  0.00  0.00     0.680 A 
HETATM   11  H   UNK N   1      28.676  19.960   3.462  0.00  0.00     0.174 HD
HETATM   12  H   UNK N   1      28.430  19.070   4.895  0.00  0.00     0.174 HD
ENDROOT
BRANCH   2  13
HETATM   13  C   UNK N   1      22.515  19.888   3.280  0.00  0.00     0.236 C 
HETATM   14  O   UNK N   1      22.258  20.796   2.244  0.00  0.00    -0.356 OA
HETATM   15  C   UNK N   1      20.873  20.671   2.149  0.00  0.00     0.176 C 
HETATM   16  C   UNK N   1      20.612  19.187   2.066  0.00  0.00     0.153 C 
HETATM   17  C   UNK N   1      21.671  18.645   2.998  0.00  0.00     0.088 C 
BRANCH  15  18
HETATM   18  C   UNK N   1      20.314  21.444   0.973  0.00  0.00     0.198 C 
BRANCH  18  19
HETATM   19  O   UNK N   1      20.594  20.751  -0.207  0.00  0.00    -0.398 OA
HETATM   20  H   UNK N   1      19.940  20.229  -0.698  0.00  0.00     0.209 HD
ENDBRANCH  18  19
ENDBRANCH  15  18
BRANCH  16  21
HETATM   21  O   UNK N   1      19.334  18.889   2.540  0.00  0.00    -0.393 OA
HETATM   22  H   UNK N   1      19.031  18.746   3.449  0.00  0.00     0.210 HD
ENDBRANCH  16  21
ENDBRANCH   2  13
TORSDOF 4
ENDMDL
MODEL 5
REMARK VINA RESULT:      -5.5      4.422      6.786
REMARK  4 active torsions:
REMARK  status: ('A' for Active; 'I' for Inactive)
REMARK    1  A    between atoms: C_11  and  O_2 
REMARK    2  A    between atoms: O_3  and  C_15 
REMARK    3  A    between atoms: C_14  and  N_5 
REMARK       I    between atoms: N_10  and  C_18 
REMARK    4  A    between atoms: C_13  and  C_15 
ROOT
HETATM    1  O   UNK N   1      35.746  17.485  10.355  0.00  0.00    -0.246 OA
HETATM    2  N   UNK N   1      34.493  15.595  10.481  0.00  0.00    -0.267 N 
HETATM    3  N   UNK N   1      33.863  17.478   9.162  0.00  0.00    -0.141 N 
ATOM      4  HN  UNK N   1      34.054  18.418   8.814  1.00  0.00     0.189 HD
HETATM    5  N   UNK N   1      32.476  15.590   9.242  0.00  0.00    -0.188 N 
ATOM      6  HN  UNK N   1      31.627  15.108   8.950  1.00  0.00     0.185 HD
HETATM    7  N   UNK N   1      31.814  17.474   7.926  0.00  0.00    -0.234 N 
HETATM    8  C   UNK N   1      34.751  16.873  10.007  0.00  0.00     0.343 A 
HETATM    9  C   UNK N   1      33.341  14.979  10.088  0.00  0.00     0.207 A 
HETATM   10  C   UNK N   1      32.733  16.837   8.783  0.00  0.00     0.680 A 
HETATM   11  H   UNK N   1      31.071  16.965   7.526  0.00  0.00     0.174 HD
HETATM   12  H   UNK N   1      31.915  18.432   7.726  0.00  0.00     0.174 HD
ENDROOT
BRANCH   2  13
HETATM   13  C   UNK N   1      35.338  14.874  11.453  0.00  0.00     0.236 C 
HETATM   14  O   UNK N   1      34.586  14.075  12.325  0.00  0.00    -0.356 OA
HETATM   15  C   UNK N   1      35.613  13.423  13.005  0.00  0.00     0.176 C 
HETATM   16  C   UNK N   1      36.525  12.886  11.929  0.00  0.00     0.153 C 
HETATM   17  C   UNK N   1      36.459  13.993  10.902  0.00  0.00     0.088 C 
BRANCH  15  18
HETATM   18  C   UNK N   1      35.086  12.350  13.934  0.00  0.00     0.198 C 
BRANCH  18  19
HETATM   19  O   UNK N   1      34.332  12.947  14.945  0.00  0.00    -0.398 OA
HETATM   20  H   UNK N   1      34.453  13.863  15.243  0.00  0.00     0.209 HD
ENDBRANCH  18  19
ENDBRANCH  15  18
BRANCH  16  21
HETATM   21  O   UNK N   1      37.823  12.739  12.419  0.00  0.00    -0.393 OA
HETATM   22  H   UNK N   1      38.126  12.580  13.326  0.00  0.00     0.210 HD
ENDBRANCH  16  21
ENDBRANCH   2  13
TORSDOF 4
ENDMDL
MODEL 6
REMARK VINA RESULT:      -5.5     25.461     27.336
REMARK  4 active torsions:
REMARK  status: ('A' for Active; 'I' for Inactive)
REMARK    1  A    between atoms: C_11  and  O_2 
REMARK    2  A    between atoms: O_3  and  C_15 
REMARK    3  A    between atoms: C_14  and  N_5 
REMARK       I    between atoms: N_10  and  C_18 
REMARK    4  A    between atoms: C_13  and  C_15 
ROOT
HETATM    1  O   UNK N   1      26.745  24.364  -2.876  0.00  0.00    -0.246 OA
HETATM    2  N   UNK N   1      26.292  25.066  -4.988  0.00  0.00    -0.267 N 
HETATM    3  N   UNK N   1      26.304  26.536  -3.112  0.00  0.00    -0.141 N 
ATOM      4  HN  UNK N   1      26.435  26.693  -2.112  1.00  0.00     0.189 HD
HETATM    5  N   UNK N   1      25.791  27.364  -5.244  0.00  0.00    -0.188 N 
ATOM      6  HN  UNK N   1      25.543  28.146  -5.849  1.00  0.00     0.185 HD
HETATM    7  N   UNK N   1      25.780  28.856  -3.375  0.00  0.00    -0.234 N 
HETATM    8  C   UNK N   1      26.471  25.282  -3.630  0.00  0.00     0.343 A 
HETATM    9  C   UNK N   1      25.944  26.125  -5.772  0.00  0.00     0.207 A 
HETATM   10  C   UNK N   1      25.967  27.570  -3.918  0.00  0.00     0.680 A 
HETATM   11  H   UNK N   1      25.685  29.637  -3.967  0.00  0.00     0.174 HD
HETATM   12  H   UNK N   1      25.744  28.974  -2.398  0.00  0.00     0.174 HD
ENDROOT
BRANCH   2  13
HETATM   13  C   UNK N   1      26.371  23.746  -5.645  0.00  0.00     0.236 C 
HETATM   14  O   UNK N   1      25.359  23.562  -6.596  0.00  0.00    -0.356 OA
HETATM   15  C   UNK N   1      25.755  22.341  -7.141  0.00  0.00     0.176 C 
HETATM   16  C   UNK N   1      27.217  22.510  -7.473  0.00  0.00     0.153 C 
HETATM   17  C   UNK N   1      27.688  23.369  -6.323  0.00  0.00     0.088 C 
BRANCH  15  18
HETATM   18  C   UNK N   1      24.910  21.952  -8.336  0.00  0.00     0.198 C 
BRANCH  18  19
HETATM   19  O   UNK N   1      23.561  22.005  -7.981  0.00  0.00    -0.398 OA
HETATM   20  H   UNK N   1      22.951  21.253  -8.053  0.00  0.00     0.209 HD
ENDBRANCH  18  19
ENDBRANCH  15  18
BRANCH  16  21
HETATM   21  O   UNK N   1      27.864  21.273  -7.469  0.00  0.00    -0.393 OA
HETATM   22  H   UNK N   1      27.642  20.459  -7.946  0.00  0.00     0.210 HD
ENDBRANCH  16  21
ENDBRANCH   2  13
TORSDOF 4
ENDMDL
MODEL 7
REMARK VINA RESULT:      -5.4      8.973     12.494
REMARK  4 active torsions:
REMARK  status: ('A' for Active; 'I' for Inactive)
REMARK    1  A    between atoms: C_11  and  O_2 
REMARK    2  A    between atoms: O_3  and  C_15 
REMARK    3  A    between atoms: C_14  and  N_5 
REMARK       I    between atoms: N_10  and  C_18 
REMARK    4  A    between atoms: C_13  and  C_15 
ROOT
HETATM    1  O   UNK N   1      32.228  14.807   8.282  0.00  0.00    -0.246 OA
HETATM    2  N   UNK N   1      33.165  16.653   7.347  0.00  0.00    -0.267 N 
HETATM    3  N   UNK N   1      33.683  15.918   9.554  0.00  0.00    -0.141 N 
ATOM      4  HN  UNK N   1      33.560  15.250  10.315  1.00  0.00     0.189 HD
HETATM    5  N   UNK N   1      34.687  17.856   8.701  0.00  0.00    -0.188 N 
ATOM      6  HN  UNK N   1      35.324  18.643   8.818  1.00  0.00     0.185 HD
HETATM    7  N   UNK N   1      35.210  17.150  10.924  0.00  0.00    -0.234 N 
HETATM    8  C   UNK N   1      33.000  15.746   8.383  0.00  0.00     0.343 A 
HETATM    9  C   UNK N   1      34.011  17.706   7.536  0.00  0.00     0.207 A 
HETATM   10  C   UNK N   1      34.523  16.969   9.708  0.00  0.00     0.680 A 
HETATM   11  H   UNK N   1      35.930  17.817  10.994  0.00  0.00     0.174 HD
HETATM   12  H   UNK N   1      34.968  16.606  11.709  0.00  0.00     0.174 HD
ENDROOT
BRANCH   2  13
HETATM   13  C   UNK N   1      32.426  16.611   6.069  0.00  0.00     0.236 C 
HETATM   14  O   UNK N   1      31.109  17.072   6.198  0.00  0.00    -0.356 OA
HETATM   15  C   UNK N   1      30.715  17.062   4.861  0.00  0.00     0.176 C 
HETATM   16  C   UNK N   1      31.806  17.795   4.120  0.00  0.00     0.153 C 
HETATM   17  C   UNK N   1      33.035  17.343   4.873  0.00  0.00     0.088 C 
BRANCH  15  18
HETATM   18  C   UNK N   1      29.344  17.676   4.670  0.00  0.00     0.198 C 
BRANCH  18  19
HETATM   19  O   UNK N   1      28.961  17.538   3.335  0.00  0.00    -0.398 OA
HETATM   20  H   UNK N   1      28.153  17.083   3.046  0.00  0.00     0.209 HD
ENDBRANCH  18  19
ENDBRANCH  15  18
BRANCH  16  21
HETATM   21  O   UNK N   1      31.856  17.377   2.789  0.00  0.00    -0.393 OA
HETATM   22  H   UNK N   1      31.135  17.112   2.198  0.00  0.00     0.210 HD
ENDBRANCH  16  21
ENDBRANCH   2  13
TORSDOF 4
ENDMDL
MODEL 8
REMARK VINA RESULT:      -5.3     22.665     24.292
REMARK  4 active torsions:
REMARK  status: ('A' for Active; 'I' for Inactive)
REMARK    1  A    between atoms: C_11  and  O_2 
REMARK    2  A    between atoms: O_3  and  C_15 
REMARK    3  A    between atoms: C_14  and  N_5 
REMARK       I    between atoms: N_10  and  C_18 
REMARK    4  A    between atoms: C_13  and  C_15 
ROOT
HETATM    1  O   UNK N   1      26.954  23.720  -2.486  0.00  0.00    -0.246 OA
HETATM    2  N   UNK N   1      28.666  24.047  -3.941  0.00  0.00    -0.267 N 
HETATM    3  N   UNK N   1      26.701  25.395  -3.935  0.00  0.00    -0.141 N 
ATOM      4  HN  UNK N   1      25.789  25.627  -3.541  1.00  0.00     0.189 HD
HETATM    5  N   UNK N   1      28.394  25.802  -5.505  0.00  0.00    -0.188 N 
ATOM      6  HN  UNK N   1      28.758  26.345  -6.286  1.00  0.00     0.185 HD
HETATM    7  N   UNK N   1      26.424  27.157  -5.530  0.00  0.00    -0.234 N 
HETATM    8  C   UNK N   1      27.427  24.365  -3.406  0.00  0.00     0.343 A 
HETATM    9  C   UNK N   1      29.123  24.778  -4.998  0.00  0.00     0.207 A 
HETATM   10  C   UNK N   1      27.186  26.109  -4.979  0.00  0.00     0.680 A 
HETATM   11  H   UNK N   1      26.826  27.775  -6.183  0.00  0.00     0.174 HD
HETATM   12  H   UNK N   1      25.484  27.273  -5.261  0.00  0.00     0.174 HD
ENDROOT
BRANCH   2  13
HETATM   13  C   UNK N   1      29.504  22.912  -3.503  0.00  0.00     0.236 C 
HETATM   14  O   UNK N   1      29.839  22.057  -4.560  0.00  0.00    -0.356 OA
HETATM   15  C   UNK N   1      30.721  21.197  -3.908  0.00  0.00     0.176 C 
HETATM   16  C   UNK N   1      31.701  22.097  -3.196  0.00  0.00     0.153 C 
HETATM   17  C   UNK N   1      30.803  23.234  -2.765  0.00  0.00     0.088 C 
BRANCH  15  18
HETATM   18  C   UNK N   1      31.384  20.230  -4.866  0.00  0.00     0.198 C 
BRANCH  18  19
HETATM   19  O   UNK N   1      32.381  19.524  -4.191  0.00  0.00    -0.398 OA
HETATM   20  H   UNK N   1      33.213  19.236  -4.599  0.00  0.00     0.209 HD
ENDBRANCH  18  19
ENDBRANCH  15  18
BRANCH  16  21
HETATM   21  O   UNK N   1      32.245  21.446  -2.088  0.00  0.00    -0.393 OA
HETATM   22  H   UNK N   1      33.139  21.501  -1.717  0.00  0.00     0.210 HD
ENDBRANCH  16  21
ENDBRANCH   2  13
TORSDOF 4
ENDMDL
MODEL 9
REMARK VINA RESULT:      -5.3     17.514     19.998
REMARK  4 active torsions:
REMARK  status: ('A' for Active; 'I' for Inactive)
REMARK    1  A    between atoms: C_11  and  O_2 
REMARK    2  A    between atoms: O_3  and  C_15 
REMARK    3  A    between atoms: C_14  and  N_5 
REMARK       I    between atoms: N_10  and  C_18 
REMARK    4  A    between atoms: C_13  and  C_15 
ROOT
HETATM    1  O   UNK N   1      21.320  16.899   6.592  0.00  0.00    -0.246 OA
HETATM    2  N   UNK N   1      22.408  17.406   4.663  0.00  0.00    -0.267 N 
HETATM    3  N   UNK N   1      23.405  16.132   6.414  0.00  0.00    -0.141 N 
ATOM      4  HN  UNK N   1      23.345  15.693   7.333  1.00  0.00     0.189 HD
HETATM    5  N   UNK N   1      24.633  16.622   4.479  0.00  0.00    -0.188 N 
ATOM      6  HN  UNK N   1      25.495  16.547   3.939  1.00  0.00     0.185 HD
HETATM    7  N   UNK N   1      25.662  15.358   6.228  0.00  0.00    -0.234 N 
HETATM    8  C   UNK N   1      22.328  16.808   5.912  0.00  0.00     0.343 A 
HETATM    9  C   UNK N   1      23.578  17.304   3.970  0.00  0.00     0.207 A 
HETATM   10  C   UNK N   1      24.550  16.041   5.697  0.00  0.00     0.680 A 
HETATM   11  H   UNK N   1      26.440  15.157   5.660  0.00  0.00     0.174 HD
HETATM   12  H   UNK N   1      25.660  15.081   7.173  0.00  0.00     0.174 HD
ENDROOT
BRANCH   2  13
HETATM   13  C   UNK N   1      21.340  18.223   4.054  0.00  0.00     0.236 C 
HETATM   14  O   UNK N   1      21.827  19.091   3.069  0.00  0.00    -0.356 OA
HETATM   15  C   UNK N   1      20.627  19.606   2.581  0.00  0.00     0.176 C 
HETATM   16  C   UNK N   1      19.761  18.402   2.304  0.00  0.00     0.153 C 
HETATM   17  C   UNK N   1      20.146  17.488   3.444  0.00  0.00     0.088 C 
BRANCH  15  18
HETATM   18  C   UNK N   1      20.839  20.484   1.366  0.00  0.00     0.198 C 
BRANCH  18  19
HETATM   19  O   UNK N   1      20.537  19.755   0.214  0.00  0.00    -0.398 OA
HETATM   20  H   UNK N   1      21.156  19.148  -0.221  0.00  0.00     0.209 HD
ENDBRANCH  18  19
ENDBRANCH  15  18
BRANCH  16  21
HETATM   21  O   UNK N   1      18.411  18.746   2.376  0.00  0.00    -0.393 OA
HETATM   22  H   UNK N   1      18.002  19.610   2.536  0.00  0.00     0.210 HD
ENDBRANCH  16  21
ENDBRANCH   2  13
TORSDOF 4
ENDMDL
