MODEL 1
REMARK VINA RESULT:      -7.3      0.000      0.000
REMARK  13 active torsions:
REMARK  status: ('A' for Active; 'I' for Inactive)
REMARK    1  A    between atoms: S_1  and  N_10 
REMARK    2  A    between atoms: S_1  and  C_26 
REMARK    3  A    between atoms: C_14  and  O_4 
REMARK    4  A    between atoms: O_4  and  C_20 
REMARK    5  A    between atoms: C_18  and  N_9 
REMARK       I    between atoms: N_9  and  C_20 
REMARK    6  A    between atoms: N_10  and  C_21 
REMARK    7  A    between atoms: N_10  and  C_23 
REMARK    8  A    between atoms: N_11  and  C_38 
REMARK    9  A    between atoms: C_18  and  C_19 
REMARK   10  A    between atoms: C_18  and  C_22 
REMARK   11  A    between atoms: C_19  and  C_21 
REMARK   12  A    between atoms: C_22  and  C_25 
REMARK   13  A    between atoms: C_23  and  C_24 
ROOT
HETATM    1  O   UNK N   1      30.386  18.197   9.762  0.00  0.00    -0.392 OA
HETATM    2  C   UNK N   1      30.295  18.245   8.371  0.00  0.00     0.155 C 
HETATM    3  H   UNK N   1      30.585  18.148  10.710  0.00  0.00     0.210 HD
ENDROOT
BRANCH   2   4
HETATM    4  C   UNK N   1      31.557  17.619   7.769  0.00  0.00     0.120 C 
BRANCH   4   5
HETATM    5  N   UNK N   1      32.590  17.454   8.770  0.00  0.00    -0.329 N 
HETATM    6  C   UNK N   1      33.888  17.738   8.517  0.00  0.00     0.361 C 
HETATM    7  O   UNK N   1      34.212  18.234   7.442  0.00  0.00    -0.238 OA
HETATM    8  H   UNK N   1      32.339  17.123   9.663  0.00  0.00     0.165 HD
BRANCH   6   9
HETATM    9  O   UNK N   1      34.830  17.442   9.445  0.00  0.00    -0.296 OA
BRANCH   9  10
HETATM   10  C   UNK N   1      34.732  16.347  10.281  0.00  0.00     0.166 C 
HETATM   11  C   UNK N   1      34.598  15.063   9.526  0.00  0.00     0.075 C 
HETATM   12  C   UNK N   1      35.095  14.090  10.548  0.00  0.00     0.266 C 
HETATM   13  C   UNK N   1      35.607  14.862   8.432  0.00  0.00     0.038 C 
HETATM   14  O   UNK N   1      36.152  14.708  11.261  0.00  0.00    -0.358 OA
HETATM   15  O   UNK N   1      35.569  12.955   9.864  0.00  0.00    -0.361 OA
HETATM   16  C   UNK N   1      36.011  16.103  11.065  0.00  0.00     0.204 C 
HETATM   17  C   UNK N   1      35.865  13.373   8.546  0.00  0.00     0.171 C 
ENDBRANCH   9  10
ENDBRANCH   6   9
ENDBRANCH   4   5
BRANCH   4  18
HETATM   18  C   UNK N   1      31.286  16.286   7.067  0.00  0.00     0.066 C 
BRANCH  18  19
HETATM   19  C   UNK N   1      31.868  16.277   5.693  0.00  0.00    -0.056 A 
HETATM   20  C   UNK N   1      31.716  17.400   4.874  0.00  0.00     0.007 A 
HETATM   21  C   UNK N   1      32.242  17.401   3.579  0.00  0.00     0.001 A 
HETATM   22  C   UNK N   1      32.929  16.279   3.103  0.00  0.00     0.000 A 
HETATM   23  C   UNK N   1      33.091  15.159   3.923  0.00  0.00     0.001 A 
HETATM   24  C   UNK N   1      32.560  15.156   5.218  0.00  0.00     0.007 A 
ENDBRANCH  18  19
ENDBRANCH   4  18
ENDBRANCH   2   4
BRANCH   2  25
HETATM   25  C   UNK N   1      29.000  17.553   7.945  0.00  0.00     0.141 C 
BRANCH  25  26
HETATM   26  N   UNK N   1      28.470  18.100   6.699  0.00  0.00    -0.204 NA
BRANCH  26  27
HETATM   27  S   UNK N   1      27.498  16.798   5.993  0.00  0.00     0.243 S 
HETATM   28  O   UNK N   1      26.266  17.503   5.402  0.00  0.00    -0.206 OA
HETATM   29  O   UNK N   1      26.895  16.037   7.183  0.00  0.00    -0.206 OA
BRANCH  27  30
HETATM   30  C   UNK N   1      28.316  15.734   4.801  0.00  0.00     0.074 A 
HETATM   31  C   UNK N   1      28.595  16.202   3.512  0.00  0.00     0.027 A 
HETATM   32  C   UNK N   1      29.247  15.373   2.593  0.00  0.00     0.030 A 
HETATM   33  C   UNK N   1      29.621  14.077   2.961  0.00  0.00     0.025 A 
HETATM   34  C   UNK N   1      29.341  13.608   4.248  0.00  0.00     0.030 A 
HETATM   35  C   UNK N   1      28.690  14.435   5.165  0.00  0.00     0.027 A 
BRANCH  33  36
HETATM   36  N   UNK N   1      30.280  13.243   2.036  0.00  0.00    -0.399 N 
HETATM   37  H   UNK N   1      29.969  13.077   1.117  0.00  0.00     0.156 HD
HETATM   38  H   UNK N   1      31.106  12.796   2.329  0.00  0.00     0.156 HD
ENDBRANCH  33  36
ENDBRANCH  27  30
ENDBRANCH  26  27
BRANCH  26  39
HETATM   39  C   UNK N   1      27.535  19.200   6.963  0.00  0.00     0.111 C 
BRANCH  39  40
HETATM   40  C   UNK N   1      27.870  20.486   6.219  0.00  0.00    -0.009 C 
HETATM   41  C   UNK N   1      26.717  21.453   6.397  0.00  0.00     0.011 C 
HETATM   42  C   UNK N   1      28.060  20.202   4.746  0.00  0.00     0.011 C 
ENDBRANCH  39  40
ENDBRANCH  26  39
ENDBRANCH  25  26
ENDBRANCH   2  25
TORSDOF 13
ENDMDL
MODEL 2
REMARK VINA RESULT:      -7.0     13.031     16.342
REMARK  13 active torsions:
REMARK  status: ('A' for Active; 'I' for Inactive)
REMARK    1  A    between atoms: S_1  and  N_10 
REMARK    2  A    between atoms: S_1  and  C_26 
REMARK    3  A    between atoms: C_14  and  O_4 
REMARK    4  A    between atoms: O_4  and  C_20 
REMARK    5  A    between atoms: C_18  and  N_9 
REMARK       I    between atoms: N_9  and  C_20 
REMARK    6  A    between atoms: N_10  and  C_21 
REMARK    7  A    between atoms: N_10  and  C_23 
REMARK    8  A    between atoms: N_11  and  C_38 
REMARK    9  A    between atoms: C_18  and  C_19 
REMARK   10  A    between atoms: C_18  and  C_22 
REMARK   11  A    between atoms: C_19  and  C_21 
REMARK   12  A    between atoms: C_22  and  C_25 
REMARK   13  A    between atoms: C_23  and  C_24 
ROOT
HETATM    1  O   UNK N   1      25.294  23.329  -6.190  0.00  0.00    -0.392 OA
HETATM    2  C   UNK N   1      25.786  24.389  -6.949  0.00  0.00     0.155 C 
HETATM    3  H   UNK N   1      24.934  22.685  -5.560  0.00  0.00     0.210 HD
ENDROOT
BRANCH   2   4
HETATM    4  C   UNK N   1      26.199  25.525  -6.007  0.00  0.00     0.120 C 
BRANCH   4   5
HETATM    5  N   UNK N   1      27.426  25.208  -5.308  0.00  0.00    -0.329 N 
HETATM    6  C   UNK N   1      27.427  24.674  -4.064  0.00  0.00     0.361 C 
HETATM    7  O   UNK N   1      26.369  24.363  -3.527  0.00  0.00    -0.238 OA
HETATM    8  H   UNK N   1      28.287  25.386  -5.752  0.00  0.00     0.165 HD
BRANCH   6   9
HETATM    9  O   UNK N   1      28.601  24.518  -3.405  0.00  0.00    -0.296 OA
BRANCH   9  10
HETATM   10  C   UNK N   1      29.220  23.292  -3.269  0.00  0.00     0.166 C 
HETATM   11  C   UNK N   1      30.309  23.087  -4.273  0.00  0.00     0.075 C 
HETATM   12  C   UNK N   1      31.141  22.060  -3.572  0.00  0.00     0.266 C 
HETATM   13  C   UNK N   1      31.292  24.217  -4.383  0.00  0.00     0.038 C 
HETATM   14  O   UNK N   1      31.120  22.355  -2.186  0.00  0.00    -0.358 OA
HETATM   15  O   UNK N   1      32.453  22.157  -4.070  0.00  0.00    -0.361 OA
HETATM   16  C   UNK N   1      29.990  23.175  -1.963  0.00  0.00     0.204 C 
HETATM   17  C   UNK N   1      32.583  23.458  -4.611  0.00  0.00     0.171 C 
ENDBRANCH   9  10
ENDBRANCH   6   9
ENDBRANCH   4   5
BRANCH   4  18
HETATM   18  C   UNK N   1      26.334  26.873  -6.720  0.00  0.00     0.066 C 
BRANCH  18  19
HETATM   19  C   UNK N   1      26.590  27.972  -5.743  0.00  0.00    -0.056 A 
HETATM   20  C   UNK N   1      25.814  28.055  -4.582  0.00  0.00     0.007 A 
HETATM   21  C   UNK N   1      26.031  29.087  -3.665  0.00  0.00     0.001 A 
HETATM   22  C   UNK N   1      27.031  30.035  -3.905  0.00  0.00     0.000 A 
HETATM   23  C   UNK N   1      27.813  29.950  -5.060  0.00  0.00     0.001 A 
HETATM   24  C   UNK N   1      27.593  28.920  -5.980  0.00  0.00     0.007 A 
ENDBRANCH  18  19
ENDBRANCH   4  18
ENDBRANCH   2   4
BRANCH   2  25
HETATM   25  C   UNK N   1      26.926  23.871  -7.827  0.00  0.00     0.141 C 
BRANCH  25  26
HETATM   26  N   UNK N   1      26.577  23.888  -9.245  0.00  0.00    -0.204 NA
BRANCH  26  27
HETATM   27  S   UNK N   1      26.293  22.193  -9.677  0.00  0.00     0.243 S 
HETATM   28  O   UNK N   1      25.812  22.234 -11.135  0.00  0.00    -0.206 OA
HETATM   29  O   UNK N   1      25.018  21.781  -8.926  0.00  0.00    -0.206 OA
BRANCH  27  30
HETATM   30  C   UNK N   1      27.664  21.059  -9.440  0.00  0.00     0.074 A 
HETATM   31  C   UNK N   1      27.924  20.521  -8.176  0.00  0.00     0.027 A 
HETATM   32  C   UNK N   1      28.984  19.625  -8.001  0.00  0.00     0.030 A 
HETATM   33  C   UNK N   1      29.784  19.265  -9.090  0.00  0.00     0.025 A 
HETATM   34  C   UNK N   1      29.526  19.802 -10.354  0.00  0.00     0.030 A 
HETATM   35  C   UNK N   1      28.468  20.697 -10.528  0.00  0.00     0.027 A 
BRANCH  33  36
HETATM   36  N   UNK N   1      30.850  18.360  -8.915  0.00  0.00    -0.399 N 
HETATM   37  H   UNK N   1      30.804  17.547  -8.363  0.00  0.00     0.156 HD
HETATM   38  H   UNK N   1      31.698  18.556  -9.375  0.00  0.00     0.156 HD
ENDBRANCH  33  36
ENDBRANCH  27  30
ENDBRANCH  26  27
BRANCH  26  39
HETATM   39  C   UNK N   1      25.300  24.576  -9.463  0.00  0.00     0.111 C 
BRANCH  39  40
HETATM   40  C   UNK N   1      25.424  25.867 -10.262  0.00  0.00    -0.009 C 
HETATM   41  C   UNK N   1      24.484  25.785 -11.448  0.00  0.00     0.011 C 
HETATM   42  C   UNK N   1      26.842  26.038 -10.760  0.00  0.00     0.011 C 
ENDBRANCH  39  40
ENDBRANCH  26  39
ENDBRANCH  25  26
ENDBRANCH   2  25
TORSDOF 13
ENDMDL
MODEL 3
REMARK VINA RESULT:      -6.9      3.669      7.349
REMARK  13 active torsions:
REMARK  status: ('A' for Active; 'I' for Inactive)
REMARK    1  A    between atoms: S_1  and  N_10 
REMARK    2  A    between atoms: S_1  and  C_26 
REMARK    3  A    between atoms: C_14  and  O_4 
REMARK    4  A    between atoms: O_4  and  C_20 
REMARK    5  A    between atoms: C_18  and  N_9 
REMARK       I    between atoms: N_9  and  C_20 
REMARK    6  A    between atoms: N_10  and  C_21 
REMARK    7  A    between atoms: N_10  and  C_23 
REMARK    8  A    between atoms: N_11  and  C_38 
REMARK    9  A    between atoms: C_18  and  C_19 
REMARK   10  A    between atoms: C_18  and  C_22 
REMARK   11  A    between atoms: C_19  and  C_21 
REMARK   12  A    between atoms: C_22  and  C_25 
REMARK   13  A    between atoms: C_23  and  C_24 
ROOT
HETATM    1  O   UNK N   1      32.944  14.421   9.109  0.00  0.00    -0.392 OA
HETATM    2  C   UNK N   1      34.071  15.076   9.603  0.00  0.00     0.155 C 
HETATM    3  H   UNK N   1      32.190  13.866   8.855  0.00  0.00     0.210 HD
ENDROOT
BRANCH   2   4
HETATM    4  C   UNK N   1      34.970  14.053  10.306  0.00  0.00     0.120 C 
BRANCH   4   5
HETATM    5  N   UNK N   1      34.496  13.770  11.644  0.00  0.00    -0.329 N 
HETATM    6  C   UNK N   1      35.308  13.839  12.724  0.00  0.00     0.361 C 
HETATM    7  O   UNK N   1      36.464  14.234  12.602  0.00  0.00    -0.238 OA
HETATM    8  H   UNK N   1      33.553  13.518  11.772  0.00  0.00     0.165 HD
BRANCH   6   9
HETATM    9  O   UNK N   1      34.847  13.437  13.934  0.00  0.00    -0.296 OA
BRANCH   9  10
HETATM   10  C   UNK N   1      35.329  12.315  14.578  0.00  0.00     0.166 C 
HETATM   11  C   UNK N   1      35.860  12.623  15.941  0.00  0.00     0.075 C 
HETATM   12  C   UNK N   1      35.746  11.281  16.592  0.00  0.00     0.266 C 
HETATM   13  C   UNK N   1      34.945  13.436  16.811  0.00  0.00     0.038 C 
HETATM   14  O   UNK N   1      34.566  10.663  16.111  0.00  0.00    -0.358 OA
HETATM   15  O   UNK N   1      35.657  11.483  17.982  0.00  0.00    -0.361 OA
HETATM   16  C   UNK N   1      34.228  11.318  14.903  0.00  0.00     0.204 C 
HETATM   17  C   UNK N   1      35.200  12.809  18.167  0.00  0.00     0.171 C 
ENDBRANCH   9  10
ENDBRANCH   6   9
ENDBRANCH   4   5
BRANCH   4  18
HETATM   18  C   UNK N   1      35.126  12.752   9.517  0.00  0.00     0.066 C 
BRANCH  18  19
HETATM   19  C   UNK N   1      36.551  12.521   9.140  0.00  0.00    -0.056 A 
HETATM   20  C   UNK N   1      36.901  11.354   8.452  0.00  0.00     0.007 A 
HETATM   21  C   UNK N   1      38.234  11.116   8.106  0.00  0.00     0.001 A 
HETATM   22  C   UNK N   1      39.220  12.050   8.441  0.00  0.00     0.000 A 
HETATM   23  C   UNK N   1      38.872  13.221   9.120  0.00  0.00     0.001 A 
HETATM   24  C   UNK N   1      37.539  13.457   9.471  0.00  0.00     0.007 A 
ENDBRANCH  18  19
ENDBRANCH   4  18
ENDBRANCH   2   4
BRANCH   2  25
HETATM   25  C   UNK N   1      34.755  15.806   8.447  0.00  0.00     0.141 C 
BRANCH  25  26
HETATM   26  N   UNK N   1      34.021  15.656   7.193  0.00  0.00    -0.204 NA
BRANCH  26  27
HETATM   27  S   UNK N   1      33.319  17.251   6.869  0.00  0.00     0.243 S 
HETATM   28  O   UNK N   1      33.381  17.405   5.342  0.00  0.00    -0.206 OA
HETATM   29  O   UNK N   1      34.367  18.270   7.341  0.00  0.00    -0.206 OA
BRANCH  27  30
HETATM   30  C   UNK N   1      31.676  17.558   7.522  0.00  0.00     0.074 A 
HETATM   31  C   UNK N   1      31.509  18.313   8.688  0.00  0.00     0.027 A 
HETATM   32  C   UNK N   1      30.225  18.562   9.183  0.00  0.00     0.030 A 
HETATM   33  C   UNK N   1      29.106  18.057   8.513  0.00  0.00     0.025 A 
HETATM   34  C   UNK N   1      29.270  17.301   7.349  0.00  0.00     0.030 A 
HETATM   35  C   UNK N   1      30.553  17.052   6.855  0.00  0.00     0.027 A 
BRANCH  33  36
HETATM   36  N   UNK N   1      27.812  18.310   9.010  0.00  0.00    -0.399 N 
HETATM   37  H   UNK N   1      27.124  18.827   8.533  0.00  0.00     0.156 HD
HETATM   38  H   UNK N   1      27.580  17.945   9.894  0.00  0.00     0.156 HD
ENDBRANCH  33  36
ENDBRANCH  27  30
ENDBRANCH  26  27
BRANCH  26  39
HETATM   39  C   UNK N   1      34.936  15.388   6.078  0.00  0.00     0.111 C 
BRANCH  39  40
HETATM   40  C   UNK N   1      35.761  14.118   6.249  0.00  0.00    -0.009 C 
HETATM   41  C   UNK N   1      37.151  14.378   5.705  0.00  0.00     0.011 C 
HETATM   42  C   UNK N   1      35.128  12.979   5.481  0.00  0.00     0.011 C 
ENDBRANCH  39  40
ENDBRANCH  26  39
ENDBRANCH  25  26
ENDBRANCH   2  25
TORSDOF 13
ENDMDL
MODEL 4
REMARK VINA RESULT:      -6.9     12.464     15.891
REMARK  13 active torsions:
REMARK  status: ('A' for Active; 'I' for Inactive)
REMARK    1  A    between atoms: S_1  and  N_10 
REMARK    2  A    between atoms: S_1  and  C_26 
REMARK    3  A    between atoms: C_14  and  O_4 
REMARK    4  A    between atoms: O_4  and  C_20 
REMARK    5  A    between atoms: C_18  and  N_9 
REMARK       I    between atoms: N_9  and  C_20 
REMARK    6  A    between atoms: N_10  and  C_21 
REMARK    7  A    between atoms: N_10  and  C_23 
REMARK    8  A    between atoms: N_11  and  C_38 
REMARK    9  A    between atoms: C_18  and  C_19 
REMARK   10  A    between atoms: C_18  and  C_22 
REMARK   11  A    between atoms: C_19  and  C_21 
REMARK   12  A    between atoms: C_22  and  C_25 
REMARK   13  A    between atoms: C_23  and  C_24 
ROOT
HETATM    1  O   UNK N   1      25.348  22.989  -6.168  0.00  0.00    -0.392 OA
HETATM    2  C   UNK N   1      25.576  24.120  -6.950  0.00  0.00     0.155 C 
HETATM    3  H   UNK N   1      25.175  22.289  -5.519  0.00  0.00     0.210 HD
ENDROOT
BRANCH   2   4
HETATM    4  C   UNK N   1      25.979  25.282  -6.035  0.00  0.00     0.120 C 
BRANCH   4   5
HETATM    5  N   UNK N   1      27.245  25.023  -5.384  0.00  0.00    -0.329 N 
HETATM    6  C   UNK N   1      27.319  24.551  -4.117  0.00  0.00     0.361 C 
HETATM    7  O   UNK N   1      26.295  24.246  -3.513  0.00  0.00    -0.238 OA
HETATM    8  H   UNK N   1      28.079  25.195  -5.878  0.00  0.00     0.165 HD
BRANCH   6   9
HETATM    9  O   UNK N   1      28.527  24.450  -3.511  0.00  0.00    -0.296 OA
BRANCH   9  10
HETATM   10  C   UNK N   1      29.171  23.242  -3.334  0.00  0.00     0.166 C 
HETATM   11  C   UNK N   1      30.292  23.045  -4.305  0.00  0.00     0.075 C 
HETATM   12  C   UNK N   1      31.129  22.053  -3.562  0.00  0.00     0.266 C 
HETATM   13  C   UNK N   1      31.250  24.197  -4.411  0.00  0.00     0.038 C 
HETATM   14  O   UNK N   1      31.064  22.373  -2.183  0.00  0.00    -0.358 OA
HETATM   15  O   UNK N   1      32.452  22.173  -4.027  0.00  0.00    -0.361 OA
HETATM   16  C   UNK N   1      29.908  23.169  -2.006  0.00  0.00     0.204 C 
HETATM   17  C   UNK N   1      32.565  23.466  -4.589  0.00  0.00     0.171 C 
ENDBRANCH   9  10
ENDBRANCH   6   9
ENDBRANCH   4   5
BRANCH   4  18
HETATM   18  C   UNK N   1      26.029  26.627  -6.764  0.00  0.00     0.066 C 
BRANCH  18  19
HETATM   19  C   UNK N   1      26.378  27.733  -5.825  0.00  0.00    -0.056 A 
HETATM   20  C   UNK N   1      25.649  27.886  -4.641  0.00  0.00     0.007 A 
HETATM   21  C   UNK N   1      25.954  28.926  -3.759  0.00  0.00     0.001 A 
HETATM   22  C   UNK N   1      26.996  29.811  -4.055  0.00  0.00     0.000 A 
HETATM   23  C   UNK N   1      27.732  29.655  -5.233  0.00  0.00     0.001 A 
HETATM   24  C   UNK N   1      27.423  28.617  -6.120  0.00  0.00     0.007 A 
ENDBRANCH  18  19
ENDBRANCH   4  18
ENDBRANCH   2   4
BRANCH   2  25
HETATM   25  C   UNK N   1      26.624  23.777  -8.008  0.00  0.00     0.141 C 
BRANCH  25  26
HETATM   26  N   UNK N   1      27.521  22.712  -7.567  0.00  0.00    -0.204 NA
BRANCH  26  27
HETATM   27  S   UNK N   1      27.218  21.359  -8.669  0.00  0.00     0.243 S 
HETATM   28  O   UNK N   1      26.776  22.015  -9.986  0.00  0.00    -0.206 OA
HETATM   29  O   UNK N   1      25.917  20.706  -8.179  0.00  0.00    -0.206 OA
BRANCH  27  30
HETATM   30  C   UNK N   1      28.562  20.191  -8.903  0.00  0.00     0.074 A 
HETATM   31  C   UNK N   1      28.929  19.322  -7.871  0.00  0.00     0.027 A 
HETATM   32  C   UNK N   1      29.966  18.404  -8.065  0.00  0.00     0.030 A 
HETATM   33  C   UNK N   1      30.636  18.353  -9.291  0.00  0.00     0.025 A 
HETATM   34  C   UNK N   1      30.271  19.222 -10.324  0.00  0.00     0.030 A 
HETATM   35  C   UNK N   1      29.236  20.139 -10.130  0.00  0.00     0.027 A 
BRANCH  33  36
HETATM   36  N   UNK N   1      31.679  17.427  -9.488  0.00  0.00    -0.399 N 
HETATM   37  H   UNK N   1      31.618  16.467  -9.279  0.00  0.00     0.156 HD
HETATM   38  H   UNK N   1      32.527  17.762  -9.859  0.00  0.00     0.156 HD
ENDBRANCH  33  36
ENDBRANCH  27  30
ENDBRANCH  26  27
BRANCH  26  39
HETATM   39  C   UNK N   1      28.924  23.089  -7.772  0.00  0.00     0.111 C 
BRANCH  39  40
HETATM   40  C   UNK N   1      29.107  24.378  -8.564  0.00  0.00    -0.009 C 
HETATM   41  C   UNK N   1      29.837  24.047  -9.850  0.00  0.00     0.011 C 
HETATM   42  C   UNK N   1      29.925  25.369  -7.765  0.00  0.00     0.011 C 
ENDBRANCH  39  40
ENDBRANCH  26  39
ENDBRANCH  25  26
ENDBRANCH   2  25
TORSDOF 13
ENDMDL
MODEL 5
REMARK VINA RESULT:      -6.8      3.464      7.726
REMARK  13 active torsions:
REMARK  status: ('A' for Active; 'I' for Inactive)
REMARK    1  A    between atoms: S_1  and  N_10 
REMARK    2  A    between atoms: S_1  and  C_26 
REMARK    3  A    between atoms: C_14  and  O_4 
REMARK    4  A    between atoms: O_4  and  C_20 
REMARK    5  A    between atoms: C_18  and  N_9 
REMARK       I    between atoms: N_9  and  C_20 
REMARK    6  A    between atoms: N_10  and  C_21 
REMARK    7  A    between atoms: N_10  and  C_23 
REMARK    8  A    between atoms: N_11  and  C_38 
REMARK    9  A    between atoms: C_18  and  C_19 
REMARK   10  A    between atoms: C_18  and  C_22 
REMARK   11  A    between atoms: C_19  and  C_21 
REMARK   12  A    between atoms: C_22  and  C_25 
REMARK   13  A    between atoms: C_23  and  C_24 
ROOT
HETATM    1  O   UNK N   1      33.346  15.053  10.952  0.00  0.00    -0.392 OA
HETATM    2  C   UNK N   1      34.696  15.361  11.114  0.00  0.00     0.155 C 
HETATM    3  H   UNK N   1      32.432  14.730  10.921  0.00  0.00     0.210 HD
ENDROOT
BRANCH   2   4
HETATM    4  C   UNK N   1      35.439  14.105  11.583  0.00  0.00     0.120 C 
BRANCH   4   5
HETATM    5  N   UNK N   1      36.328  13.607  10.556  0.00  0.00    -0.329 N 
HETATM    6  C   UNK N   1      36.170  12.384   9.999  0.00  0.00     0.361 C 
HETATM    7  O   UNK N   1      35.201  11.693  10.296  0.00  0.00    -0.238 OA
HETATM    8  H   UNK N   1      37.073  14.177  10.253  0.00  0.00     0.165 HD
BRANCH   6   9
HETATM    9  O   UNK N   1      37.106  11.916   9.137  0.00  0.00    -0.296 OA
BRANCH   9  10
HETATM   10  C   UNK N   1      37.936  12.751   8.416  0.00  0.00     0.166 C 
HETATM   11  C   UNK N   1      39.371  12.611   8.813  0.00  0.00     0.075 C 
HETATM   12  C   UNK N   1      40.049  13.108   7.575  0.00  0.00     0.266 C 
HETATM   13  C   UNK N   1      39.881  11.200   8.866  0.00  0.00     0.038 C 
HETATM   14  O   UNK N   1      39.289  12.678   6.460  0.00  0.00    -0.358 OA
HETATM   15  O   UNK N   1      41.337  12.541   7.534  0.00  0.00    -0.361 OA
HETATM   16  C   UNK N   1      37.994  12.376   6.944  0.00  0.00     0.204 C 
HETATM   17  C   UNK N   1      41.292  11.381   8.342  0.00  0.00     0.171 C 
ENDBRANCH   9  10
ENDBRANCH   6   9
ENDBRANCH   4   5
BRANCH   4  18
HETATM   18  C   UNK N   1      36.210  14.319  12.888  0.00  0.00     0.066 C 
BRANCH  18  19
HETATM   19  C   UNK N   1      35.697  13.425  13.966  0.00  0.00    -0.056 A 
HETATM   20  C   UNK N   1      36.153  13.597  15.278  0.00  0.00     0.007 A 
HETATM   21  C   UNK N   1      35.693  12.757  16.296  0.00  0.00     0.001 A 
HETATM   22  C   UNK N   1      34.769  11.748  16.006  0.00  0.00     0.000 A 
HETATM   23  C   UNK N   1      34.305  11.580  14.698  0.00  0.00     0.001 A 
HETATM   24  C   UNK N   1      34.769  12.417  13.677  0.00  0.00     0.007 A 
ENDBRANCH  18  19
ENDBRANCH   4  18
ENDBRANCH   2   4
BRANCH   2  25
HETATM   25  C   UNK N   1      35.225  15.936   9.799  0.00  0.00     0.141 C 
BRANCH  25  26
HETATM   26  N   UNK N   1      34.350  15.622   8.673  0.00  0.00    -0.204 NA
BRANCH  26  27
HETATM   27  S   UNK N   1      33.776  17.189   8.077  0.00  0.00     0.243 S 
HETATM   28  O   UNK N   1      34.544  17.416   6.766  0.00  0.00    -0.206 OA
HETATM   29  O   UNK N   1      34.401  18.241   9.005  0.00  0.00    -0.206 OA
BRANCH  27  30
HETATM   30  C   UNK N   1      32.003  17.375   7.873  0.00  0.00     0.074 A 
HETATM   31  C   UNK N   1      31.265  18.143   8.780  0.00  0.00     0.027 A 
HETATM   32  C   UNK N   1      29.885  18.297   8.607  0.00  0.00     0.030 A 
HETATM   33  C   UNK N   1      29.242  17.685   7.526  0.00  0.00     0.025 A 
HETATM   34  C   UNK N   1      29.978  16.916   6.620  0.00  0.00     0.030 A 
HETATM   35  C   UNK N   1      31.355  16.762   6.793  0.00  0.00     0.027 A 
BRANCH  33  36
HETATM   36  N   UNK N   1      27.854  17.842   7.350  0.00  0.00    -0.399 N 
HETATM   37  H   UNK N   1      27.170  17.291   7.795  0.00  0.00     0.156 HD
HETATM   38  H   UNK N   1      27.545  18.551   6.740  0.00  0.00     0.156 HD
ENDBRANCH  33  36
ENDBRANCH  27  30
ENDBRANCH  26  27
BRANCH  26  39
HETATM   39  C   UNK N   1      35.110  15.028   7.568  0.00  0.00     0.111 C 
BRANCH  39  40
HETATM   40  C   UNK N   1      34.457  13.790   6.966  0.00  0.00    -0.009 C 
HETATM   41  C   UNK N   1      34.010  14.125   5.557  0.00  0.00     0.011 C 
HETATM   42  C   UNK N   1      33.254  13.383   7.788  0.00  0.00     0.011 C 
ENDBRANCH  39  40
ENDBRANCH  26  39
ENDBRANCH  25  26
ENDBRANCH   2  25
TORSDOF 13
ENDMDL
MODEL 6
REMARK VINA RESULT:      -6.7      4.414     10.409
REMARK  13 active torsions:
REMARK  status: ('A' for Active; 'I' for Inactive)
REMARK    1  A    between atoms: S_1  and  N_10 
REMARK    2  A    between atoms: S_1  and  C_26 
REMARK    3  A    between atoms: C_14  and  O_4 
REMARK    4  A    between atoms: O_4  and  C_20 
REMARK    5  A    between atoms: C_18  and  N_9 
REMARK       I    between atoms: N_9  and  C_20 
REMARK    6  A    between atoms: N_10  and  C_21 
REMARK    7  A    between atoms: N_10  and  C_23 
REMARK    8  A    between atoms: N_11  and  C_38 
REMARK    9  A    between atoms: C_18  and  C_19 
REMARK   10  A    between atoms: C_18  and  C_22 
REMARK   11  A    between atoms: C_19  and  C_21 
REMARK   12  A    between atoms: C_22  and  C_25 
REMARK   13  A    between atoms: C_23  and  C_24 
ROOT
HETATM    1  O   UNK N   1      37.896  15.174  10.234  0.00  0.00    -0.392 OA
HETATM    2  C   UNK N   1      37.036  14.141  10.605  0.00  0.00     0.155 C 
HETATM    3  H   UNK N   1      38.423  15.970  10.067  0.00  0.00     0.210 HD
ENDROOT
BRANCH   2   4
HETATM    4  C   UNK N   1      35.781  14.745  11.245  0.00  0.00     0.120 C 
BRANCH   4   5
HETATM    5  N   UNK N   1      34.971  15.434  10.264  0.00  0.00    -0.329 N 
HETATM    6  C   UNK N   1      35.046  16.773  10.082  0.00  0.00     0.361 C 
HETATM    7  O   UNK N   1      35.880  17.432  10.696  0.00  0.00    -0.238 OA
HETATM    8  H   UNK N   1      34.345  14.912   9.712  0.00  0.00     0.165 HD
BRANCH   6   9
HETATM    9  O   UNK N   1      34.174  17.384   9.244  0.00  0.00    -0.296 OA
BRANCH   9  10
HETATM   10  C   UNK N   1      33.619  16.744   8.154  0.00  0.00     0.166 C 
HETATM   11  C   UNK N   1      32.136  16.597   8.271  0.00  0.00     0.075 C 
HETATM   12  C   UNK N   1      31.757  16.458   6.831  0.00  0.00     0.266 C 
HETATM   13  C   UNK N   1      31.400  17.854   8.635  0.00  0.00     0.038 C 
HETATM   14  O   UNK N   1      32.607  17.302   6.074  0.00  0.00    -0.358 OA
HETATM   15  O   UNK N   1      30.418  16.869   6.697  0.00  0.00    -0.361 OA
HETATM   16  C   UNK N   1      33.739  17.566   6.880  0.00  0.00     0.204 C 
HETATM   17  C   UNK N   1      30.141  17.704   7.804  0.00  0.00     0.171 C 
ENDBRANCH   9  10
ENDBRANCH   6   9
ENDBRANCH   4   5
BRANCH   4  18
HETATM   18  C   UNK N   1      34.936  13.712  11.993  0.00  0.00     0.066 C 
BRANCH  18  19
HETATM   19  C   UNK N   1      35.359  13.605  13.420  0.00  0.00    -0.056 A 
HETATM   20  C   UNK N   1      34.659  12.755  14.284  0.00  0.00     0.007 A 
HETATM   21  C   UNK N   1      35.033  12.656  15.626  0.00  0.00     0.001 A 
HETATM   22  C   UNK N   1      36.114  13.401  16.107  0.00  0.00     0.000 A 
HETATM   23  C   UNK N   1      36.821  14.244  15.245  0.00  0.00     0.001 A 
HETATM   24  C   UNK N   1      36.444  14.348  13.901  0.00  0.00     0.007 A 
ENDBRANCH  18  19
ENDBRANCH   4  18
ENDBRANCH   2   4
BRANCH   2  25
HETATM   25  C   UNK N   1      36.747  13.283   9.372  0.00  0.00     0.141 C 
BRANCH  25  26
HETATM   26  N   UNK N   1      37.560  12.070   9.346  0.00  0.00    -0.204 NA
BRANCH  26  27
HETATM   27  S   UNK N   1      36.532  10.804  10.039  0.00  0.00     0.243 S 
HETATM   28  O   UNK N   1      36.787   9.567   9.164  0.00  0.00    -0.206 OA
HETATM   29  O   UNK N   1      35.093  11.181   9.655  0.00  0.00    -0.206 OA
BRANCH  27  30
HETATM   30  C   UNK N   1      36.741  10.461  11.788  0.00  0.00     0.074 A 
HETATM   31  C   UNK N   1      37.785  11.057  12.504  0.00  0.00     0.027 A 
HETATM   32  C   UNK N   1      37.933  10.797  13.871  0.00  0.00     0.030 A 
HETATM   33  C   UNK N   1      37.038   9.943  14.523  0.00  0.00     0.025 A 
HETATM   34  C   UNK N   1      35.996   9.346  13.809  0.00  0.00     0.030 A 
HETATM   35  C   UNK N   1      35.848   9.605  12.444  0.00  0.00     0.027 A 
BRANCH  33  36
HETATM   36  N   UNK N   1      37.186   9.684  15.900  0.00  0.00    -0.399 N 
HETATM   37  H   UNK N   1      37.733  10.226  16.512  0.00  0.00     0.156 HD
HETATM   38  H   UNK N   1      36.710   8.908  16.275  0.00  0.00     0.156 HD
ENDBRANCH  33  36
ENDBRANCH  27  30
ENDBRANCH  26  27
BRANCH  26  39
HETATM   39  C   UNK N   1      37.834  11.652   7.966  0.00  0.00     0.111 C 
BRANCH  39  40
HETATM   40  C   UNK N   1      39.315  11.649   7.607  0.00  0.00    -0.009 C 
HETATM   41  C   UNK N   1      39.592  10.433   6.746  0.00  0.00     0.011 C 
HETATM   42  C   UNK N   1      40.156  11.575   8.862  0.00  0.00     0.011 C 
ENDBRANCH  39  40
ENDBRANCH  26  39
ENDBRANCH  25  26
ENDBRANCH   2  25
TORSDOF 13
ENDMDL
MODEL 7
REMARK VINA RESULT:      -6.7      4.329      6.505
REMARK  13 active torsions:
REMARK  status: ('A' for Active; 'I' for Inactive)
REMARK    1  A    between atoms: S_1  and  N_10 
REMARK    2  A    between atoms: S_1  and  C_26 
REMARK    3  A    between atoms: C_14  and  O_4 
REMARK    4  A    between atoms: O_4  and  C_20 
REMARK    5  A    between atoms: C_18  and  N_9 
REMARK       I    between atoms: N_9  and  C_20 
REMARK    6  A    between atoms: N_10  and  C_21 
REMARK    7  A    between atoms: N_10  and  C_23 
REMARK    8  A    between atoms: N_11  and  C_38 
REMARK    9  A    between atoms: C_18  and  C_19 
REMARK   10  A    between atoms: C_18  and  C_22 
REMARK   11  A    between atoms: C_19  and  C_21 
REMARK   12  A    between atoms: C_22  and  C_25 
REMARK   13  A    between atoms: C_23  and  C_24 
ROOT
HETATM    1  O   UNK N   1      26.846  14.157   5.995  0.00  0.00    -0.392 OA
HETATM    2  C   UNK N   1      26.617  15.407   6.568  0.00  0.00     0.155 C 
HETATM    3  H   UNK N   1      27.128  13.338   5.558  0.00  0.00     0.210 HD
ENDROOT
BRANCH   2   4
HETATM    4  C   UNK N   1      27.575  16.424   5.940  0.00  0.00     0.120 C 
BRANCH   4   5
HETATM    5  N   UNK N   1      28.953  16.109   6.250  0.00  0.00    -0.329 N 
HETATM    6  C   UNK N   1      29.756  16.972   6.915  0.00  0.00     0.361 C 
HETATM    7  O   UNK N   1      29.301  18.024   7.352  0.00  0.00    -0.238 OA
HETATM    8  H   UNK N   1      29.317  15.239   5.968  0.00  0.00     0.165 HD
BRANCH   6   9
HETATM    9  O   UNK N   1      31.072  16.681   7.064  0.00  0.00    -0.296 OA
BRANCH   9  10
HETATM   10  C   UNK N   1      32.048  17.655   7.115  0.00  0.00     0.166 C 
HETATM   11  C   UNK N   1      32.765  17.678   8.426  0.00  0.00     0.075 C 
HETATM   12  C   UNK N   1      34.051  18.329   8.026  0.00  0.00     0.266 C 
HETATM   13  C   UNK N   1      33.262  16.343   8.901  0.00  0.00     0.038 C 
HETATM   14  O   UNK N   1      34.386  17.872   6.728  0.00  0.00    -0.358 OA
HETATM   15  O   UNK N   1      35.037  17.935   8.950  0.00  0.00    -0.361 OA
HETATM   16  C   UNK N   1      33.191  17.378   6.152  0.00  0.00     0.204 C 
HETATM   17  C   UNK N   1      34.580  16.733   9.539  0.00  0.00     0.171 C 
ENDBRANCH   9  10
ENDBRANCH   6   9
ENDBRANCH   4   5
BRANCH   4  18
HETATM   18  C   UNK N   1      27.395  16.560   4.426  0.00  0.00     0.066 C 
BRANCH  18  19
HETATM   19  C   UNK N   1      26.962  17.940   4.059  0.00  0.00    -0.056 A 
HETATM   20  C   UNK N   1      27.811  19.020   4.323  0.00  0.00     0.007 A 
HETATM   21  C   UNK N   1      27.413  20.320   3.999  0.00  0.00     0.001 A 
HETATM   22  C   UNK N   1      26.167  20.542   3.404  0.00  0.00     0.000 A 
HETATM   23  C   UNK N   1      25.320  19.464   3.132  0.00  0.00     0.001 A 
HETATM   24  C   UNK N   1      25.716  18.162   3.460  0.00  0.00     0.007 A 
ENDBRANCH  18  19
ENDBRANCH   4  18
ENDBRANCH   2   4
BRANCH   2  25
HETATM   25  C   UNK N   1      25.140  15.760   6.390  0.00  0.00     0.141 C 
BRANCH  25  26
HETATM   26  N   UNK N   1      24.395  14.687   5.737  0.00  0.00    -0.204 NA
BRANCH  26  27
HETATM   27  S   UNK N   1      22.880  14.549   6.647  0.00  0.00     0.243 S 
HETATM   28  O   UNK N   1      21.888  13.907   5.665  0.00  0.00    -0.206 OA
HETATM   29  O   UNK N   1      22.336  15.981   6.767  0.00  0.00    -0.206 OA
BRANCH  27  30
HETATM   30  C   UNK N   1      22.955  13.676   8.213  0.00  0.00     0.074 A 
HETATM   31  C   UNK N   1      21.870  13.713   9.094  0.00  0.00     0.027 A 
HETATM   32  C   UNK N   1      21.929  13.018  10.306  0.00  0.00     0.030 A 
HETATM   33  C   UNK N   1      23.072  12.284  10.639  0.00  0.00     0.025 A 
HETATM   34  C   UNK N   1      24.158  12.247   9.760  0.00  0.00     0.030 A 
HETATM   35  C   UNK N   1      24.099  12.942   8.550  0.00  0.00     0.027 A 
BRANCH  33  36
HETATM   36  N   UNK N   1      23.130  11.582  11.858  0.00  0.00    -0.399 N 
HETATM   37  H   UNK N   1      23.951  11.444  12.382  0.00  0.00     0.156 HD
HETATM   38  H   UNK N   1      22.292  11.202  12.210  0.00  0.00     0.156 HD
ENDBRANCH  33  36
ENDBRANCH  27  30
ENDBRANCH  26  27
BRANCH  26  39
HETATM   39  C   UNK N   1      24.009  15.070   4.374  0.00  0.00     0.111 C 
BRANCH  39  40
HETATM   40  C   UNK N   1      24.747  14.300   3.285  0.00  0.00    -0.009 C 
HETATM   41  C   UNK N   1      24.138  14.667   1.947  0.00  0.00     0.011 C 
HETATM   42  C   UNK N   1      24.600  12.811   3.509  0.00  0.00     0.011 C 
ENDBRANCH  39  40
ENDBRANCH  26  39
ENDBRANCH  25  26
ENDBRANCH   2  25
TORSDOF 13
ENDMDL
MODEL 8
REMARK VINA RESULT:      -6.6      4.806     10.259
REMARK  13 active torsions:
REMARK  status: ('A' for Active; 'I' for Inactive)
REMARK    1  A    between atoms: S_1  and  N_10 
REMARK    2  A    between atoms: S_1  and  C_26 
REMARK    3  A    between atoms: C_14  and  O_4 
REMARK    4  A    between atoms: O_4  and  C_20 
REMARK    5  A    between atoms: C_18  and  N_9 
REMARK       I    between atoms: N_9  and  C_20 
REMARK    6  A    between atoms: N_10  and  C_21 
REMARK    7  A    between atoms: N_10  and  C_23 
REMARK    8  A    between atoms: N_11  and  C_38 
REMARK    9  A    between atoms: C_18  and  C_19 
REMARK   10  A    between atoms: C_18  and  C_22 
REMARK   11  A    between atoms: C_19  and  C_21 
REMARK   12  A    between atoms: C_22  and  C_25 
REMARK   13  A    between atoms: C_23  and  C_24 
ROOT
HETATM    1  O   UNK N   1      26.832  16.438   7.752  0.00  0.00    -0.392 OA
HETATM    2  C   UNK N   1      26.550  15.444   6.816  0.00  0.00     0.155 C 
HETATM    3  H   UNK N   1      26.898  17.110   8.448  0.00  0.00     0.210 HD
ENDROOT
BRANCH   2   4
HETATM    4  C   UNK N   1      25.030  15.312   6.674  0.00  0.00     0.120 C 
BRANCH   4   5
HETATM    5  N   UNK N   1      24.541  16.068   5.542  0.00  0.00    -0.329 N 
HETATM    6  C   UNK N   1      23.297  16.601   5.517  0.00  0.00     0.361 C 
HETATM    7  O   UNK N   1      22.575  16.526   6.506  0.00  0.00    -0.238 OA
HETATM    8  H   UNK N   1      25.132  16.200   4.766  0.00  0.00     0.165 HD
BRANCH   6   9
HETATM    9  O   UNK N   1      22.844  17.187   4.382  0.00  0.00    -0.296 OA
BRANCH   9  10
HETATM   10  C   UNK N   1      21.500  17.295   4.086  0.00  0.00     0.166 C 
HETATM   11  C   UNK N   1      21.052  18.718   3.980  0.00  0.00     0.075 C 
HETATM   12  C   UNK N   1      19.836  18.560   3.121  0.00  0.00     0.266 C 
HETATM   13  C   UNK N   1      21.904  19.589   3.102  0.00  0.00     0.038 C 
HETATM   14  O   UNK N   1      20.099  17.537   2.178  0.00  0.00    -0.358 OA
HETATM   15  O   UNK N   1      19.615  19.784   2.462  0.00  0.00    -0.361 OA
HETATM   16  C   UNK N   1      21.170  16.772   2.697  0.00  0.00     0.204 C 
HETATM   17  C   UNK N   1      20.853  20.468   2.456  0.00  0.00     0.171 C 
ENDBRANCH   9  10
ENDBRANCH   6   9
ENDBRANCH   4   5
BRANCH   4  18
HETATM   18  C   UNK N   1      24.563  13.857   6.576  0.00  0.00     0.066 C 
BRANCH  18  19
HETATM   19  C   UNK N   1      23.970  13.397   7.865  0.00  0.00    -0.056 A 
HETATM   20  C   UNK N   1      22.581  13.257   7.972  0.00  0.00     0.007 A 
HETATM   21  C   UNK N   1      22.009  12.842   9.177  0.00  0.00     0.001 A 
HETATM   22  C   UNK N   1      22.825  12.559  10.278  0.00  0.00     0.000 A 
HETATM   23  C   UNK N   1      24.212  12.688  10.171  0.00  0.00     0.001 A 
HETATM   24  C   UNK N   1      24.786  13.109   8.966  0.00  0.00     0.007 A 
ENDBRANCH  18  19
ENDBRANCH   4  18
ENDBRANCH   2   4
BRANCH   2  25
HETATM   25  C   UNK N   1      27.264  15.791   5.509  0.00  0.00     0.141 C 
BRANCH  25  26
HETATM   26  N   UNK N   1      28.202  16.898   5.674  0.00  0.00    -0.204 NA
BRANCH  26  27
HETATM   27  S   UNK N   1      29.800  16.211   5.332  0.00  0.00     0.243 S 
HETATM   28  O   UNK N   1      29.971  16.351   3.812  0.00  0.00    -0.206 OA
HETATM   29  O   UNK N   1      29.644  14.692   5.502  0.00  0.00    -0.206 OA
BRANCH  27  30
HETATM   30  C   UNK N   1      31.185  16.897   6.244  0.00  0.00     0.074 A 
HETATM   31  C   UNK N   1      32.429  17.055   5.624  0.00  0.00     0.027 A 
HETATM   32  C   UNK N   1      33.501  17.605   6.335  0.00  0.00     0.030 A 
HETATM   33  C   UNK N   1      33.330  17.997   7.667  0.00  0.00     0.025 A 
HETATM   34  C   UNK N   1      32.089  17.838   8.288  0.00  0.00     0.030 A 
HETATM   35  C   UNK N   1      31.019  17.289   7.578  0.00  0.00     0.027 A 
BRANCH  33  36
HETATM   36  N   UNK N   1      34.409  18.553   8.382  0.00  0.00    -0.399 N 
HETATM   37  H   UNK N   1      35.353  18.479   8.113  0.00  0.00     0.156 HD
HETATM   38  H   UNK N   1      34.205  19.048   9.208  0.00  0.00     0.156 HD
ENDBRANCH  33  36
ENDBRANCH  27  30
ENDBRANCH  26  27
BRANCH  26  39
HETATM   39  C   UNK N   1      27.983  17.929   4.653  0.00  0.00     0.111 C 
BRANCH  39  40
HETATM   40  C   UNK N   1      27.556  19.277   5.220  0.00  0.00    -0.009 C 
HETATM   41  C   UNK N   1      27.986  19.340   6.672  0.00  0.00     0.011 C 
HETATM   42  C   UNK N   1      26.053  19.425   5.137  0.00  0.00     0.011 C 
ENDBRANCH  39  40
ENDBRANCH  26  39
ENDBRANCH  25  26
ENDBRANCH   2  25
TORSDOF 13
ENDMDL
MODEL 9
REMARK VINA RESULT:      -6.5      3.579      6.929
REMARK  13 active torsions:
REMARK  status: ('A' for Active; 'I' for Inactive)
REMARK    1  A    between atoms: S_1  and  N_10 
REMARK    2  A    between atoms: S_1  and  C_26 
REMARK    3  A    between atoms: C_14  and  O_4 
REMARK    4  A    between atoms: O_4  and  C_20 
REMARK    5  A    between atoms: C_18  and  N_9 
REMARK       I    between atoms: N_9  and  C_20 
REMARK    6  A    between atoms: N_10  and  C_21 
REMARK    7  A    between atoms: N_10  and  C_23 
REMARK    8  A    between atoms: N_11  and  C_38 
REMARK    9  A    between atoms: C_18  and  C_19 
REMARK   10  A    between atoms: C_18  and  C_22 
REMARK   11  A    between atoms: C_19  and  C_21 
REMARK   12  A    between atoms: C_22  and  C_25 
REMARK   13  A    between atoms: C_23  and  C_24 
ROOT
HETATM    1  O   UNK N   1      33.959  15.828  10.225  0.00  0.00    -0.392 OA
HETATM    2  C   UNK N   1      34.280  14.939   9.201  0.00  0.00     0.155 C 
HETATM    3  H   UNK N   1      33.797  16.356  11.023  0.00  0.00     0.210 HD
ENDROOT
BRANCH   2   4
HETATM    4  C   UNK N   1      34.554  13.559   9.809  0.00  0.00     0.120 C 
BRANCH   4   5
HETATM    5  N   UNK N   1      34.303  13.554  11.234  0.00  0.00    -0.329 N 
HETATM    6  C   UNK N   1      35.285  13.323  12.137  0.00  0.00     0.361 C 
HETATM    7  O   UNK N   1      36.447  13.195  11.764  0.00  0.00    -0.238 OA
HETATM    8  H   UNK N   1      33.389  13.724  11.557  0.00  0.00     0.165 HD
BRANCH   6   9
HETATM    9  O   UNK N   1      34.970  13.200  13.449  0.00  0.00    -0.296 OA
BRANCH   9  10
HETATM   10  C   UNK N   1      35.261  12.066  14.181  0.00  0.00     0.166 C 
HETATM   11  C   UNK N   1      35.785  12.385  15.544  0.00  0.00     0.075 C 
HETATM   12  C   UNK N   1      35.455  11.119  16.270  0.00  0.00     0.266 C 
HETATM   13  C   UNK N   1      34.969  13.376  16.323  0.00  0.00     0.038 C 
HETATM   14  O   UNK N   1      34.214  10.645  15.776  0.00  0.00    -0.358 OA
HETATM   15  O   UNK N   1      35.349  11.424  17.639  0.00  0.00    -0.361 OA
HETATM   16  C   UNK N   1      34.016  11.261  14.518  0.00  0.00     0.204 C 
HETATM   17  C   UNK N   1      35.084  12.810  17.724  0.00  0.00     0.171 C 
ENDBRANCH   9  10
ENDBRANCH   6   9
ENDBRANCH   4   5
BRANCH   4  18
HETATM   18  C   UNK N   1      33.761  12.439   9.131  0.00  0.00     0.066 C 
BRANCH  18  19
HETATM   19  C   UNK N   1      34.607  11.704   8.146  0.00  0.00    -0.056 A 
HETATM   20  C   UNK N   1      35.969  11.525   8.408  0.00  0.00     0.007 A 
HETATM   21  C   UNK N   1      36.778  10.852   7.489  0.00  0.00     0.001 A 
HETATM   22  C   UNK N   1      36.223  10.349   6.307  0.00  0.00     0.000 A 
HETATM   23  C   UNK N   1      34.860  10.519   6.047  0.00  0.00     0.001 A 
HETATM   24  C   UNK N   1      34.051  11.197   6.965  0.00  0.00     0.007 A 
ENDBRANCH  18  19
ENDBRANCH   4  18
ENDBRANCH   2   4
BRANCH   2  25
HETATM   25  C   UNK N   1      33.145  14.947   8.176  0.00  0.00     0.141 C 
BRANCH  25  26
HETATM   26  N   UNK N   1      33.615  15.303   6.841  0.00  0.00    -0.204 NA
BRANCH  26  27
HETATM   27  S   UNK N   1      33.091  16.977   6.592  0.00  0.00     0.243 S 
HETATM   28  O   UNK N   1      33.100  17.170   5.067  0.00  0.00    -0.206 OA
HETATM   29  O   UNK N   1      34.272  17.854   7.036  0.00  0.00    -0.206 OA
BRANCH  27  30
HETATM   30  C   UNK N   1      31.526  17.452   7.333  0.00  0.00     0.074 A 
HETATM   31  C   UNK N   1      30.319  17.055   6.748  0.00  0.00     0.027 A 
HETATM   32  C   UNK N   1      29.104  17.415   7.340  0.00  0.00     0.030 A 
HETATM   33  C   UNK N   1      29.094  18.171   8.516  0.00  0.00     0.025 A 
HETATM   34  C   UNK N   1      30.299  18.570   9.101  0.00  0.00     0.030 A 
HETATM   35  C   UNK N   1      31.513  18.211   8.510  0.00  0.00     0.027 A 
BRANCH  33  36
HETATM   36  N   UNK N   1      27.870  18.532   9.113  0.00  0.00    -0.399 N 
HETATM   37  H   UNK N   1      27.710  19.379   9.587  0.00  0.00     0.156 HD
HETATM   38  H   UNK N   1      27.124  17.892   9.053  0.00  0.00     0.156 HD
ENDBRANCH  33  36
ENDBRANCH  27  30
ENDBRANCH  26  27
BRANCH  26  39
HETATM   39  C   UNK N   1      35.082  15.332   6.790  0.00  0.00     0.111 C 
BRANCH  39  40
HETATM   40  C   UNK N   1      35.691  14.231   5.932  0.00  0.00    -0.009 C 
HETATM   41  C   UNK N   1      37.163  14.535   5.741  0.00  0.00     0.011 C 
HETATM   42  C   UNK N   1      35.011  14.187   4.581  0.00  0.00     0.011 C 
ENDBRANCH  39  40
ENDBRANCH  26  39
ENDBRANCH  25  26
ENDBRANCH   2  25
TORSDOF 13
ENDMDL
