MODEL 1
REMARK VINA RESULT:      -6.3      0.000      0.000
REMARK  4 active torsions:
REMARK  status: ('A' for Active; 'I' for Inactive)
REMARK    1  A    between atoms: C_8  and  O_2 
REMARK    2  A    between atoms: O_3  and  C_12 
REMARK    3  A    between atoms: C_9  and  N_6 
REMARK    4  A    between atoms: C_11  and  C_12 
ROOT
HETATM    1  O   UNK N   1      22.750  17.113   5.518  0.00  0.00    -0.246 OA
HETATM    2  O   UNK N   1      27.094  18.137   5.342  0.00  0.00    -0.267 OA
HETATM    3  N   UNK N   1      23.351  18.813   4.131  0.00  0.00    -0.282 N 
HETATM    4  N   UNK N   1      24.927  17.589   5.449  0.00  0.00    -0.275 N 
HETATM    5  C   UNK N   1      24.371  19.582   3.656  0.00  0.00     0.110 A 
HETATM    6  C   UNK N   1      23.634  17.803   5.046  0.00  0.00     0.331 A 
HETATM    7  C   UNK N   1      25.687  19.366   4.050  0.00  0.00     0.022 A 
HETATM    8  C   UNK N   1      25.955  18.349   4.966  0.00  0.00     0.256 A 
HETATM    9  C   UNK N   1      26.772  20.217   3.486  0.00  0.00     0.056 C 
HETATM   10  H   UNK N   1      25.119  16.874   6.099  0.00  0.00     0.173 HD
ENDROOT
BRANCH   3  11
HETATM   11  C   UNK N   1      21.996  19.159   3.653  0.00  0.00     0.235 C 
HETATM   12  O   UNK N   1      22.028  20.228   2.746  0.00  0.00    -0.356 OA
HETATM   13  C   UNK N   1      20.710  20.228   2.286  0.00  0.00     0.176 C 
HETATM   14  C   UNK N   1      20.410  18.793   1.935  0.00  0.00     0.153 C 
HETATM   15  C   UNK N   1      21.177  18.047   2.998  0.00  0.00     0.088 C 
BRANCH  13  16
HETATM   16  C   UNK N   1      20.536  21.160   1.103  0.00  0.00     0.198 C 
BRANCH  16  17
HETATM   17  O   UNK N   1      20.562  20.419  -0.080  0.00  0.00    -0.398 OA
HETATM   18  H   UNK N   1      21.340  19.919  -0.372  0.00  0.00     0.209 HD
ENDBRANCH  16  17
ENDBRANCH  13  16
BRANCH  14  19
HETATM   19  O   UNK N   1      19.041  18.543   2.045  0.00  0.00    -0.393 OA
HETATM   20  H   UNK N   1      18.474  17.989   1.487  0.00  0.00     0.210 HD
ENDBRANCH  14  19
ENDBRANCH   3  11
TORSDOF 4
ENDMDL
MODEL 2
REMARK VINA RESULT:      -6.2      6.278      7.917
REMARK  4 active torsions:
REMARK  status: ('A' for Active; 'I' for Inactive)
REMARK    1  A    between atoms: C_8  and  O_2 
REMARK    2  A    between atoms: O_3  and  C_12 
REMARK    3  A    between atoms: C_9  and  N_6 
REMARK    4  A    between atoms: C_11  and  C_12 
ROOT
HETATM    1  O   UNK N   1      19.556  13.019  10.543  0.00  0.00    -0.246 OA
HETATM    2  O   UNK N   1      23.442  11.316  11.941  0.00  0.00    -0.267 OA
HETATM    3  N   UNK N   1      21.434  13.730   9.476  0.00  0.00    -0.282 N 
HETATM    4  N   UNK N   1      21.475  12.140  11.262  0.00  0.00    -0.275 N 
HETATM    5  C   UNK N   1      22.794  13.658   9.403  0.00  0.00     0.110 A 
HETATM    6  C   UNK N   1      20.766  12.962  10.423  0.00  0.00     0.331 A 
HETATM    7  C   UNK N   1      23.522  12.819  10.240  0.00  0.00     0.022 A 
HETATM    8  C   UNK N   1      22.837  12.055  11.184  0.00  0.00     0.256 A 
HETATM    9  C   UNK N   1      25.005  12.757  10.109  0.00  0.00     0.056 C 
HETATM   10  H   UNK N   1      20.995  11.601  11.931  0.00  0.00     0.173 HD
ENDROOT
BRANCH   3  11
HETATM   11  C   UNK N   1      20.781  14.676   8.547  0.00  0.00     0.235 C 
HETATM   12  O   UNK N   1      20.362  15.840   9.208  0.00  0.00    -0.356 OA
HETATM   13  C   UNK N   1      19.989  16.641   8.129  0.00  0.00     0.176 C 
HETATM   14  C   UNK N   1      21.133  16.556   7.152  0.00  0.00     0.153 C 
HETATM   15  C   UNK N   1      21.582  15.126   7.325  0.00  0.00     0.088 C 
BRANCH  13  16
HETATM   16  C   UNK N   1      19.709  18.066   8.566  0.00  0.00     0.198 C 
BRANCH  16  17
HETATM   17  O   UNK N   1      20.555  18.938   7.880  0.00  0.00    -0.398 OA
HETATM   18  H   UNK N   1      20.319  19.345   7.032  0.00  0.00     0.209 HD
ENDBRANCH  16  17
ENDBRANCH  13  16
BRANCH  14  19
HETATM   19  O   UNK N   1      20.680  16.779   5.852  0.00  0.00    -0.393 OA
HETATM   20  H   UNK N   1      20.936  16.333   5.029  0.00  0.00     0.210 HD
ENDBRANCH  14  19
ENDBRANCH   3  11
TORSDOF 4
ENDMDL
MODEL 3
REMARK VINA RESULT:      -5.8      1.921      1.999
REMARK  4 active torsions:
REMARK  status: ('A' for Active; 'I' for Inactive)
REMARK    1  A    between atoms: C_8  and  O_2 
REMARK    2  A    between atoms: O_3  and  C_12 
REMARK    3  A    between atoms: C_9  and  N_6 
REMARK    4  A    between atoms: C_11  and  C_12 
ROOT
HETATM    1  O   UNK N   1      21.340  16.999   6.639  0.00  0.00    -0.246 OA
HETATM    2  O   UNK N   1      25.488  15.448   6.054  0.00  0.00    -0.267 OA
HETATM    3  N   UNK N   1      22.361  17.510   4.672  0.00  0.00    -0.282 N 
HETATM    4  N   UNK N   1      23.405  16.200   6.379  0.00  0.00    -0.275 N 
HETATM    5  C   UNK N   1      23.493  17.402   3.921  0.00  0.00     0.110 A 
HETATM    6  C   UNK N   1      22.318  16.902   5.923  0.00  0.00     0.331 A 
HETATM    7  C   UNK N   1      24.596  16.682   4.368  0.00  0.00     0.022 A 
HETATM    8  C   UNK N   1      24.538  16.079   5.624  0.00  0.00     0.256 A 
HETATM    9  C   UNK N   1      25.803  16.573   3.502  0.00  0.00     0.056 C 
HETATM   10  H   UNK N   1      23.369  15.775   7.266  0.00  0.00     0.173 HD
ENDROOT
BRANCH   3  11
HETATM   11  C   UNK N   1      21.269  18.321   4.094  0.00  0.00     0.235 C 
HETATM   12  O   UNK N   1      21.750  19.219   3.129  0.00  0.00    -0.356 OA
HETATM   13  C   UNK N   1      20.555  19.698   2.591  0.00  0.00     0.176 C 
HETATM   14  C   UNK N   1      19.724  18.474   2.307  0.00  0.00     0.153 C 
HETATM   15  C   UNK N   1      20.099  17.571   3.456  0.00  0.00     0.088 C 
BRANCH  13  16
HETATM   16  C   UNK N   1      20.802  20.529   1.347  0.00  0.00     0.198 C 
BRANCH  16  17
HETATM   17  O   UNK N   1      20.543  19.757   0.214  0.00  0.00    -0.398 OA
HETATM   18  H   UNK N   1      20.501  20.130  -0.681  0.00  0.00     0.209 HD
ENDBRANCH  16  17
ENDBRANCH  13  16
BRANCH  14  19
HETATM   19  O   UNK N   1      18.366  18.789   2.349  0.00  0.00    -0.393 OA
HETATM   20  H   UNK N   1      17.727  18.651   3.066  0.00  0.00     0.210 HD
ENDBRANCH  14  19
ENDBRANCH   3  11
TORSDOF 4
ENDMDL
MODEL 4
REMARK VINA RESULT:      -5.8      6.484      9.539
REMARK  4 active torsions:
REMARK  status: ('A' for Active; 'I' for Inactive)
REMARK    1  A    between atoms: C_8  and  O_2 
REMARK    2  A    between atoms: O_3  and  C_12 
REMARK    3  A    between atoms: C_9  and  N_6 
REMARK    4  A    between atoms: C_11  and  C_12 
ROOT
HETATM    1  O   UNK N   1      21.101  12.375   6.274  0.00  0.00    -0.246 OA
HETATM    2  O   UNK N   1      19.321  16.445   5.800  0.00  0.00    -0.267 OA
HETATM    3  N   UNK N   1      20.988  13.672   8.140  0.00  0.00    -0.282 N 
HETATM    4  N   UNK N   1      20.198  14.396   6.001  0.00  0.00    -0.275 N 
HETATM    5  C   UNK N   1      20.632  14.881   8.660  0.00  0.00     0.110 A 
HETATM    6  C   UNK N   1      20.771  13.428   6.787  0.00  0.00     0.331 A 
HETATM    7  C   UNK N   1      20.040  15.864   7.876  0.00  0.00     0.022 A 
HETATM    8  C   UNK N   1      19.828  15.604   6.522  0.00  0.00     0.256 A 
HETATM    9  C   UNK N   1      19.647  17.161   8.494  0.00  0.00     0.056 C 
HETATM   10  H   UNK N   1      20.050  14.217   5.045  0.00  0.00     0.173 HD
ENDROOT
BRANCH   3  11
HETATM   11  C   UNK N   1      21.629  12.723   9.073  0.00  0.00     0.235 C 
HETATM   12  O   UNK N   1      23.026  12.841   9.049  0.00  0.00    -0.356 OA
HETATM   13  C   UNK N   1      23.382  12.031  10.128  0.00  0.00     0.176 C 
HETATM   14  C   UNK N   1      22.489  12.462  11.262  0.00  0.00     0.153 C 
HETATM   15  C   UNK N   1      21.206  12.787  10.541  0.00  0.00     0.088 C 
BRANCH  13  16
HETATM   16  C   UNK N   1      24.854  12.172  10.466  0.00  0.00     0.198 C 
BRANCH  16  17
HETATM   17  O   UNK N   1      24.993  12.458  11.824  0.00  0.00    -0.398 OA
HETATM   18  H   UNK N   1      25.609  11.983  12.404  0.00  0.00     0.209 HD
ENDBRANCH  16  17
ENDBRANCH  13  16
BRANCH  14  19
HETATM   19  O   UNK N   1      22.301  11.408  12.158  0.00  0.00    -0.393 OA
HETATM   20  H   UNK N   1      21.674  10.670  12.111  0.00  0.00     0.210 HD
ENDBRANCH  14  19
ENDBRANCH   3  11
TORSDOF 4
ENDMDL
MODEL 5
REMARK VINA RESULT:      -5.8      9.195     11.538
REMARK  4 active torsions:
REMARK  status: ('A' for Active; 'I' for Inactive)
REMARK    1  A    between atoms: C_8  and  O_2 
REMARK    2  A    between atoms: O_3  and  C_12 
REMARK    3  A    between atoms: C_9  and  N_6 
REMARK    4  A    between atoms: C_11  and  C_12 
ROOT
HETATM    1  O   UNK N   1      34.782  19.122   8.292  0.00  0.00    -0.246 OA
HETATM    2  O   UNK N   1      35.526  15.692  11.056  0.00  0.00    -0.267 OA
HETATM    3  N   UNK N   1      33.691  17.179   7.837  0.00  0.00    -0.282 N 
HETATM    4  N   UNK N   1      35.170  17.436   9.699  0.00  0.00    -0.275 N 
HETATM    5  C   UNK N   1      33.489  15.880   8.199  0.00  0.00     0.110 A 
HETATM    6  C   UNK N   1      34.549  17.967   8.597  0.00  0.00     0.331 A 
HETATM    7  C   UNK N   1      34.104  15.335   9.321  0.00  0.00     0.022 A 
HETATM    8  C   UNK N   1      34.961  16.138  10.073  0.00  0.00     0.256 A 
HETATM    9  C   UNK N   1      33.835  13.916   9.690  0.00  0.00     0.056 C 
HETATM   10  H   UNK N   1      35.778  17.999  10.230  0.00  0.00     0.173 HD
ENDROOT
BRANCH   3  11
HETATM   11  C   UNK N   1      32.998  17.630   6.612  0.00  0.00     0.235 C 
HETATM   12  O   UNK N   1      33.587  17.092   5.459  0.00  0.00    -0.356 OA
HETATM   13  C   UNK N   1      32.662  17.469   4.485  0.00  0.00     0.176 C 
HETATM   14  C   UNK N   1      31.316  17.080   5.040  0.00  0.00     0.153 C 
HETATM   15  C   UNK N   1      31.497  17.353   6.513  0.00  0.00     0.088 C 
BRANCH  13  16
HETATM   16  C   UNK N   1      32.952  16.800   3.155  0.00  0.00     0.198 C 
BRANCH  16  17
HETATM   17  O   UNK N   1      31.970  17.157   2.231  0.00  0.00    -0.398 OA
HETATM   18  H   UNK N   1      31.169  16.630   2.082  0.00  0.00     0.209 HD
ENDBRANCH  16  17
ENDBRANCH  13  16
BRANCH  14  19
HETATM   19  O   UNK N   1      30.317  17.894   4.506  0.00  0.00    -0.393 OA
HETATM   20  H   UNK N   1      29.843  17.809   3.663  0.00  0.00     0.210 HD
ENDBRANCH  14  19
ENDBRANCH   3  11
TORSDOF 4
ENDMDL
MODEL 6
REMARK VINA RESULT:      -5.8      9.900     10.917
REMARK  4 active torsions:
REMARK  status: ('A' for Active; 'I' for Inactive)
REMARK    1  A    between atoms: C_8  and  O_2 
REMARK    2  A    between atoms: O_3  and  C_12 
REMARK    3  A    between atoms: C_9  and  N_6 
REMARK    4  A    between atoms: C_11  and  C_12 
ROOT
HETATM    1  O   UNK N   1      30.826  22.900  -1.887  0.00  0.00    -0.246 OA
HETATM    2  O   UNK N   1      32.355  19.489  -4.334  0.00  0.00    -0.267 OA
HETATM    3  N   UNK N   1      29.942  22.648  -3.967  0.00  0.00    -0.282 N 
HETATM    4  N   UNK N   1      31.606  21.181  -3.074  0.00  0.00    -0.275 N 
HETATM    5  C   UNK N   1      29.956  21.930  -5.126  0.00  0.00     0.110 A 
HETATM    6  C   UNK N   1      30.784  22.269  -2.927  0.00  0.00     0.331 A 
HETATM    7  C   UNK N   1      30.776  20.818  -5.282  0.00  0.00     0.022 A 
HETATM    8  C   UNK N   1      31.614  20.451  -4.230  0.00  0.00     0.256 A 
HETATM    9  C   UNK N   1      30.740  20.051  -6.559  0.00  0.00     0.056 C 
HETATM   10  H   UNK N   1      32.202  20.920  -2.335  0.00  0.00     0.173 HD
ENDROOT
BRANCH   3  11
HETATM   11  C   UNK N   1      29.042  23.820  -3.937  0.00  0.00     0.235 C 
HETATM   12  O   UNK N   1      28.474  24.066  -5.195  0.00  0.00    -0.356 OA
HETATM   13  C   UNK N   1      27.532  25.045  -4.877  0.00  0.00     0.176 C 
HETATM   14  C   UNK N   1      26.795  24.515  -3.674  0.00  0.00     0.153 C 
HETATM   15  C   UNK N   1      27.893  23.797  -2.929  0.00  0.00     0.088 C 
BRANCH  13  16
HETATM   16  C   UNK N   1      26.606  25.325  -6.045  0.00  0.00     0.198 C 
BRANCH  16  17
HETATM   17  O   UNK N   1      25.292  25.035  -5.675  0.00  0.00    -0.398 OA
HETATM   18  H   UNK N   1      24.583  25.696  -5.685  0.00  0.00     0.209 HD
ENDBRANCH  16  17
ENDBRANCH  13  16
BRANCH  14  19
HETATM   19  O   UNK N   1      26.287  25.569  -2.913  0.00  0.00    -0.393 OA
HETATM   20  H   UNK N   1      25.364  25.829  -2.768  0.00  0.00     0.210 HD
ENDBRANCH  14  19
ENDBRANCH   3  11
TORSDOF 4
ENDMDL
MODEL 7
REMARK VINA RESULT:      -5.8      2.743      4.787
REMARK  4 active torsions:
REMARK  status: ('A' for Active; 'I' for Inactive)
REMARK    1  A    between atoms: C_8  and  O_2 
REMARK    2  A    between atoms: O_3  and  C_12 
REMARK    3  A    between atoms: C_9  and  N_6 
REMARK    4  A    between atoms: C_11  and  C_12 
ROOT
HETATM    1  O   UNK N   1      24.704  17.834   5.259  0.00  0.00    -0.246 OA
HETATM    2  O   UNK N   1      24.008  20.948   2.132  0.00  0.00    -0.267 OA
HETATM    3  N   UNK N   1      22.540  18.342   4.776  0.00  0.00    -0.282 N 
HETATM    4  N   UNK N   1      24.396  19.386   3.686  0.00  0.00    -0.275 N 
HETATM    5  C   UNK N   1      21.694  19.116   4.039  0.00  0.00     0.110 A 
HETATM    6  C   UNK N   1      23.913  18.483   4.599  0.00  0.00     0.331 A 
HETATM    7  C   UNK N   1      22.173  20.025   3.102  0.00  0.00     0.022 A 
HETATM    8  C   UNK N   1      23.551  20.155   2.936  0.00  0.00     0.256 A 
HETATM    9  C   UNK N   1      21.209  20.834   2.303  0.00  0.00     0.056 C 
HETATM   10  H   UNK N   1      25.369  19.481   3.569  0.00  0.00     0.173 HD
ENDROOT
BRANCH   3  11
HETATM   11  C   UNK N   1      21.907  17.432   5.753  0.00  0.00     0.235 C 
HETATM   12  O   UNK N   1      21.356  18.139   6.833  0.00  0.00    -0.356 OA
HETATM   13  C   UNK N   1      20.651  17.125   7.484  0.00  0.00     0.176 C 
HETATM   14  C   UNK N   1      19.865  16.427   6.404  0.00  0.00     0.153 C 
HETATM   15  C   UNK N   1      20.816  16.495   5.235  0.00  0.00     0.088 C 
BRANCH  13  16
HETATM   16  C   UNK N   1      19.761  17.683   8.577  0.00  0.00     0.198 C 
BRANCH  16  17
HETATM   17  O   UNK N   1      20.009  19.048   8.727  0.00  0.00    -0.398 OA
HETATM   18  H   UNK N   1      20.787  19.396   9.190  0.00  0.00     0.209 HD
ENDBRANCH  16  17
ENDBRANCH  13  16
BRANCH  14  19
HETATM   19  O   UNK N   1      19.617  15.102   6.764  0.00  0.00    -0.393 OA
HETATM   20  H   UNK N   1      19.078  14.757   7.494  0.00  0.00     0.210 HD
ENDBRANCH  14  19
ENDBRANCH   3  11
TORSDOF 4
ENDMDL
MODEL 8
REMARK VINA RESULT:      -5.7      8.075     12.019
REMARK  4 active torsions:
REMARK  status: ('A' for Active; 'I' for Inactive)
REMARK    1  A    between atoms: C_8  and  O_2 
REMARK    2  A    between atoms: O_3  and  C_12 
REMARK    3  A    between atoms: C_9  and  N_6 
REMARK    4  A    between atoms: C_11  and  C_12 
ROOT
HETATM    1  O   UNK N   1      29.817  17.166   8.307  0.00  0.00    -0.246 OA
HETATM    2  O   UNK N   1      29.771  17.275   3.841  0.00  0.00    -0.267 OA
HETATM    3  N   UNK N   1      31.835  17.183   7.258  0.00  0.00    -0.282 N 
HETATM    4  N   UNK N   1      29.754  17.230   6.079  0.00  0.00    -0.275 N 
HETATM    5  C   UNK N   1      32.492  17.187   6.063  0.00  0.00     0.110 A 
HETATM    6  C   UNK N   1      30.444  17.200   7.265  0.00  0.00     0.331 A 
HETATM    7  C   UNK N   1      31.803  17.230   4.856  0.00  0.00     0.022 A 
HETATM    8  C   UNK N   1      30.409  17.247   4.880  0.00  0.00     0.256 A 
HETATM    9  C   UNK N   1      32.565  17.256   3.576  0.00  0.00     0.056 C 
HETATM   10  H   UNK N   1      28.770  17.240   6.092  0.00  0.00     0.173 HD
ENDROOT
BRANCH   3  11
HETATM   11  C   UNK N   1      32.681  17.112   8.467  0.00  0.00     0.235 C 
HETATM   12  O   UNK N   1      32.878  15.787   8.881  0.00  0.00    -0.356 OA
HETATM   13  C   UNK N   1      33.849  15.957   9.870  0.00  0.00     0.176 C 
HETATM   14  C   UNK N   1      34.898  16.845   9.251  0.00  0.00     0.153 C 
HETATM   15  C   UNK N   1      34.062  17.764   8.396  0.00  0.00     0.088 C 
BRANCH  13  16
HETATM   16  C   UNK N   1      34.414  14.627  10.327  0.00  0.00     0.198 C 
BRANCH  16  17
HETATM   17  O   UNK N   1      34.035  14.390  11.649  0.00  0.00    -0.398 OA
HETATM   18  H   UNK N   1      33.313  13.790  11.892  0.00  0.00     0.209 HD
ENDBRANCH  16  17
ENDBRANCH  13  16
BRANCH  14  19
HETATM   19  O   UNK N   1      35.570  17.563  10.241  0.00  0.00    -0.393 OA
HETATM   20  H   UNK N   1      35.362  18.435  10.612  0.00  0.00     0.210 HD
ENDBRANCH  14  19
ENDBRANCH   3  11
TORSDOF 4
ENDMDL
MODEL 9
REMARK VINA RESULT:      -5.7     16.151     18.170
REMARK  4 active torsions:
REMARK  status: ('A' for Active; 'I' for Inactive)
REMARK    1  A    between atoms: C_8  and  O_2 
REMARK    2  A    between atoms: O_3  and  C_12 
REMARK    3  A    between atoms: C_9  and  N_6 
REMARK    4  A    between atoms: C_11  and  C_12 
ROOT
HETATM    1  O   UNK N   1      35.400  10.044  14.438  0.00  0.00    -0.246 OA
HETATM    2  O   UNK N   1      35.187  11.424  18.682  0.00  0.00    -0.267 OA
HETATM    3  N   UNK N   1      35.445  12.291  14.794  0.00  0.00    -0.282 N 
HETATM    4  N   UNK N   1      35.302  10.695  16.569  0.00  0.00    -0.275 N 
HETATM    5  C   UNK N   1      35.398  13.294  15.715  0.00  0.00     0.110 A 
HETATM    6  C   UNK N   1      35.392  10.970  15.228  0.00  0.00     0.331 A 
HETATM    7  C   UNK N   1      35.319  13.026  17.077  0.00  0.00     0.022 A 
HETATM    8  C   UNK N   1      35.267  11.697  17.497  0.00  0.00     0.256 A 
HETATM    9  C   UNK N   1      35.293  14.156  18.049  0.00  0.00     0.056 C 
HETATM   10  H   UNK N   1      35.262   9.758  16.869  0.00  0.00     0.173 HD
ENDROOT
BRANCH   3  11
HETATM   11  C   UNK N   1      35.505  12.708  13.377  0.00  0.00     0.235 C 
HETATM   12  O   UNK N   1      35.256  14.081  13.234  0.00  0.00    -0.356 OA
HETATM   13  C   UNK N   1      35.572  14.271  11.889  0.00  0.00     0.176 C 
HETATM   14  C   UNK N   1      36.907  13.601  11.692  0.00  0.00     0.153 C 
HETATM   15  C   UNK N   1      36.794  12.411  12.612  0.00  0.00     0.088 C 
BRANCH  13  16
HETATM   16  C   UNK N   1      35.607  15.745  11.530  0.00  0.00     0.198 C 
BRANCH  16  17
HETATM   17  O   UNK N   1      36.845  16.055  10.965  0.00  0.00    -0.398 OA
HETATM   18  H   UNK N   1      37.232  15.551  10.232  0.00  0.00     0.209 HD
ENDBRANCH  16  17
ENDBRANCH  13  16
BRANCH  14  19
HETATM   19  O   UNK N   1      37.054  13.191  10.367  0.00  0.00    -0.393 OA
HETATM   20  H   UNK N   1      36.710  13.601   9.557  0.00  0.00     0.210 HD
ENDBRANCH  14  19
ENDBRANCH   3  11
TORSDOF 4
ENDMDL
