REMARK  5 active torsions:
REMARK  status: ('A' for Active; 'I' for Inactive)
REMARK    1  A    between atoms: O_3  and  C_21 
REMARK    2  A    between atoms: N_5  and  C_16 
REMARK    3  A    between atoms: C_11  and  C_17 
REMARK    4  A    between atoms: C_16  and  C_18 
REMARK    5  A    between atoms: C_18  and  C_19 
ROOT
HETATM    1  N   UNK N   1       7.206  -1.249   0.189  0.00  0.00     0.088 N 
HETATM    2  C   UNK N   1       4.517  -2.032  -0.478  0.00  0.00     0.042 C 
HETATM    3  C   UNK N   1       5.627  -3.074  -0.350  0.00  0.00     0.041 C 
HETATM    4  C   UNK N   1       4.820  -0.857   0.438  0.00  0.00     0.041 C 
HETATM    5  C   UNK N   1       6.967  -2.404  -0.685  0.00  0.00     0.273 C 
HETATM    6  C   UNK N   1       6.141  -0.264   0.003  0.00  0.00     0.273 C 
ENDROOT
BRANCH   1   7
HETATM    7  C   UNK N   1       8.446  -0.625  -0.242  0.00  0.00     0.277 C 
BRANCH   7   8
HETATM    8  C   UNK N   1       8.857   0.461   0.746  0.00  0.00     0.076 C 
BRANCH   8   9
HETATM    9  C   UNK N   1      10.208   1.012   0.407  0.00  0.00     0.034 A 
HETATM   10  C   UNK N   1      11.345   0.194   0.460  0.00  0.00     0.257 A 
HETATM   11  O   UNK N   1      11.232  -0.982   0.772  0.00  0.00    -0.267 OA
HETATM   12  N   UNK N   1      12.586   0.714   0.162  0.00  0.00    -0.301 N 
HETATM   13  C   UNK N   1      13.751  -0.183   0.213  0.00  0.00     0.134 C 
HETATM   14  C   UNK N   1      12.707   2.044  -0.176  0.00  0.00     0.116 A 
HETATM   15  C   UNK N   1      14.935   0.344  -0.581  0.00  0.00     0.023 C 
HETATM   16  C   UNK N   1      15.216   1.756  -0.126  0.00  0.00     0.041 C 
HETATM   17  C   UNK N   1      14.048   2.665  -0.482  0.00  0.00     0.186 C 
HETATM   18  N   UNK N   1      11.600   2.831  -0.242  0.00  0.00    -0.347 N 
HETATM   19  C   UNK N   1      10.365   2.354   0.042  0.00  0.00     0.018 A 
ATOM     20  HN  UNK N   1      11.704   3.809  -0.514  1.00  0.00     0.167 HD
HETATM   21  C   UNK N   1       9.196   3.278  -0.032  0.00  0.00     0.069 C 
BRANCH  17  22
HETATM   22  O   UNK N   1      14.191   3.857   0.228  0.00  0.00    -0.388 OA
HETATM   23  H   UNK N   1      14.959   4.185   0.722  0.00  0.00     0.210 HD
ENDBRANCH  17  22
ENDBRANCH   8   9
ENDBRANCH   7   8
ENDBRANCH   1   7
BRANCH   2  24
HETATM   24  C   UNK N   1       3.145  -2.547  -0.186  0.00  0.00     0.050 A 
HETATM   25  N   UNK N   1       2.813  -3.817   0.148  0.00  0.00    -0.264 N 
HETATM   26  O   UNK N   1       1.515  -3.842   0.334  0.00  0.00    -0.237 OA
ATOM     27  HN  UNK N   1       3.452  -4.606   0.239  1.00  0.00     0.194 HD
HETATM   28  C   UNK N   1       1.003  -2.649   0.137  0.00  0.00     0.114 A 
HETATM   29  C   UNK N   1       2.002  -1.792  -0.201  0.00  0.00     0.025 A 
HETATM   30  C   UNK N   1      -0.320  -2.229   0.245  0.00  0.00     0.082 A 
HETATM   31  C   UNK N   1       1.774  -0.445  -0.463  0.00  0.00     0.019 A 
HETATM   32  C   UNK N   1       0.452   0.020  -0.362  0.00  0.00     0.043 A 
HETATM   33  C   UNK N   1      -0.592  -0.867  -0.008  0.00  0.00     0.119 A 
HETATM   34  F   UNK N   1      -1.859  -0.400   0.091  0.00  0.00    -0.206 F 
ENDBRANCH   2  24
TORSDOF 5
