MODEL 1
REMARK VINA RESULT:      -8.7      0.000      0.000
REMARK  5 active torsions:
REMARK  status: ('A' for Active; 'I' for Inactive)
REMARK    1  A    between atoms: O_3  and  C_21 
REMARK    2  A    between atoms: N_5  and  C_16 
REMARK    3  A    between atoms: C_11  and  C_17 
REMARK    4  A    between atoms: C_16  and  C_18 
REMARK    5  A    between atoms: C_18  and  C_19 
ROOT
HETATM    1  N   UNK N   1      28.328  18.777   4.510  0.00  0.00     0.088 N 
HETATM    2  C   UNK N   1      25.491  19.260   4.423  0.00  0.00     0.042 C 
HETATM    3  C   UNK N   1      26.467  20.385   4.763  0.00  0.00     0.041 C 
HETATM    4  C   UNK N   1      26.176  18.258   3.506  0.00  0.00     0.041 C 
HETATM    5  C   UNK N   1      27.719  19.769   5.404  0.00  0.00     0.273 C 
HETATM    6  C   UNK N   1      27.372  17.702   4.245  0.00  0.00     0.273 C 
ENDROOT
BRANCH   1   7
HETATM    7  C   UNK N   1      29.452  18.185   5.216  0.00  0.00     0.277 C 
BRANCH   7   8
HETATM    8  C   UNK N   1      28.950  17.297   6.349  0.00  0.00     0.076 C 
BRANCH   8   9
HETATM    9  C   UNK N   1      30.091  16.761   7.158  0.00  0.00     0.034 A 
HETATM   10  C   UNK N   1      30.819  15.649   6.714  0.00  0.00     0.257 A 
HETATM   11  O   UNK N   1      30.530  15.120   5.651  0.00  0.00    -0.267 OA
HETATM   12  N   UNK N   1      31.858  15.154   7.473  0.00  0.00    -0.301 N 
HETATM   13  C   UNK N   1      32.607  13.996   6.963  0.00  0.00     0.134 C 
HETATM   14  C   UNK N   1      32.169  15.748   8.677  0.00  0.00     0.116 A 
HETATM   15  C   UNK N   1      33.978  13.853   7.603  0.00  0.00     0.023 C 
HETATM   16  C   UNK N   1      33.802  13.869   9.102  0.00  0.00     0.041 C 
HETATM   17  C   UNK N   1      33.278  15.224   9.556  0.00  0.00     0.186 C 
HETATM   18  N   UNK N   1      31.470  16.837   9.097  0.00  0.00    -0.347 N 
HETATM   19  C   UNK N   1      30.446  17.352   8.376  0.00  0.00     0.018 A 
ATOM     20  HN  UNK N   1      31.727  17.278   9.981  1.00  0.00     0.167 HD
HETATM   21  C   UNK N   1      29.710  18.536   8.906  0.00  0.00     0.069 C 
BRANCH  17  22
HETATM   22  O   UNK N   1      32.822  15.098  10.868  0.00  0.00    -0.388 OA
HETATM   23  H   UNK N   1      33.210  14.598  11.604  0.00  0.00     0.210 HD
ENDBRANCH  17  22
ENDBRANCH   8   9
ENDBRANCH   7   8
ENDBRANCH   1   7
BRANCH   2  24
HETATM   24  C   UNK N   1      24.214  19.714   3.795  0.00  0.00     0.050 A 
HETATM   25  N   UNK N   1      24.026  20.844   3.073  0.00  0.00    -0.264 N 
HETATM   26  O   UNK N   1      22.770  20.857   2.693  0.00  0.00    -0.237 OA
ATOM     27  HN  UNK N   1      24.728  21.552   2.863  1.00  0.00     0.194 HD
HETATM   28  C   UNK N   1      22.149  19.789   3.136  0.00  0.00     0.114 A 
HETATM   29  C   UNK N   1      23.026  19.033   3.847  0.00  0.00     0.025 A 
HETATM   30  C   UNK N   1      20.825  19.399   2.951  0.00  0.00     0.082 A 
HETATM   31  C   UNK N   1      22.665  17.826   4.437  0.00  0.00     0.019 A 
HETATM   32  C   UNK N   1      21.338  17.395   4.271  0.00  0.00     0.043 A 
HETATM   33  C   UNK N   1      20.420  18.177   3.530  0.00  0.00     0.119 A 
HETATM   34  F   UNK N   1      19.147  17.743   3.375  0.00  0.00    -0.206 F 
ENDBRANCH   2  24
TORSDOF 5
ENDMDL
MODEL 2
REMARK VINA RESULT:      -8.3      2.817      4.977
REMARK  5 active torsions:
REMARK  status: ('A' for Active; 'I' for Inactive)
REMARK    1  A    between atoms: O_3  and  C_21 
REMARK    2  A    between atoms: N_5  and  C_16 
REMARK    3  A    between atoms: C_11  and  C_17 
REMARK    4  A    between atoms: C_16  and  C_18 
REMARK    5  A    between atoms: C_18  and  C_19 
ROOT
HETATM    1  N   UNK N   1      31.013  17.269   8.164  0.00  0.00     0.088 N 
HETATM    2  C   UNK N   1      28.821  18.017   6.455  0.00  0.00     0.042 C 
HETATM    3  C   UNK N   1      29.847  16.980   6.003  0.00  0.00     0.041 C 
HETATM    4  C   UNK N   1      28.696  17.977   7.970  0.00  0.00     0.041 C 
HETATM    5  C   UNK N   1      31.180  17.273   6.706  0.00  0.00     0.273 C 
HETATM    6  C   UNK N   1      30.053  18.302   8.551  0.00  0.00     0.273 C 
ENDROOT
BRANCH   1   7
HETATM    7  C   UNK N   1      32.293  17.632   8.751  0.00  0.00     0.277 C 
BRANCH   7   8
HETATM    8  C   UNK N   1      33.407  16.788   8.142  0.00  0.00     0.076 C 
BRANCH   8   9
HETATM    9  C   UNK N   1      33.855  15.722   9.094  0.00  0.00     0.034 A 
HETATM   10  C   UNK N   1      34.710  16.032  10.160  0.00  0.00     0.257 A 
HETATM   11  O   UNK N   1      35.082  17.184  10.323  0.00  0.00    -0.267 OA
HETATM   12  N   UNK N   1      35.129  15.041  11.021  0.00  0.00    -0.301 N 
HETATM   13  C   UNK N   1      36.012  15.413  12.138  0.00  0.00     0.134 C 
HETATM   14  C   UNK N   1      34.715  13.743  10.823  0.00  0.00     0.116 A 
HETATM   15  C   UNK N   1      36.007  14.387  13.259  0.00  0.00     0.023 C 
HETATM   16  C   UNK N   1      36.298  13.032  12.659  0.00  0.00     0.041 C 
HETATM   17  C   UNK N   1      35.171  12.619  11.722  0.00  0.00     0.186 C 
HETATM   18  N   UNK N   1      33.873  13.448   9.797  0.00  0.00    -0.347 N 
HETATM   19  C   UNK N   1      33.439  14.395   8.932  0.00  0.00     0.018 A 
ATOM     20  HN  UNK N   1      33.559  12.484   9.676  1.00  0.00     0.167 HD
HETATM   21  C   UNK N   1      32.531  13.999   7.817  0.00  0.00     0.069 C 
BRANCH  17  22
HETATM   22  O   UNK N   1      35.617  11.546  10.950  0.00  0.00    -0.388 OA
HETATM   23  H   UNK N   1      36.177  10.798  11.211  0.00  0.00     0.210 HD
ENDBRANCH  17  22
ENDBRANCH   8   9
ENDBRANCH   7   8
ENDBRANCH   1   7
BRANCH   2  24
HETATM   24  C   UNK N   1      27.467  17.860   5.842  0.00  0.00     0.050 A 
HETATM   25  N   UNK N   1      26.561  16.893   6.123  0.00  0.00    -0.264 N 
HETATM   26  O   UNK N   1      25.504  17.125   5.381  0.00  0.00    -0.237 OA
ATOM     27  HN  UNK N   1      26.677  16.129   6.788  1.00  0.00     0.194 HD
HETATM   28  C   UNK N   1      25.692  18.194   4.642  0.00  0.00     0.114 A 
HETATM   29  C   UNK N   1      26.930  18.694   4.898  0.00  0.00     0.025 A 
HETATM   30  C   UNK N   1      24.828  18.800   3.734  0.00  0.00     0.082 A 
HETATM   31  C   UNK N   1      27.418  19.836   4.272  0.00  0.00     0.019 A 
HETATM   32  C   UNK N   1      26.576  20.480   3.350  0.00  0.00     0.043 A 
HETATM   33  C   UNK N   1      25.285  19.966   3.082  0.00  0.00     0.119 A 
HETATM   34  F   UNK N   1      24.485  20.603   2.195  0.00  0.00    -0.206 F 
ENDBRANCH   2  24
TORSDOF 5
ENDMDL
MODEL 3
REMARK VINA RESULT:      -8.3      8.908     14.490
REMARK  5 active torsions:
REMARK  status: ('A' for Active; 'I' for Inactive)
REMARK    1  A    between atoms: O_3  and  C_21 
REMARK    2  A    between atoms: N_5  and  C_16 
REMARK    3  A    between atoms: C_11  and  C_17 
REMARK    4  A    between atoms: C_16  and  C_18 
REMARK    5  A    between atoms: C_18  and  C_19 
ROOT
HETATM    1  N   UNK N   1      35.158  12.906  12.696  0.00  0.00     0.088 N 
HETATM    2  C   UNK N   1      35.720  12.619  15.505  0.00  0.00     0.042 C 
HETATM    3  C   UNK N   1      36.294  13.788  14.707  0.00  0.00     0.041 C 
HETATM    4  C   UNK N   1      34.396  12.191  14.890  0.00  0.00     0.041 C 
HETATM    5  C   UNK N   1      36.445  13.353  13.242  0.00  0.00     0.273 C 
HETATM    6  C   UNK N   1      34.668  11.764  13.466  0.00  0.00     0.273 C 
ENDROOT
BRANCH   1   7
HETATM    7  C   UNK N   1      35.399  12.437  11.341  0.00  0.00     0.277 C 
BRANCH   7   8
HETATM    8  C   UNK N   1      36.489  13.275  10.683  0.00  0.00     0.076 C 
BRANCH   8   9
HETATM    9  C   UNK N   1      35.936  14.078   9.545  0.00  0.00     0.034 A 
HETATM   10  C   UNK N   1      35.375  15.342   9.771  0.00  0.00     0.257 A 
HETATM   11  O   UNK N   1      35.348  15.800  10.904  0.00  0.00    -0.267 OA
HETATM   12  N   UNK N   1      34.854  16.066   8.720  0.00  0.00    -0.301 N 
HETATM   13  C   UNK N   1      34.290  17.396   8.999  0.00  0.00     0.134 C 
HETATM   14  C   UNK N   1      34.876  15.537   7.448  0.00  0.00     0.116 A 
HETATM   15  C   UNK N   1      34.206  18.271   7.759  0.00  0.00     0.023 C 
HETATM   16  C   UNK N   1      33.478  17.498   6.685  0.00  0.00     0.041 C 
HETATM   17  C   UNK N   1      34.292  16.280   6.272  0.00  0.00     0.186 C 
HETATM   18  N   UNK N   1      35.436  14.317   7.230  0.00  0.00    -0.347 N 
HETATM   19  C   UNK N   1      35.958  13.579   8.237  0.00  0.00     0.018 A 
ATOM     20  HN  UNK N   1      35.462  13.949   6.279  1.00  0.00     0.167 HD
HETATM   21  C   UNK N   1      36.540  12.240   7.929  0.00  0.00     0.069 C 
BRANCH  17  22
HETATM   22  O   UNK N   1      33.463  15.430   5.539  0.00  0.00    -0.388 OA
HETATM   23  H   UNK N   1      33.661  14.932   4.731  0.00  0.00     0.210 HD
ENDBRANCH  17  22
ENDBRANCH   8   9
ENDBRANCH   7   8
ENDBRANCH   1   7
BRANCH   2  24
HETATM   24  C   UNK N   1      35.524  12.897  16.960  0.00  0.00     0.050 A 
HETATM   25  N   UNK N   1      35.485  14.115  17.552  0.00  0.00    -0.264 N 
HETATM   26  O   UNK N   1      35.281  13.917  18.832  0.00  0.00    -0.237 OA
ATOM     27  HN  UNK N   1      35.594  15.016  17.089  1.00  0.00     0.194 HD
HETATM   28  C   UNK N   1      35.185  12.632  19.085  0.00  0.00     0.114 A 
HETATM   29  C   UNK N   1      35.338  11.942  17.924  0.00  0.00     0.025 A 
HETATM   30  C   UNK N   1      34.952  11.988  20.297  0.00  0.00     0.082 A 
HETATM   31  C   UNK N   1      35.276  10.554  17.867  0.00  0.00     0.019 A 
HETATM   32  C   UNK N   1      35.040   9.865  19.069  0.00  0.00     0.043 A 
HETATM   33  C   UNK N   1      34.877  10.578  20.280  0.00  0.00     0.119 A 
HETATM   34  F   UNK N   1      34.644   9.898  21.428  0.00  0.00    -0.206 F 
ENDBRANCH   2  24
TORSDOF 5
ENDMDL
MODEL 4
REMARK VINA RESULT:      -8.1      4.466      8.028
REMARK  5 active torsions:
REMARK  status: ('A' for Active; 'I' for Inactive)
REMARK    1  A    between atoms: O_3  and  C_21 
REMARK    2  A    between atoms: N_5  and  C_16 
REMARK    3  A    between atoms: C_11  and  C_17 
REMARK    4  A    between atoms: C_16  and  C_18 
REMARK    5  A    between atoms: C_18  and  C_19 
ROOT
HETATM    1  N   UNK N   1      34.518  16.091   9.334  0.00  0.00     0.088 N 
HETATM    2  C   UNK N   1      32.454  17.086   7.590  0.00  0.00     0.042 C 
HETATM    3  C   UNK N   1      33.883  17.620   7.496  0.00  0.00     0.041 C 
HETATM    4  C   UNK N   1      32.485  15.646   8.078  0.00  0.00     0.041 C 
HETATM    5  C   UNK N   1      34.546  17.485   8.875  0.00  0.00     0.273 C 
HETATM    6  C   UNK N   1      33.132  15.638   9.445  0.00  0.00     0.273 C 
ENDROOT
BRANCH   1   7
HETATM    7  C   UNK N   1      35.086  16.061  10.671  0.00  0.00     0.277 C 
BRANCH   7   8
HETATM    8  C   UNK N   1      36.067  14.900  10.798  0.00  0.00     0.076 C 
BRANCH   8   9
HETATM    9  C   UNK N   1      35.600  13.913  11.822  0.00  0.00     0.034 A 
HETATM   10  C   UNK N   1      35.870  14.116  13.183  0.00  0.00     0.257 A 
HETATM   11  O   UNK N   1      36.479  15.114  13.538  0.00  0.00    -0.267 OA
HETATM   12  N   UNK N   1      35.451  13.194  14.117  0.00  0.00    -0.301 N 
HETATM   13  C   UNK N   1      35.740  13.454  15.536  0.00  0.00     0.134 C 
HETATM   14  C   UNK N   1      34.777  12.064  13.708  0.00  0.00     0.116 A 
HETATM   15  C   UNK N   1      34.840  12.666  16.474  0.00  0.00     0.023 C 
HETATM   16  C   UNK N   1      34.910  11.210  16.081  0.00  0.00     0.041 C 
HETATM   17  C   UNK N   1      34.324  11.012  14.690  0.00  0.00     0.186 C 
HETATM   18  N   UNK N   1      34.503  11.877  12.389  0.00  0.00    -0.347 N 
HETATM   19  C   UNK N   1      34.897  12.763  11.444  0.00  0.00     0.018 A 
ATOM     20  HN  UNK N   1      33.984  11.046  12.104  1.00  0.00     0.167 HD
HETATM   21  C   UNK N   1      34.579  12.486  10.013  0.00  0.00     0.069 C 
BRANCH  17  22
HETATM   22  O   UNK N   1      34.697   9.747  14.236  0.00  0.00    -0.388 OA
HETATM   23  H   UNK N   1      35.182   9.506  13.431  0.00  0.00     0.210 HD
ENDBRANCH  17  22
ENDBRANCH   8   9
ENDBRANCH   7   8
ENDBRANCH   1   7
BRANCH   2  24
HETATM   24  C   UNK N   1      31.679  17.160   6.314  0.00  0.00     0.050 A 
HETATM   25  N   UNK N   1      32.181  17.084   5.059  0.00  0.00    -0.264 N 
HETATM   26  O   UNK N   1      31.168  17.177   4.231  0.00  0.00    -0.237 OA
ATOM     27  HN  UNK N   1      33.162  16.974   4.804  1.00  0.00     0.194 HD
HETATM   28  C   UNK N   1      30.044  17.306   4.897  0.00  0.00     0.114 A 
HETATM   29  C   UNK N   1      30.320  17.306   6.228  0.00  0.00     0.025 A 
HETATM   30  C   UNK N   1      28.742  17.417   4.417  0.00  0.00     0.082 A 
HETATM   31  C   UNK N   1      29.327  17.417   7.197  0.00  0.00     0.019 A 
HETATM   32  C   UNK N   1      27.999  17.528   6.753  0.00  0.00     0.043 A 
HETATM   33  C   UNK N   1      27.705  17.527   5.369  0.00  0.00     0.119 A 
HETATM   34  F   UNK N   1      26.419  17.628   4.960  0.00  0.00    -0.206 F 
ENDBRANCH   2  24
TORSDOF 5
ENDMDL
MODEL 5
REMARK VINA RESULT:      -8.0      4.736      8.161
REMARK  5 active torsions:
REMARK  status: ('A' for Active; 'I' for Inactive)
REMARK    1  A    between atoms: O_3  and  C_21 
REMARK    2  A    between atoms: N_5  and  C_16 
REMARK    3  A    between atoms: C_11  and  C_17 
REMARK    4  A    between atoms: C_16  and  C_18 
REMARK    5  A    between atoms: C_18  and  C_19 
ROOT
HETATM    1  N   UNK N   1      34.310  15.185   8.262  0.00  0.00     0.088 N 
HETATM    2  C   UNK N   1      32.001  16.750   8.973  0.00  0.00     0.042 C 
HETATM    3  C   UNK N   1      33.235  17.410   8.361  0.00  0.00     0.041 C 
HETATM    4  C   UNK N   1      31.892  15.319   8.471  0.00  0.00     0.041 C 
HETATM    5  C   UNK N   1      34.468  16.570   8.723  0.00  0.00     0.273 C 
HETATM    6  C   UNK N   1      33.141  14.584   8.903  0.00  0.00     0.273 C 
ENDROOT
BRANCH   1   7
HETATM    7  C   UNK N   1      35.475  14.440   8.711  0.00  0.00     0.277 C 
BRANCH   7   8
HETATM    8  C   UNK N   1      36.080  15.106   9.941  0.00  0.00     0.076 C 
BRANCH   8   9
HETATM    9  C   UNK N   1      36.436  14.089  10.982  0.00  0.00     0.034 A 
HETATM   10  C   UNK N   1      35.550  13.803  12.031  0.00  0.00     0.257 A 
HETATM   11  O   UNK N   1      34.473  14.377  12.089  0.00  0.00    -0.267 OA
HETATM   12  N   UNK N   1      35.893  12.877  12.992  0.00  0.00    -0.301 N 
HETATM   13  C   UNK N   1      34.928  12.594  14.066  0.00  0.00     0.134 C 
HETATM   14  C   UNK N   1      37.114  12.244  12.927  0.00  0.00     0.116 A 
HETATM   15  C   UNK N   1      35.184  11.262  14.751  0.00  0.00     0.023 C 
HETATM   16  C   UNK N   1      36.629  11.227  15.188  0.00  0.00     0.041 C 
HETATM   17  C   UNK N   1      37.546  11.245  13.973  0.00  0.00     0.186 C 
HETATM   18  N   UNK N   1      37.964  12.512  11.900  0.00  0.00    -0.347 N 
HETATM   19  C   UNK N   1      37.660  13.413  10.937  0.00  0.00     0.018 A 
ATOM     20  HN  UNK N   1      38.857  12.019  11.855  1.00  0.00     0.167 HD
HETATM   21  C   UNK N   1      38.648  13.673   9.849  0.00  0.00     0.069 C 
BRANCH  17  22
HETATM   22  O   UNK N   1      38.838  11.541  14.407  0.00  0.00    -0.388 OA
HETATM   23  H   UNK N   1      39.494  10.954  14.815  0.00  0.00     0.210 HD
ENDBRANCH  17  22
ENDBRANCH   8   9
ENDBRANCH   7   8
ENDBRANCH   1   7
BRANCH   2  24
HETATM   24  C   UNK N   1      30.717  17.467   8.708  0.00  0.00     0.050 A 
HETATM   25  N   UNK N   1      29.928  18.077   9.624  0.00  0.00    -0.264 N 
HETATM   26  O   UNK N   1      28.911  18.595   8.977  0.00  0.00    -0.237 OA
ATOM     27  HN  UNK N   1      30.093  18.127  10.629  1.00  0.00     0.194 HD
HETATM   28  C   UNK N   1      29.015  18.346   7.691  0.00  0.00     0.114 A 
HETATM   29  C   UNK N   1      30.146  17.626   7.472  0.00  0.00     0.025 A 
HETATM   30  C   UNK N   1      28.171  18.723   6.650  0.00  0.00     0.082 A 
HETATM   31  C   UNK N   1      30.537  17.216   6.202  0.00  0.00     0.019 A 
HETATM   32  C   UNK N   1      29.714  17.579   5.122  0.00  0.00     0.043 A 
HETATM   33  C   UNK N   1      28.536  18.331   5.344  0.00  0.00     0.119 A 
HETATM   34  F   UNK N   1      27.758  18.677   4.291  0.00  0.00    -0.206 F 
ENDBRANCH   2  24
TORSDOF 5
ENDMDL
MODEL 6
REMARK VINA RESULT:      -8.0      8.811     14.306
REMARK  5 active torsions:
REMARK  status: ('A' for Active; 'I' for Inactive)
REMARK    1  A    between atoms: O_3  and  C_21 
REMARK    2  A    between atoms: N_5  and  C_16 
REMARK    3  A    between atoms: C_11  and  C_17 
REMARK    4  A    between atoms: C_16  and  C_18 
REMARK    5  A    between atoms: C_18  and  C_19 
ROOT
HETATM    1  N   UNK N   1      35.518  12.252  12.147  0.00  0.00     0.088 N 
HETATM    2  C   UNK N   1      36.114  10.940  14.639  0.00  0.00     0.042 C 
HETATM    3  C   UNK N   1      36.780  12.265  14.273  0.00  0.00     0.041 C 
HETATM    4  C   UNK N   1      34.742  10.868  13.988  0.00  0.00     0.041 C 
HETATM    5  C   UNK N   1      36.854  12.369  12.744  0.00  0.00     0.273 C 
HETATM    6  C   UNK N   1      34.938  10.955  12.491  0.00  0.00     0.273 C 
ENDROOT
BRANCH   1   7
HETATM    7  C   UNK N   1      35.681  12.278  10.703  0.00  0.00     0.277 C 
BRANCH   7   8
HETATM    8  C   UNK N   1      36.654  13.383  10.305  0.00  0.00     0.076 C 
BRANCH   8   9
HETATM    9  C   UNK N   1      35.928  14.543   9.696  0.00  0.00     0.034 A 
HETATM   10  C   UNK N   1      35.521  14.504   8.356  0.00  0.00     0.257 A 
HETATM   11  O   UNK N   1      35.746  13.510   7.682  0.00  0.00    -0.267 OA
HETATM   12  N   UNK N   1      34.868  15.583   7.799  0.00  0.00    -0.301 N 
HETATM   13  C   UNK N   1      34.442  15.494   6.394  0.00  0.00     0.134 C 
HETATM   14  C   UNK N   1      34.629  16.705   8.562  0.00  0.00     0.116 A 
HETATM   15  C   UNK N   1      33.344  16.487   6.048  0.00  0.00     0.023 C 
HETATM   16  C   UNK N   1      33.802  17.862   6.474  0.00  0.00     0.041 C 
HETATM   17  C   UNK N   1      33.944  17.922   7.988  0.00  0.00     0.186 C 
HETATM   18  N   UNK N   1      35.012  16.734   9.866  0.00  0.00    -0.347 N 
HETATM   19  C   UNK N   1      35.653  15.692  10.447  0.00  0.00     0.018 A 
ATOM     20  HN  UNK N   1      34.809  17.565  10.423  1.00  0.00     0.167 HD
HETATM   21  C   UNK N   1      36.062  15.798  11.878  0.00  0.00     0.069 C 
BRANCH  17  22
HETATM   22  O   UNK N   1      34.667  19.070   8.313  0.00  0.00    -0.388 OA
HETATM   23  H   UNK N   1      34.616  19.955   7.920  0.00  0.00     0.210 HD
ENDBRANCH  17  22
ENDBRANCH   8   9
ENDBRANCH   7   8
ENDBRANCH   1   7
BRANCH   2  24
HETATM   24  C   UNK N   1      35.979  10.696  16.107  0.00  0.00     0.050 A 
HETATM   25  N   UNK N   1      36.219   9.533  16.759  0.00  0.00    -0.264 N 
HETATM   26  O   UNK N   1      35.997   9.750  18.033  0.00  0.00    -0.237 OA
ATOM     27  HN  UNK N   1      36.518   8.654  16.338  1.00  0.00     0.194 HD
HETATM   28  C   UNK N   1      35.629  10.996  18.226  0.00  0.00     0.114 A 
HETATM   29  C   UNK N   1      35.599  11.636  17.028  0.00  0.00     0.025 A 
HETATM   30  C   UNK N   1      35.317  11.647  19.416  0.00  0.00     0.082 A 
HETATM   31  C   UNK N   1      35.254  12.978  16.907  0.00  0.00     0.019 A 
HETATM   32  C   UNK N   1      34.934  13.674  18.086  0.00  0.00     0.043 A 
HETATM   33  C   UNK N   1      34.966  13.013  19.336  0.00  0.00     0.119 A 
HETATM   34  F   UNK N   1      34.661  13.700  20.462  0.00  0.00    -0.206 F 
ENDBRANCH   2  24
TORSDOF 5
ENDMDL
MODEL 7
REMARK VINA RESULT:      -8.0      4.947     11.846
REMARK  5 active torsions:
REMARK  status: ('A' for Active; 'I' for Inactive)
REMARK    1  A    between atoms: O_3  and  C_21 
REMARK    2  A    between atoms: N_5  and  C_16 
REMARK    3  A    between atoms: C_11  and  C_17 
REMARK    4  A    between atoms: C_16  and  C_18 
REMARK    5  A    between atoms: C_18  and  C_19 
ROOT
HETATM    1  N   UNK N   1      32.714  16.926   8.747  0.00  0.00     0.088 N 
HETATM    2  C   UNK N   1      34.870  15.338   9.805  0.00  0.00     0.042 C 
HETATM    3  C   UNK N   1      34.981  16.860   9.731  0.00  0.00     0.041 C 
HETATM    4  C   UNK N   1      33.410  14.947   9.974  0.00  0.00     0.041 C 
HETATM    5  C   UNK N   1      34.106  17.358   8.573  0.00  0.00     0.273 C 
HETATM    6  C   UNK N   1      32.653  15.465   8.772  0.00  0.00     0.273 C 
ENDROOT
BRANCH   1   7
HETATM    7  C   UNK N   1      31.971  17.365   7.577  0.00  0.00     0.277 C 
BRANCH   7   8
HETATM    8  C   UNK N   1      30.627  16.649   7.511  0.00  0.00     0.076 C 
BRANCH   8   9
HETATM    9  C   UNK N   1      29.533  17.596   7.124  0.00  0.00     0.034 A 
HETATM   10  C   UNK N   1      29.156  17.738   5.781  0.00  0.00     0.257 A 
HETATM   11  O   UNK N   1      29.714  17.075   4.921  0.00  0.00    -0.267 OA
HETATM   12  N   UNK N   1      28.159  18.624   5.433  0.00  0.00    -0.301 N 
HETATM   13  C   UNK N   1      27.782  18.730   4.015  0.00  0.00     0.134 C 
HETATM   14  C   UNK N   1      27.543  19.378   6.407  0.00  0.00     0.116 A 
HETATM   15  C   UNK N   1      26.401  19.334   3.816  0.00  0.00     0.023 C 
HETATM   16  C   UNK N   1      26.344  20.638   4.575  0.00  0.00     0.041 C 
HETATM   17  C   UNK N   1      26.467  20.382   6.071  0.00  0.00     0.186 C 
HETATM   18  N   UNK N   1      27.900  19.226   7.710  0.00  0.00    -0.347 N 
HETATM   19  C   UNK N   1      28.873  18.365   8.090  0.00  0.00     0.018 A 
ATOM     20  HN  UNK N   1      27.420  19.777   8.422  1.00  0.00     0.167 HD
HETATM   21  C   UNK N   1      29.228  18.262   9.535  0.00  0.00     0.069 C 
BRANCH  17  22
HETATM   22  O   UNK N   1      26.739  21.596   6.700  0.00  0.00    -0.388 OA
HETATM   23  H   UNK N   1      27.212  21.761   7.531  0.00  0.00     0.210 HD
ENDBRANCH  17  22
ENDBRANCH   8   9
ENDBRANCH   7   8
ENDBRANCH   1   7
BRANCH   2  24
HETATM   24  C   UNK N   1      35.681  14.707  10.890  0.00  0.00     0.050 A 
HETATM   25  N   UNK N   1      35.972  15.247  12.098  0.00  0.00    -0.264 N 
HETATM   26  O   UNK N   1      36.689  14.365  12.753  0.00  0.00    -0.237 OA
ATOM     27  HN  UNK N   1      35.686  16.165  12.436  1.00  0.00     0.194 HD
HETATM   28  C   UNK N   1      36.868  13.289  12.022  0.00  0.00     0.114 A 
HETATM   29  C   UNK N   1      36.248  13.462  10.825  0.00  0.00     0.025 A 
HETATM   30  C   UNK N   1      37.548  12.115  12.335  0.00  0.00     0.082 A 
HETATM   31  C   UNK N   1      36.251  12.486   9.835  0.00  0.00     0.019 A 
HETATM   32  C   UNK N   1      36.923  11.284  10.112  0.00  0.00     0.043 A 
HETATM   33  C   UNK N   1      37.569  11.097  11.357  0.00  0.00     0.119 A 
HETATM   34  F   UNK N   1      38.206   9.929  11.609  0.00  0.00    -0.206 F 
ENDBRANCH   2  24
TORSDOF 5
ENDMDL
MODEL 8
REMARK VINA RESULT:      -8.0      8.147     14.686
REMARK  5 active torsions:
REMARK  status: ('A' for Active; 'I' for Inactive)
REMARK    1  A    between atoms: O_3  and  C_21 
REMARK    2  A    between atoms: N_5  and  C_16 
REMARK    3  A    between atoms: C_11  and  C_17 
REMARK    4  A    between atoms: C_16  and  C_18 
REMARK    5  A    between atoms: C_18  and  C_19 
ROOT
HETATM    1  N   UNK N   1      36.247  14.085  12.830  0.00  0.00     0.088 N 
HETATM    2  C   UNK N   1      35.827  12.338  15.080  0.00  0.00     0.042 C 
HETATM    3  C   UNK N   1      35.501  11.878  13.660  0.00  0.00     0.041 C 
HETATM    4  C   UNK N   1      36.960  13.350  15.035  0.00  0.00     0.041 C 
HETATM    5  C   UNK N   1      35.149  13.111  12.816  0.00  0.00     0.273 C 
HETATM    6  C   UNK N   1      36.495  14.524  14.203  0.00  0.00     0.273 C 
ENDROOT
BRANCH   1   7
HETATM    7  C   UNK N   1      35.806  15.250  12.081  0.00  0.00     0.277 C 
BRANCH   7   8
HETATM    8  C   UNK N   1      36.516  15.306  10.733  0.00  0.00     0.076 C 
BRANCH   8   9
HETATM    9  C   UNK N   1      35.532  15.253   9.605  0.00  0.00     0.034 A 
HETATM   10  C   UNK N   1      34.888  16.418   9.166  0.00  0.00     0.257 A 
HETATM   11  O   UNK N   1      35.141  17.488   9.699  0.00  0.00    -0.267 OA
HETATM   12  N   UNK N   1      33.972  16.356   8.138  0.00  0.00    -0.301 N 
HETATM   13  C   UNK N   1      33.332  17.605   7.696  0.00  0.00     0.134 C 
HETATM   14  C   UNK N   1      33.682  15.144   7.552  0.00  0.00     0.116 A 
HETATM   15  C   UNK N   1      32.747  17.504   6.297  0.00  0.00     0.023 C 
HETATM   16  C   UNK N   1      31.848  16.292   6.249  0.00  0.00     0.041 C 
HETATM   17  C   UNK N   1      32.666  15.023   6.443  0.00  0.00     0.186 C 
HETATM   18  N   UNK N   1      34.321  14.018   7.969  0.00  0.00    -0.347 N 
HETATM   19  C   UNK N   1      35.227  14.041   8.975  0.00  0.00     0.018 A 
ATOM     20  HN  UNK N   1      34.110  13.131   7.511  1.00  0.00     0.167 HD
HETATM   21  C   UNK N   1      35.876  12.765   9.395  0.00  0.00     0.069 C 
BRANCH  17  22
HETATM   22  O   UNK N   1      31.787  13.976   6.719  0.00  0.00    -0.388 OA
HETATM   23  H   UNK N   1      30.849  14.015   6.966  0.00  0.00     0.210 HD
ENDBRANCH  17  22
ENDBRANCH   8   9
ENDBRANCH   7   8
ENDBRANCH   1   7
BRANCH   2  24
HETATM   24  C   UNK N   1      36.185  11.236  16.023  0.00  0.00     0.050 A 
HETATM   25  N   UNK N   1      36.819  10.080  15.712  0.00  0.00    -0.264 N 
HETATM   26  O   UNK N   1      36.952   9.399  16.825  0.00  0.00    -0.237 OA
ATOM     27  HN  UNK N   1      37.135   9.793  14.787  1.00  0.00     0.194 HD
HETATM   28  C   UNK N   1      36.435  10.065  17.832  0.00  0.00     0.114 A 
HETATM   29  C   UNK N   1      35.930  11.239  17.369  0.00  0.00     0.025 A 
HETATM   30  C   UNK N   1      36.377   9.721  19.180  0.00  0.00     0.082 A 
HETATM   31  C   UNK N   1      35.323  12.172  18.204  0.00  0.00     0.019 A 
HETATM   32  C   UNK N   1      35.247  11.863  19.573  0.00  0.00     0.043 A 
HETATM   33  C   UNK N   1      35.773  10.644  20.061  0.00  0.00     0.119 A 
HETATM   34  F   UNK N   1      35.697  10.366  21.384  0.00  0.00    -0.206 F 
ENDBRANCH   2  24
TORSDOF 5
ENDMDL
MODEL 9
REMARK VINA RESULT:      -8.0      4.115     10.763
REMARK  5 active torsions:
REMARK  status: ('A' for Active; 'I' for Inactive)
REMARK    1  A    between atoms: O_3  and  C_21 
REMARK    2  A    between atoms: N_5  and  C_16 
REMARK    3  A    between atoms: C_11  and  C_17 
REMARK    4  A    between atoms: C_16  and  C_18 
REMARK    5  A    between atoms: C_18  and  C_19 
ROOT
HETATM    1  N   UNK N   1      30.036  17.530   6.239  0.00  0.00     0.088 N 
HETATM    2  C   UNK N   1      32.337  16.801   7.809  0.00  0.00     0.042 C 
HETATM    3  C   UNK N   1      32.476  17.139   6.326  0.00  0.00     0.041 C 
HETATM    4  C   UNK N   1      31.162  17.569   8.393  0.00  0.00     0.041 C 
HETATM    5  C   UNK N   1      31.153  16.804   5.622  0.00  0.00     0.273 C 
HETATM    6  C   UNK N   1      29.918  17.145   7.645  0.00  0.00     0.273 C 
ENDROOT
BRANCH   1   7
HETATM    7  C   UNK N   1      28.817  17.100   5.575  0.00  0.00     0.277 C 
BRANCH   7   8
HETATM    8  C   UNK N   1      28.440  18.092   4.479  0.00  0.00     0.076 C 
BRANCH   8   9
HETATM    9  C   UNK N   1      26.955  18.274   4.408  0.00  0.00     0.034 A 
HETATM   10  C   UNK N   1      26.126  17.221   3.997  0.00  0.00     0.257 A 
HETATM   11  O   UNK N   1      26.618  16.141   3.707  0.00  0.00    -0.267 OA
HETATM   12  N   UNK N   1      24.763  17.404   3.919  0.00  0.00    -0.301 N 
HETATM   13  C   UNK N   1      23.928  16.267   3.499  0.00  0.00     0.134 C 
HETATM   14  C   UNK N   1      24.217  18.629   4.235  0.00  0.00     0.116 A 
HETATM   15  C   UNK N   1      22.473  16.422   3.911  0.00  0.00     0.023 C 
HETATM   16  C   UNK N   1      21.986  17.766   3.425  0.00  0.00     0.041 C 
HETATM   17  C   UNK N   1      22.733  18.885   4.136  0.00  0.00     0.186 C 
HETATM   18  N   UNK N   1      25.022  19.643   4.649  0.00  0.00    -0.347 N 
HETATM   19  C   UNK N   1      26.366  19.500   4.739  0.00  0.00     0.018 A 
ATOM     20  HN  UNK N   1      24.601  20.538   4.899  1.00  0.00     0.167 HD
HETATM   21  C   UNK N   1      27.191  20.661   5.183  0.00  0.00     0.069 C 
BRANCH  17  22
HETATM   22  O   UNK N   1      22.502  20.073   3.444  0.00  0.00    -0.388 OA
HETATM   23  H   UNK N   1      22.486  20.983   3.780  0.00  0.00     0.210 HD
ENDBRANCH  17  22
ENDBRANCH   8   9
ENDBRANCH   7   8
ENDBRANCH   1   7
BRANCH   2  24
HETATM   24  C   UNK N   1      33.560  17.070   8.625  0.00  0.00     0.050 A 
HETATM   25  N   UNK N   1      34.340  18.176   8.571  0.00  0.00    -0.264 N 
HETATM   26  O   UNK N   1      35.295  18.020   9.455  0.00  0.00    -0.237 OA
ATOM     27  HN  UNK N   1      34.209  18.980   7.958  1.00  0.00     0.194 HD
HETATM   28  C   UNK N   1      35.161  16.869  10.073  0.00  0.00     0.114 A 
HETATM   29  C   UNK N   1      34.072  16.226   9.574  0.00  0.00     0.025 A 
HETATM   30  C   UNK N   1      35.939  16.317  11.087  0.00  0.00     0.082 A 
HETATM   31  C   UNK N   1      33.663  14.980  10.038  0.00  0.00     0.019 A 
HETATM   32  C   UNK N   1      34.420  14.390  11.064  0.00  0.00     0.043 A 
HETATM   33  C   UNK N   1      35.553  15.055  11.589  0.00  0.00     0.119 A 
HETATM   34  F   UNK N   1      36.267  14.474  12.582  0.00  0.00    -0.206 F 
ENDBRANCH   2  24
TORSDOF 5
ENDMDL
