MODEL 1
REMARK VINA RESULT:      -7.1      0.000      0.000
REMARK  7 active torsions:
REMARK  status: ('A' for Active; 'I' for Inactive)
REMARK    1  A    between atoms: N_4  and  C_8 
REMARK    2  A    between atoms: N_4  and  C_14 
REMARK    3  A    between atoms: N_4  and  C_15 
REMARK    4  A    between atoms: N_6  and  C_12 
REMARK       I    between atoms: N_6  and  C_16 
REMARK    5  A    between atoms: C_8  and  C_12 
REMARK    6  A    between atoms: C_9  and  C_16 
REMARK    7  A    between atoms: C_11  and  C_18 
ROOT
HETATM    1  N   UNK N   1      34.199  11.499  11.160  0.00  0.00    -0.359 N 
HETATM    2  C   UNK N   1      36.127  11.622  12.325  0.00  0.00     0.062 A 
HETATM    3  C   UNK N   1      36.303  12.246  11.101  0.00  0.00    -0.018 A 
HETATM    4  C   UNK N   1      35.110  12.170  10.436  0.00  0.00     0.040 A 
HETATM    5  C   UNK N   1      34.805  11.148  12.310  0.00  0.00     0.022 A 
HETATM    6  C   UNK N   1      37.512  12.980  10.613  0.00  0.00     0.052 C 
HETATM    7  C   UNK N   1      34.029  10.500  13.398  0.00  0.00     0.069 C 
HETATM    8  H   UNK N   1      33.270  11.302  10.900  0.00  0.00     0.166 HD
ENDROOT
BRANCH   4   9
HETATM    9  C   UNK N   1      34.823  12.939   9.228  0.00  0.00     0.048 C 
HETATM   10  C   UNK N   1      34.389  14.205   9.299  0.00  0.00     0.047 A 
HETATM   11  C   UNK N   1      34.239  15.106   8.170  0.00  0.00     0.009 A 
HETATM   12  C   UNK N   1      34.133  15.070  10.474  0.00  0.00     0.257 A 
HETATM   13  C   UNK N   1      33.924  16.347   8.677  0.00  0.00     0.046 A 
HETATM   14  C   UNK N   1      34.434  14.898   6.808  0.00  0.00     0.057 A 
HETATM   15  N   UNK N   1      33.848  16.328  10.085  0.00  0.00    -0.322 N 
HETATM   16  C   UNK N   1      33.774  17.456   7.854  0.00  0.00     0.033 A 
HETATM   17  H   UNK N   1      33.629  17.088  10.672  0.00  0.00     0.169 HD
HETATM   18  C   UNK N   1      33.955  17.274   6.471  0.00  0.00     0.044 A 
HETATM   19  C   UNK N   1      34.286  16.002   5.951  0.00  0.00     0.117 A 
HETATM   20  F   UNK N   1      34.478  15.849   4.620  0.00  0.00    -0.206 F 
HETATM   21  O   UNK N   1      34.201  14.745  11.650  0.00  0.00    -0.267 OA
ENDBRANCH   4   9
BRANCH   2  22
HETATM   22  C   UNK N   1      37.178  11.648  13.395  0.00  0.00     0.254 C 
HETATM   23  O   UNK N   1      37.965  10.716  13.442  0.00  0.00    -0.268 OA
HETATM   24  N   UNK N   1      37.345  12.637  14.299  0.00  0.00    -0.355 N 
HETATM   25  H   UNK N   1      38.169  12.599  14.838  0.00  0.00     0.162 HD
BRANCH  24  26
HETATM   26  C   UNK N   1      36.464  13.737  14.566  0.00  0.00     0.153 C 
BRANCH  26  27
HETATM   27  C   UNK N   1      35.277  13.265  15.404  0.00  0.00     0.292 C 
BRANCH  27  28
HETATM   28  N   UNK N   1      35.701  12.749  16.709  0.00  0.00     0.089 N 
BRANCH  28  29
HETATM   29  C   UNK N   1      35.235  13.630  17.780  0.00  0.00     0.268 C 
HETATM   30  C   UNK N   1      35.156  12.937  19.137  0.00  0.00     0.037 C 
ENDBRANCH  28  29
BRANCH  28  31
HETATM   31  C   UNK N   1      35.212  11.388  16.910  0.00  0.00     0.268 C 
HETATM   32  C   UNK N   1      36.368  10.401  16.868  0.00  0.00     0.037 C 
ENDBRANCH  28  31
ENDBRANCH  27  28
ENDBRANCH  26  27
ENDBRANCH  24  26
ENDBRANCH   2  22
TORSDOF 7
ENDMDL
MODEL 2
REMARK VINA RESULT:      -7.1      3.150      3.958
REMARK  7 active torsions:
REMARK  status: ('A' for Active; 'I' for Inactive)
REMARK    1  A    between atoms: N_4  and  C_8 
REMARK    2  A    between atoms: N_4  and  C_14 
REMARK    3  A    between atoms: N_4  and  C_15 
REMARK    4  A    between atoms: N_6  and  C_12 
REMARK       I    between atoms: N_6  and  C_16 
REMARK    5  A    between atoms: C_8  and  C_12 
REMARK    6  A    between atoms: C_9  and  C_16 
REMARK    7  A    between atoms: C_11  and  C_18 
ROOT
HETATM    1  N   UNK N   1      33.374  13.435   9.535  0.00  0.00    -0.359 N 
HETATM    2  C   UNK N   1      35.412  13.937  10.364  0.00  0.00     0.062 A 
HETATM    3  C   UNK N   1      34.764  15.113  10.026  0.00  0.00    -0.018 A 
HETATM    4  C   UNK N   1      33.528  14.769   9.550  0.00  0.00     0.040 A 
HETATM    5  C   UNK N   1      34.517  12.911  10.017  0.00  0.00     0.022 A 
HETATM    6  C   UNK N   1      35.242  16.514  10.238  0.00  0.00     0.052 C 
HETATM    7  C   UNK N   1      34.628  11.449  10.257  0.00  0.00     0.069 C 
HETATM    8  H   UNK N   1      32.581  12.938   9.232  0.00  0.00     0.166 HD
ENDROOT
BRANCH   4   9
HETATM    9  C   UNK N   1      32.458  15.741   9.341  0.00  0.00     0.048 C 
HETATM   10  C   UNK N   1      32.001  16.015   8.112  0.00  0.00     0.047 A 
HETATM   11  C   UNK N   1      30.837  16.830   7.810  0.00  0.00     0.009 A 
HETATM   12  C   UNK N   1      32.392  15.463   6.794  0.00  0.00     0.257 A 
HETATM   13  C   UNK N   1      30.614  16.737   6.454  0.00  0.00     0.046 A 
HETATM   14  C   UNK N   1      29.982  17.539   8.647  0.00  0.00     0.057 A 
HETATM   15  N   UNK N   1      31.569  15.910   5.827  0.00  0.00    -0.322 N 
HETATM   16  C   UNK N   1      29.528  17.356   5.849  0.00  0.00     0.033 A 
HETATM   17  H   UNK N   1      31.622  15.700   4.866  0.00  0.00     0.169 HD
HETATM   18  C   UNK N   1      28.650  18.088   6.669  0.00  0.00     0.044 A 
HETATM   19  C   UNK N   1      28.875  18.177   8.062  0.00  0.00     0.117 A 
HETATM   20  F   UNK N   1      28.009  18.868   8.840  0.00  0.00    -0.206 F 
HETATM   21  O   UNK N   1      33.299  14.674   6.572  0.00  0.00    -0.267 OA
ENDBRANCH   4   9
BRANCH   2  22
HETATM   22  C   UNK N   1      36.736  13.925  11.069  0.00  0.00     0.254 C 
HETATM   23  O   UNK N   1      37.741  13.791  10.390  0.00  0.00    -0.268 OA
HETATM   24  N   UNK N   1      36.910  14.082  12.398  0.00  0.00    -0.355 N 
HETATM   25  H   UNK N   1      37.838  14.212  12.703  0.00  0.00     0.162 HD
BRANCH  24  26
HETATM   26  C   UNK N   1      35.903  14.080  13.420  0.00  0.00     0.153 C 
BRANCH  26  27
HETATM   27  C   UNK N   1      36.408  13.332  14.652  0.00  0.00     0.292 C 
BRANCH  27  28
HETATM   28  N   UNK N   1      35.411  12.390  15.167  0.00  0.00     0.089 N 
BRANCH  28  29
HETATM   29  C   UNK N   1      34.578  13.036  16.182  0.00  0.00     0.268 C 
HETATM   30  C   UNK N   1      35.114  12.860  17.600  0.00  0.00     0.037 C 
ENDBRANCH  28  29
BRANCH  28  31
HETATM   31  C   UNK N   1      34.588  11.863  14.083  0.00  0.00     0.268 C 
HETATM   32  C   UNK N   1      33.637  10.800  14.610  0.00  0.00     0.037 C 
ENDBRANCH  28  31
ENDBRANCH  27  28
ENDBRANCH  26  27
ENDBRANCH  24  26
ENDBRANCH   2  22
TORSDOF 7
ENDMDL
MODEL 3
REMARK VINA RESULT:      -6.9      3.489      8.888
REMARK  7 active torsions:
REMARK  status: ('A' for Active; 'I' for Inactive)
REMARK    1  A    between atoms: N_4  and  C_8 
REMARK    2  A    between atoms: N_4  and  C_14 
REMARK    3  A    between atoms: N_4  and  C_15 
REMARK    4  A    between atoms: N_6  and  C_12 
REMARK       I    between atoms: N_6  and  C_16 
REMARK    5  A    between atoms: C_8  and  C_12 
REMARK    6  A    between atoms: C_9  and  C_16 
REMARK    7  A    between atoms: C_11  and  C_18 
ROOT
HETATM    1  N   UNK N   1      33.761  15.838  10.007  0.00  0.00    -0.359 N 
HETATM    2  C   UNK N   1      34.385  15.363   7.891  0.00  0.00     0.062 A 
HETATM    3  C   UNK N   1      34.832  14.353   8.727  0.00  0.00    -0.018 A 
HETATM    4  C   UNK N   1      34.417  14.666   9.993  0.00  0.00     0.040 A 
HETATM    5  C   UNK N   1      33.742  16.282   8.736  0.00  0.00     0.022 A 
HETATM    6  C   UNK N   1      35.532  13.089   8.342  0.00  0.00     0.052 C 
HETATM    7  C   UNK N   1      32.973  17.503   8.381  0.00  0.00     0.069 C 
HETATM    8  H   UNK N   1      33.371  16.284  10.792  0.00  0.00     0.166 HD
ENDROOT
BRANCH   4   9
HETATM    9  C   UNK N   1      34.468  13.718  11.103  0.00  0.00     0.048 C 
HETATM   10  C   UNK N   1      35.266  13.927  12.158  0.00  0.00     0.047 A 
HETATM   11  C   UNK N   1      35.266  13.143  13.381  0.00  0.00     0.009 A 
HETATM   12  C   UNK N   1      36.187  15.048  12.461  0.00  0.00     0.257 A 
HETATM   13  C   UNK N   1      36.111  13.772  14.268  0.00  0.00     0.046 A 
HETATM   14  C   UNK N   1      34.535  12.015  13.738  0.00  0.00     0.057 A 
HETATM   15  N   UNK N   1      36.685  14.931  13.706  0.00  0.00    -0.322 N 
HETATM   16  C   UNK N   1      36.287  13.304  15.564  0.00  0.00     0.033 A 
HETATM   17  H   UNK N   1      37.326  15.539  14.142  0.00  0.00     0.169 HD
HETATM   18  C   UNK N   1      35.568  12.159  15.951  0.00  0.00     0.044 A 
HETATM   19  C   UNK N   1      34.695  11.519  15.043  0.00  0.00     0.117 A 
HETATM   20  F   UNK N   1      33.993  10.430  15.437  0.00  0.00    -0.206 F 
HETATM   21  O   UNK N   1      36.454  15.991  11.731  0.00  0.00    -0.267 OA
ENDBRANCH   4   9
BRANCH   2  22
HETATM   22  C   UNK N   1      34.517  15.284   6.399  0.00  0.00     0.254 C 
HETATM   23  O   UNK N   1      35.533  15.731   5.894  0.00  0.00    -0.268 OA
HETATM   24  N   UNK N   1      33.611  14.729   5.566  0.00  0.00    -0.355 N 
HETATM   25  H   UNK N   1      33.898  14.604   4.632  0.00  0.00     0.162 HD
BRANCH  24  26
HETATM   26  C   UNK N   1      32.279  14.299   5.882  0.00  0.00     0.153 C 
BRANCH  26  27
HETATM   27  C   UNK N   1      31.263  15.112   5.083  0.00  0.00     0.292 C 
BRANCH  27  28
HETATM   28  N   UNK N   1      30.962  16.395   5.726  0.00  0.00     0.089 N 
BRANCH  28  29
HETATM   29  C   UNK N   1      30.964  17.472   4.737  0.00  0.00     0.268 C 
HETATM   30  C   UNK N   1      32.231  17.504   3.886  0.00  0.00     0.037 C 
ENDBRANCH  28  29
BRANCH  28  31
HETATM   31  C   UNK N   1      29.681  16.336   6.424  0.00  0.00     0.268 C 
HETATM   32  C   UNK N   1      29.353  17.687   7.039  0.00  0.00     0.037 C 
ENDBRANCH  28  31
ENDBRANCH  27  28
ENDBRANCH  26  27
ENDBRANCH  24  26
ENDBRANCH   2  22
TORSDOF 7
ENDMDL
MODEL 4
REMARK VINA RESULT:      -6.8     17.784     21.063
REMARK  7 active torsions:
REMARK  status: ('A' for Active; 'I' for Inactive)
REMARK    1  A    between atoms: N_4  and  C_8 
REMARK    2  A    between atoms: N_4  and  C_14 
REMARK    3  A    between atoms: N_4  and  C_15 
REMARK    4  A    between atoms: N_6  and  C_12 
REMARK       I    between atoms: N_6  and  C_16 
REMARK    5  A    between atoms: C_8  and  C_12 
REMARK    6  A    between atoms: C_9  and  C_16 
REMARK    7  A    between atoms: C_11  and  C_18 
ROOT
HETATM    1  N   UNK N   1      31.931  24.749  -4.809  0.00  0.00    -0.359 N 
HETATM    2  C   UNK N   1      31.976  22.832  -3.620  0.00  0.00     0.062 A 
HETATM    3  C   UNK N   1      30.861  23.564  -3.247  0.00  0.00    -0.018 A 
HETATM    4  C   UNK N   1      30.858  24.704  -4.003  0.00  0.00     0.040 A 
HETATM    5  C   UNK N   1      32.630  23.621  -4.581  0.00  0.00     0.022 A 
HETATM    6  C   UNK N   1      29.781  23.164  -2.293  0.00  0.00     0.052 C 
HETATM    7  C   UNK N   1      33.817  23.294  -5.413  0.00  0.00     0.069 C 
HETATM    8  H   UNK N   1      32.162  25.466  -5.442  0.00  0.00     0.166 HD
ENDROOT
BRANCH   4   9
HETATM    9  C   UNK N   1      29.706  25.599  -4.085  0.00  0.00     0.048 C 
HETATM   10  C   UNK N   1      28.771  25.440  -5.031  0.00  0.00     0.047 A 
HETATM   11  C   UNK N   1      27.512  26.161  -5.097  0.00  0.00     0.009 A 
HETATM   12  C   UNK N   1      28.651  24.428  -6.106  0.00  0.00     0.257 A 
HETATM   13  C   UNK N   1      26.774  25.600  -6.115  0.00  0.00     0.046 A 
HETATM   14  C   UNK N   1      27.000  27.175  -4.292  0.00  0.00     0.057 A 
HETATM   15  N   UNK N   1      27.470  24.546  -6.742  0.00  0.00    -0.322 N 
HETATM   16  C   UNK N   1      25.482  26.025  -6.400  0.00  0.00     0.033 A 
HETATM   17  H   UNK N   1      27.154  24.002  -7.499  0.00  0.00     0.169 HD
HETATM   18  C   UNK N   1      24.942  27.056  -5.609  0.00  0.00     0.044 A 
HETATM   19  C   UNK N   1      25.696  27.626  -4.559  0.00  0.00     0.117 A 
HETATM   20  F   UNK N   1      25.154  28.601  -3.793  0.00  0.00    -0.206 F 
HETATM   21  O   UNK N   1      29.464  23.559  -6.385  0.00  0.00    -0.267 OA
ENDBRANCH   4   9
BRANCH   2  22
HETATM   22  C   UNK N   1      32.227  21.442  -3.116  0.00  0.00     0.254 C 
HETATM   23  O   UNK N   1      32.941  21.314  -2.134  0.00  0.00    -0.268 OA
HETATM   24  N   UNK N   1      31.702  20.316  -3.643  0.00  0.00    -0.355 N 
HETATM   25  H   UNK N   1      31.822  19.491  -3.117  0.00  0.00     0.162 HD
BRANCH  24  26
HETATM   26  C   UNK N   1      30.988  20.179  -4.880  0.00  0.00     0.153 C 
BRANCH  26  27
HETATM   27  C   UNK N   1      31.970  20.120  -6.048  0.00  0.00     0.292 C 
BRANCH  27  28
HETATM   28  N   UNK N   1      31.291  20.248  -7.341  0.00  0.00     0.089 N 
BRANCH  28  29
HETATM   29  C   UNK N   1      31.867  19.317  -8.312  0.00  0.00     0.268 C 
HETATM   30  C   UNK N   1      33.299  18.910  -7.976  0.00  0.00     0.037 C 
ENDBRANCH  28  29
BRANCH  28  31
HETATM   31  C   UNK N   1      29.856  20.022  -7.196  0.00  0.00     0.268 C 
HETATM   32  C   UNK N   1      29.455  18.722  -7.875  0.00  0.00     0.037 C 
ENDBRANCH  28  31
ENDBRANCH  27  28
ENDBRANCH  26  27
ENDBRANCH  24  26
ENDBRANCH   2  22
TORSDOF 7
ENDMDL
MODEL 5
REMARK VINA RESULT:      -6.7      4.993      7.607
REMARK  7 active torsions:
REMARK  status: ('A' for Active; 'I' for Inactive)
REMARK    1  A    between atoms: N_4  and  C_8 
REMARK    2  A    between atoms: N_4  and  C_14 
REMARK    3  A    between atoms: N_4  and  C_15 
REMARK    4  A    between atoms: N_6  and  C_12 
REMARK       I    between atoms: N_6  and  C_16 
REMARK    5  A    between atoms: C_8  and  C_12 
REMARK    6  A    between atoms: C_9  and  C_16 
REMARK    7  A    between atoms: C_11  and  C_18 
ROOT
HETATM    1  N   UNK N   1      32.505  15.963   6.328  0.00  0.00    -0.359 N 
HETATM    2  C   UNK N   1      33.618  17.323   7.743  0.00  0.00     0.062 A 
HETATM    3  C   UNK N   1      32.266  17.618   7.808  0.00  0.00    -0.018 A 
HETATM    4  C   UNK N   1      31.626  16.761   6.956  0.00  0.00     0.040 A 
HETATM    5  C   UNK N   1      33.725  16.299   6.788  0.00  0.00     0.022 A 
HETATM    6  C   UNK N   1      31.585  18.596   8.713  0.00  0.00     0.052 C 
HETATM    7  C   UNK N   1      34.920  15.512   6.388  0.00  0.00     0.069 C 
HETATM    8  H   UNK N   1      32.298  15.268   5.663  0.00  0.00     0.166 HD
ENDROOT
BRANCH   4   9
HETATM    9  C   UNK N   1      30.176  16.586   6.945  0.00  0.00     0.048 C 
HETATM   10  C   UNK N   1      29.442  16.943   5.883  0.00  0.00     0.047 A 
HETATM   11  C   UNK N   1      28.030  16.658   5.703  0.00  0.00     0.009 A 
HETATM   12  C   UNK N   1      29.851  17.522   4.581  0.00  0.00     0.257 A 
HETATM   13  C   UNK N   1      27.694  17.048   4.425  0.00  0.00     0.046 A 
HETATM   14  C   UNK N   1      27.112  16.037   6.544  0.00  0.00     0.057 A 
HETATM   15  N   UNK N   1      28.802  17.587   3.739  0.00  0.00    -0.322 N 
HETATM   16  C   UNK N   1      26.417  16.852   3.914  0.00  0.00     0.033 A 
HETATM   17  H   UNK N   1      28.808  17.942   2.820  0.00  0.00     0.169 HD
HETATM   18  C   UNK N   1      25.466  16.235   4.745  0.00  0.00     0.044 A 
HETATM   19  C   UNK N   1      25.813  15.827   6.053  0.00  0.00     0.117 A 
HETATM   20  F   UNK N   1      24.891  15.214   6.833  0.00  0.00    -0.206 F 
HETATM   21  O   UNK N   1      30.978  17.866   4.256  0.00  0.00    -0.267 OA
ENDBRANCH   4   9
BRANCH   2  22
HETATM   22  C   UNK N   1      34.621  17.956   8.662  0.00  0.00     0.254 C 
HETATM   23  O   UNK N   1      35.048  19.059   8.363  0.00  0.00    -0.268 OA
HETATM   24  N   UNK N   1      35.070  17.415   9.814  0.00  0.00    -0.355 N 
HETATM   25  H   UNK N   1      35.603  18.007  10.394  0.00  0.00     0.162 HD
BRANCH  24  26
HETATM   26  C   UNK N   1      34.864  16.078  10.293  0.00  0.00     0.153 C 
BRANCH  26  27
HETATM   27  C   UNK N   1      36.208  15.389  10.518  0.00  0.00     0.292 C 
BRANCH  27  28
HETATM   28  N   UNK N   1      36.044  14.019  11.012  0.00  0.00     0.089 N 
BRANCH  28  29
HETATM   29  C   UNK N   1      37.350  13.389  11.207  0.00  0.00     0.268 C 
HETATM   30  C   UNK N   1      37.988  12.913   9.905  0.00  0.00     0.037 C 
ENDBRANCH  28  29
BRANCH  28  31
HETATM   31  C   UNK N   1      35.272  14.005  12.252  0.00  0.00     0.268 C 
HETATM   32  C   UNK N   1      36.161  14.367  13.431  0.00  0.00     0.037 C 
ENDBRANCH  28  31
ENDBRANCH  27  28
ENDBRANCH  26  27
ENDBRANCH  24  26
ENDBRANCH   2  22
TORSDOF 7
ENDMDL
MODEL 6
REMARK VINA RESULT:      -6.7     12.434     16.051
REMARK  7 active torsions:
REMARK  status: ('A' for Active; 'I' for Inactive)
REMARK    1  A    between atoms: N_4  and  C_8 
REMARK    2  A    between atoms: N_4  and  C_14 
REMARK    3  A    between atoms: N_4  and  C_15 
REMARK    4  A    between atoms: N_6  and  C_12 
REMARK       I    between atoms: N_6  and  C_16 
REMARK    5  A    between atoms: C_8  and  C_12 
REMARK    6  A    between atoms: C_9  and  C_16 
REMARK    7  A    between atoms: C_11  and  C_18 
ROOT
HETATM    1  N   UNK N   1      23.393  16.057   6.390  0.00  0.00    -0.359 N 
HETATM    2  C   UNK N   1      23.484  15.289   4.269  0.00  0.00     0.062 A 
HETATM    3  C   UNK N   1      23.100  14.253   5.105  0.00  0.00    -0.018 A 
HETATM    4  C   UNK N   1      23.035  14.762   6.373  0.00  0.00     0.040 A 
HETATM    5  C   UNK N   1      23.681  16.392   5.118  0.00  0.00     0.022 A 
HETATM    6  C   UNK N   1      22.706  12.864   4.717  0.00  0.00     0.052 C 
HETATM    7  C   UNK N   1      23.989  17.802   4.766  0.00  0.00     0.069 C 
HETATM    8  H   UNK N   1      23.436  16.645   7.177  0.00  0.00     0.166 HD
ENDROOT
BRANCH   4   9
HETATM    9  C   UNK N   1      22.414  14.047   7.485  0.00  0.00     0.048 C 
HETATM   10  C   UNK N   1      23.157  13.464   8.435  0.00  0.00     0.047 A 
HETATM   11  C   UNK N   1      22.644  12.881   9.663  0.00  0.00     0.009 A 
HETATM   12  C   UNK N   1      24.627  13.406   8.608  0.00  0.00     0.257 A 
HETATM   13  C   UNK N   1      23.731  12.532  10.433  0.00  0.00     0.046 A 
HETATM   14  C   UNK N   1      21.340  12.729  10.123  0.00  0.00     0.057 A 
HETATM   15  N   UNK N   1      24.946  12.842   9.788  0.00  0.00    -0.322 N 
HETATM   16  C   UNK N   1      23.581  11.999  11.708  0.00  0.00     0.033 A 
HETATM   17  H   UNK N   1      25.853  12.678  10.135  0.00  0.00     0.169 HD
HETATM   18  C   UNK N   1      22.274  11.826  12.196  0.00  0.00     0.044 A 
HETATM   19  C   UNK N   1      21.159  12.192  11.408  0.00  0.00     0.117 A 
HETATM   20  F   UNK N   1      19.907  12.039  11.901  0.00  0.00    -0.206 F 
HETATM   21  O   UNK N   1      25.471  13.837   7.836  0.00  0.00    -0.267 OA
ENDBRANCH   4   9
BRANCH   2  22
HETATM   22  C   UNK N   1      23.509  15.147   2.776  0.00  0.00     0.254 C 
HETATM   23  O   UNK N   1      24.599  15.089   2.229  0.00  0.00    -0.268 OA
HETATM   24  N   UNK N   1      22.420  15.048   1.986  0.00  0.00    -0.355 N 
HETATM   25  H   UNK N   1      22.584  14.800   1.047  0.00  0.00     0.162 HD
BRANCH  24  26
HETATM   26  C   UNK N   1      21.049  15.261   2.353  0.00  0.00     0.153 C 
BRANCH  26  27
HETATM   27  C   UNK N   1      20.616  16.673   1.963  0.00  0.00     0.292 C 
BRANCH  27  28
HETATM   28  N   UNK N   1      19.747  17.278   2.976  0.00  0.00     0.089 N 
BRANCH  28  29
HETATM   29  C   UNK N   1      20.168  16.869   4.316  0.00  0.00     0.268 C 
HETATM   30  C   UNK N   1      19.095  16.093   5.073  0.00  0.00     0.037 C 
ENDBRANCH  28  29
BRANCH  28  31
HETATM   31  C   UNK N   1      19.746  18.733   2.855  0.00  0.00     0.268 C 
HETATM   32  C   UNK N   1      20.780  19.341   3.790  0.00  0.00     0.037 C 
ENDBRANCH  28  31
ENDBRANCH  27  28
ENDBRANCH  26  27
ENDBRANCH  24  26
ENDBRANCH   2  22
TORSDOF 7
ENDMDL
MODEL 7
REMARK VINA RESULT:      -6.6     18.683     22.025
REMARK  7 active torsions:
REMARK  status: ('A' for Active; 'I' for Inactive)
REMARK    1  A    between atoms: N_4  and  C_8 
REMARK    2  A    between atoms: N_4  and  C_14 
REMARK    3  A    between atoms: N_4  and  C_15 
REMARK    4  A    between atoms: N_6  and  C_12 
REMARK       I    between atoms: N_6  and  C_16 
REMARK    5  A    between atoms: C_8  and  C_12 
REMARK    6  A    between atoms: C_9  and  C_16 
REMARK    7  A    between atoms: C_11  and  C_18 
ROOT
HETATM    1  N   UNK N   1      28.940  26.509  -5.987  0.00  0.00    -0.359 N 
HETATM    2  C   UNK N   1      26.977  27.213  -5.124  0.00  0.00     0.062 A 
HETATM    3  C   UNK N   1      27.366  26.057  -4.468  0.00  0.00    -0.018 A 
HETATM    4  C   UNK N   1      28.566  25.675  -5.002  0.00  0.00     0.040 A 
HETATM    5  C   UNK N   1      27.978  27.446  -6.082  0.00  0.00     0.022 A 
HETATM    6  C   UNK N   1      26.691  25.391  -3.311  0.00  0.00     0.052 C 
HETATM    7  C   UNK N   1      28.149  28.604  -6.997  0.00  0.00     0.069 C 
HETATM    8  H   UNK N   1      29.757  26.447  -6.531  0.00  0.00     0.166 HD
ENDROOT
BRANCH   4   9
HETATM    9  C   UNK N   1      29.418  24.656  -4.395  0.00  0.00     0.048 C 
HETATM   10  C   UNK N   1      29.543  23.440  -4.943  0.00  0.00     0.047 A 
HETATM   11  C   UNK N   1      30.486  22.420  -4.520  0.00  0.00     0.009 A 
HETATM   12  C   UNK N   1      28.942  22.872  -6.173  0.00  0.00     0.257 A 
HETATM   13  C   UNK N   1      30.406  21.388  -5.429  0.00  0.00     0.046 A 
HETATM   14  C   UNK N   1      31.405  22.407  -3.475  0.00  0.00     0.057 A 
HETATM   15  N   UNK N   1      29.456  21.656  -6.436  0.00  0.00    -0.322 N 
HETATM   16  C   UNK N   1      31.233  20.275  -5.344  0.00  0.00     0.033 A 
HETATM   17  H   UNK N   1      29.215  21.066  -7.188  0.00  0.00     0.169 HD
HETATM   18  C   UNK N   1      32.165  20.230  -4.291  0.00  0.00     0.044 A 
HETATM   19  C   UNK N   1      32.252  21.292  -3.364  0.00  0.00     0.117 A 
HETATM   20  F   UNK N   1      33.170  21.244  -2.369  0.00  0.00    -0.206 F 
HETATM   21  O   UNK N   1      28.124  23.412  -6.903  0.00  0.00    -0.267 OA
ENDBRANCH   4   9
BRANCH   2  22
HETATM   22  C   UNK N   1      25.782  28.013  -4.698  0.00  0.00     0.254 C 
HETATM   23  O   UNK N   1      24.679  27.604  -5.023  0.00  0.00    -0.268 OA
HETATM   24  N   UNK N   1      25.825  29.139  -3.954  0.00  0.00    -0.355 N 
HETATM   25  H   UNK N   1      24.960  29.470  -3.616  0.00  0.00     0.162 HD
BRANCH  24  26
HETATM   26  C   UNK N   1      26.981  29.911  -3.599  0.00  0.00     0.153 C 
BRANCH  26  27
HETATM   27  C   UNK N   1      27.700  29.264  -2.417  0.00  0.00     0.292 C 
BRANCH  27  28
HETATM   28  N   UNK N   1      29.123  29.611  -2.387  0.00  0.00     0.089 N 
BRANCH  28  29
HETATM   29  C   UNK N   1      29.528  29.980  -1.030  0.00  0.00     0.268 C 
HETATM   30  C   UNK N   1      28.386  29.903  -0.021  0.00  0.00     0.037 C 
ENDBRANCH  28  29
BRANCH  28  31
HETATM   31  C   UNK N   1      29.936  28.506  -2.887  0.00  0.00     0.268 C 
HETATM   32  C   UNK N   1      31.343  28.586  -2.317  0.00  0.00     0.037 C 
ENDBRANCH  28  31
ENDBRANCH  27  28
ENDBRANCH  26  27
ENDBRANCH  24  26
ENDBRANCH   2  22
TORSDOF 7
ENDMDL
MODEL 8
REMARK VINA RESULT:      -6.5      4.137      9.497
REMARK  7 active torsions:
REMARK  status: ('A' for Active; 'I' for Inactive)
REMARK    1  A    between atoms: N_4  and  C_8 
REMARK    2  A    between atoms: N_4  and  C_14 
REMARK    3  A    between atoms: N_4  and  C_15 
REMARK    4  A    between atoms: N_6  and  C_12 
REMARK       I    between atoms: N_6  and  C_16 
REMARK    5  A    between atoms: C_8  and  C_12 
REMARK    6  A    between atoms: C_9  and  C_16 
REMARK    7  A    between atoms: C_11  and  C_18 
ROOT
HETATM    1  N   UNK N   1      32.414  16.316   9.442  0.00  0.00    -0.359 N 
HETATM    2  C   UNK N   1      32.979  16.840   7.321  0.00  0.00     0.062 A 
HETATM    3  C   UNK N   1      33.856  15.877   7.793  0.00  0.00    -0.018 A 
HETATM    4  C   UNK N   1      33.468  15.572   9.069  0.00  0.00     0.040 A 
HETATM    5  C   UNK N   1      32.109  17.103   8.392  0.00  0.00     0.022 A 
HETATM    6  C   UNK N   1      34.953  15.192   7.042  0.00  0.00     0.052 C 
HETATM    7  C   UNK N   1      30.898  17.964   8.427  0.00  0.00     0.069 C 
HETATM    8  H   UNK N   1      31.954  16.291  10.311  0.00  0.00     0.166 HD
ENDROOT
BRANCH   4   9
HETATM    9  C   UNK N   1      33.983  14.417   9.801  0.00  0.00     0.048 C 
HETATM   10  C   UNK N   1      34.853  14.567  10.808  0.00  0.00     0.047 A 
HETATM   11  C   UNK N   1      35.291  13.510  11.704  0.00  0.00     0.009 A 
HETATM   12  C   UNK N   1      35.444  15.791  11.397  0.00  0.00     0.257 A 
HETATM   13  C   UNK N   1      36.054  14.100  12.687  0.00  0.00     0.046 A 
HETATM   14  C   UNK N   1      34.994  12.151  11.721  0.00  0.00     0.057 A 
HETATM   15  N   UNK N   1      36.159  15.493  12.498  0.00  0.00    -0.322 N 
HETATM   16  C   UNK N   1      36.578  13.365  13.743  0.00  0.00     0.033 A 
HETATM   17  H   UNK N   1      36.659  16.126  13.063  0.00  0.00     0.169 HD
HETATM   18  C   UNK N   1      36.302  11.986  13.783  0.00  0.00     0.044 A 
HETATM   19  C   UNK N   1      35.512  11.383  12.778  0.00  0.00     0.117 A 
HETATM   20  F   UNK N   1      35.238  10.059  12.842  0.00  0.00    -0.206 F 
HETATM   21  O   UNK N   1      35.295  16.938  11.000  0.00  0.00    -0.267 OA
ENDBRANCH   4   9
BRANCH   2  22
HETATM   22  C   UNK N   1      32.994  17.307   5.895  0.00  0.00     0.254 C 
HETATM   23  O   UNK N   1      33.911  18.033   5.545  0.00  0.00    -0.268 OA
HETATM   24  N   UNK N   1      32.089  16.965   4.954  0.00  0.00    -0.355 N 
HETATM   25  H   UNK N   1      32.310  17.215   4.027  0.00  0.00     0.162 HD
BRANCH  24  26
HETATM   26  C   UNK N   1      30.843  16.281   5.146  0.00  0.00     0.153 C 
BRANCH  26  27
HETATM   27  C   UNK N   1      29.742  16.961   4.334  0.00  0.00     0.292 C 
BRANCH  27  28
HETATM   28  N   UNK N   1      28.787  17.667   5.192  0.00  0.00     0.089 N 
BRANCH  28  29
HETATM   29  C   UNK N   1      28.553  19.020   4.687  0.00  0.00     0.268 C 
HETATM   30  C   UNK N   1      27.111  19.258   4.250  0.00  0.00     0.037 C 
ENDBRANCH  28  29
BRANCH  28  31
HETATM   31  C   UNK N   1      27.532  16.927   5.288  0.00  0.00     0.268 C 
HETATM   32  C   UNK N   1      27.340  16.393   6.699  0.00  0.00     0.037 C 
ENDBRANCH  28  31
ENDBRANCH  27  28
ENDBRANCH  26  27
ENDBRANCH  24  26
ENDBRANCH   2  22
TORSDOF 7
ENDMDL
MODEL 9
REMARK VINA RESULT:      -6.5      3.256      8.191
REMARK  7 active torsions:
REMARK  status: ('A' for Active; 'I' for Inactive)
REMARK    1  A    between atoms: N_4  and  C_8 
REMARK    2  A    between atoms: N_4  and  C_14 
REMARK    3  A    between atoms: N_4  and  C_15 
REMARK    4  A    between atoms: N_6  and  C_12 
REMARK       I    between atoms: N_6  and  C_16 
REMARK    5  A    between atoms: C_8  and  C_12 
REMARK    6  A    between atoms: C_9  and  C_16 
REMARK    7  A    between atoms: C_11  and  C_18 
ROOT
HETATM    1  N   UNK N   1      37.946  12.909  12.086  0.00  0.00    -0.359 N 
HETATM    2  C   UNK N   1      36.743  12.105  10.353  0.00  0.00     0.062 A 
HETATM    3  C   UNK N   1      35.991  11.992  11.511  0.00  0.00    -0.018 A 
HETATM    4  C   UNK N   1      36.743  12.508  12.531  0.00  0.00     0.040 A 
HETATM    5  C   UNK N   1      37.967  12.660  10.762  0.00  0.00     0.022 A 
HETATM    6  C   UNK N   1      34.580  11.515  11.643  0.00  0.00     0.052 C 
HETATM    7  C   UNK N   1      39.116  13.109   9.934  0.00  0.00     0.069 C 
HETATM    8  H   UNK N   1      38.669  13.306  12.622  0.00  0.00     0.166 HD
ENDROOT
BRANCH   4   9
HETATM    9  C   UNK N   1      36.194  12.805  13.851  0.00  0.00     0.048 C 
HETATM   10  C   UNK N   1      36.155  11.873  14.812  0.00  0.00     0.047 A 
HETATM   11  C   UNK N   1      35.791  12.109  16.198  0.00  0.00     0.009 A 
HETATM   12  C   UNK N   1      36.618  10.465  14.807  0.00  0.00     0.257 A 
HETATM   13  C   UNK N   1      36.027  10.939  16.887  0.00  0.00     0.046 A 
HETATM   14  C   UNK N   1      35.362  13.265  16.842  0.00  0.00     0.057 A 
HETATM   15  N   UNK N   1      36.523   9.928  16.038  0.00  0.00    -0.322 N 
HETATM   16  C   UNK N   1      35.838  10.850  18.260  0.00  0.00     0.033 A 
HETATM   17  H   UNK N   1      36.756   9.007  16.296  0.00  0.00     0.169 HD
HETATM   18  C   UNK N   1      35.395  12.001  18.937  0.00  0.00     0.044 A 
HETATM   19  C   UNK N   1      35.161  13.203  18.231  0.00  0.00     0.117 A 
HETATM   20  F   UNK N   1      34.755  14.308  18.900  0.00  0.00    -0.206 F 
HETATM   21  O   UNK N   1      37.071   9.849  13.854  0.00  0.00    -0.267 OA
ENDBRANCH   4   9
BRANCH   2  22
HETATM   22  C   UNK N   1      36.182  11.786   9.000  0.00  0.00     0.254 C 
HETATM   23  O   UNK N   1      36.071  10.609   8.694  0.00  0.00    -0.268 OA
HETATM   24  N   UNK N   1      35.760  12.697   8.097  0.00  0.00    -0.355 N 
HETATM   25  H   UNK N   1      35.270  12.344   7.319  0.00  0.00     0.162 HD
BRANCH  24  26
HETATM   26  C   UNK N   1      35.942  14.119   8.139  0.00  0.00     0.153 C 
BRANCH  26  27
HETATM   27  C   UNK N   1      34.898  14.754   9.055  0.00  0.00     0.292 C 
BRANCH  27  28
HETATM   28  N   UNK N   1      34.936  16.218   8.994  0.00  0.00     0.089 N 
BRANCH  28  29
HETATM   29  C   UNK N   1      33.697  16.734   8.412  0.00  0.00     0.268 C 
HETATM   30  C   UNK N   1      33.767  18.220   8.071  0.00  0.00     0.037 C 
ENDBRANCH  28  29
BRANCH  28  31
HETATM   31  C   UNK N   1      35.160  16.786  10.320  0.00  0.00     0.268 C 
HETATM   32  C   UNK N   1      35.337  15.677  11.346  0.00  0.00     0.037 C 
ENDBRANCH  28  31
ENDBRANCH  27  28
ENDBRANCH  26  27
ENDBRANCH  24  26
ENDBRANCH   2  22
TORSDOF 7
ENDMDL
