REMARK  7 active torsions:
REMARK  status: ('A' for Active; 'I' for Inactive)
REMARK    1  A    between atoms: N_4  and  C_8 
REMARK    2  A    between atoms: N_4  and  C_14 
REMARK    3  A    between atoms: N_4  and  C_15 
REMARK    4  A    between atoms: N_6  and  C_12 
REMARK       I    between atoms: N_6  and  C_16 
REMARK    5  A    between atoms: C_8  and  C_12 
REMARK    6  A    between atoms: C_9  and  C_16 
REMARK    7  A    between atoms: C_11  and  C_18 
ROOT
HETATM    1  N   UNK N   1       6.267  -0.916  -1.396  0.00  0.00    -0.359 N 
HETATM    2  C   UNK N   1       7.185   0.814  -0.275  0.00  0.00     0.062 A 
HETATM    3  C   UNK N   1       5.806   0.898  -0.177  0.00  0.00    -0.018 A 
HETATM    4  C   UNK N   1       5.289  -0.176  -0.848  0.00  0.00     0.040 A 
HETATM    5  C   UNK N   1       7.429  -0.321  -1.066  0.00  0.00     0.022 A 
HETATM    6  C   UNK N   1       5.003   1.889   0.604  0.00  0.00     0.052 C 
HETATM    7  C   UNK N   1       8.724  -0.964  -1.409  0.00  0.00     0.069 C 
HETATM    8  H   UNK N   1       6.156  -1.733  -1.933  0.00  0.00     0.166 HD
ENDROOT
BRANCH   4   9
HETATM    9  C   UNK N   1       3.888  -0.577  -0.747  0.00  0.00     0.048 C 
HETATM   10  C   UNK N   1       3.546  -1.803  -0.330  0.00  0.00     0.047 A 
HETATM   11  C   UNK N   1       2.194  -2.243  -0.033  0.00  0.00     0.009 A 
HETATM   12  C   UNK N   1       4.388  -2.941   0.108  0.00  0.00     0.257 A 
HETATM   13  C   UNK N   1       2.286  -3.505   0.511  0.00  0.00     0.046 A 
HETATM   14  C   UNK N   1       0.976  -1.581  -0.148  0.00  0.00     0.057 A 
HETATM   15  N   UNK N   1       3.625  -3.940   0.590  0.00  0.00    -0.322 N 
HETATM   16  C   UNK N   1       1.164  -4.188   0.964  0.00  0.00     0.033 A 
HETATM   17  H   UNK N   1       3.941  -4.808   0.932  0.00  0.00     0.169 HD
HETATM   18  C   UNK N   1      -0.083  -3.547   0.852  0.00  0.00     0.044 A 
HETATM   19  C   UNK N   1      -0.176  -2.249   0.301  0.00  0.00     0.117 A 
HETATM   20  F   UNK N   1      -1.381  -1.637   0.220  0.00  0.00    -0.206 F 
HETATM   21  O   UNK N   1       5.609  -2.994   0.094  0.00  0.00    -0.267 OA
ENDBRANCH   4   9
BRANCH   2  22
HETATM   22  C   UNK N   1       8.099   1.737   0.475  0.00  0.00     0.254 C 
HETATM   23  O   UNK N   1       7.612   2.426   1.357  0.00  0.00    -0.268 OA
HETATM   24  N   UNK N   1       9.429   1.848   0.274  0.00  0.00    -0.355 N 
HETATM   25  H   UNK N   1       9.928   2.373   0.942  0.00  0.00     0.162 HD
BRANCH  24  26
HETATM   26  C   UNK N   1      10.202   1.291  -0.799  0.00  0.00     0.153 C 
BRANCH  26  27
HETATM   27  C   UNK N   1      11.691   1.513  -0.542  0.00  0.00     0.292 C 
BRANCH  27  28
HETATM   28  N   UNK N   1      11.925   2.604   0.408  0.00  0.00     0.089 N 
BRANCH  28  29
HETATM   29  C   UNK N   1      13.143   2.354   1.179  0.00  0.00     0.268 C 
HETATM   30  C   UNK N   1      14.391   2.236   0.309  0.00  0.00     0.037 C 
ENDBRANCH  28  29
BRANCH  28  31
HETATM   31  C   UNK N   1      12.006   3.886  -0.286  0.00  0.00     0.268 C 
HETATM   32  C   UNK N   1      10.639   4.550  -0.329  0.00  0.00     0.037 C 
ENDBRANCH  28  31
ENDBRANCH  27  28
ENDBRANCH  26  27
ENDBRANCH  24  26
ENDBRANCH   2  22
TORSDOF 7
