MODEL 1
REMARK VINA RESULT:      -6.3      0.000      0.000
REMARK  0 active torsions:
REMARK  status: ('A' for Active; 'I' for Inactive)
ROOT
HETATM    1  N   UNK N   1      20.129  18.944   1.290  0.00  0.00    -0.420 N 
HETATM    2  N   UNK N   1      26.220  20.442   3.681  0.00  0.00    -0.363 N 
ATOM      3  HN  UNK N   1      26.469  21.256   3.119  1.00  0.00     0.165 HD
HETATM    4  N   UNK N   1      25.558  18.243   5.199  0.00  0.00    -0.363 N 
ATOM      5  HN  UNK N   1      25.316  17.429   5.763  1.00  0.00     0.165 HD
HETATM    6  C   UNK N   1      21.420  20.794   2.439  0.00  0.00     0.037 C 
HETATM    7  C   UNK N   1      20.851  18.870   3.720  0.00  0.00     0.037 C 
HETATM    8  C   UNK N   1      20.427  20.341   3.531  0.00  0.00     0.022 C 
HETATM    9  C   UNK N   1      22.647  20.155   2.967  0.00  0.00    -0.043 A 
HETATM   10  C   UNK N   1      22.321  19.058   3.712  0.00  0.00    -0.043 A 
HETATM   11  C   UNK N   1      21.022  20.109   1.117  0.00  0.00     0.123 C 
HETATM   12  C   UNK N   1      20.440  18.088   2.454  0.00  0.00     0.123 C 
HETATM   13  C   UNK N   1      23.952  20.654   2.935  0.00  0.00     0.040 A 
HETATM   14  C   UNK N   1      23.274  18.390   4.485  0.00  0.00     0.040 A 
HETATM   15  C   UNK N   1      24.939  19.987   3.673  0.00  0.00     0.059 A 
HETATM   16  C   UNK N   1      24.599  18.852   4.455  0.00  0.00     0.059 A 
HETATM   17  C   UNK N   1      27.174  19.823   4.426  0.00  0.00     0.105 A 
HETATM   18  C   UNK N   1      26.838  18.706   5.200  0.00  0.00     0.105 A 
HETATM   19  H   UNK N   1      19.356  18.747   0.654  0.00  0.00     0.153 HD
ENDROOT
TORSDOF 0
ENDMDL
MODEL 2
REMARK VINA RESULT:      -6.3      7.184      9.439
REMARK  0 active torsions:
REMARK  status: ('A' for Active; 'I' for Inactive)
ROOT
HETATM    1  N   UNK N   1      24.768  12.186  11.307  0.00  0.00    -0.420 N 
HETATM    2  N   UNK N   1      21.304  16.182   7.173  0.00  0.00    -0.363 N 
ATOM      3  HN  UNK N   1      22.003  16.401   6.463  1.00  0.00     0.165 HD
HETATM    4  N   UNK N   1      19.413  15.595   9.086  0.00  0.00    -0.363 N 
ATOM      5  HN  UNK N   1      18.710  15.381   9.792  1.00  0.00     0.165 HD
HETATM    6  C   UNK N   1      23.971  12.364   8.912  0.00  0.00     0.037 C 
HETATM    7  C   UNK N   1      22.356  11.879  10.591  0.00  0.00     0.037 C 
HETATM    8  C   UNK N   1      23.142  11.184   9.461  0.00  0.00     0.022 C 
HETATM    9  C   UNK N   1      22.918  13.406   8.918  0.00  0.00    -0.043 A 
HETATM   10  C   UNK N   1      21.984  13.121   9.873  0.00  0.00    -0.043 A 
HETATM   11  C   UNK N   1      25.044  12.723   9.958  0.00  0.00     0.123 C 
HETATM   12  C   UNK N   1      23.350  12.230  11.719  0.00  0.00     0.123 C 
HETATM   13  C   UNK N   1      22.722  14.429   7.986  0.00  0.00     0.040 A 
HETATM   14  C   UNK N   1      20.785  13.834   9.957  0.00  0.00     0.040 A 
HETATM   15  C   UNK N   1      21.543  15.183   8.064  0.00  0.00     0.059 A 
HETATM   16  C   UNK N   1      20.568  14.883   9.051  0.00  0.00     0.059 A 
HETATM   17  C   UNK N   1      20.145  16.891   7.218  0.00  0.00     0.105 A 
HETATM   18  C   UNK N   1      19.183  16.593   8.189  0.00  0.00     0.105 A 
HETATM   19  H   UNK N   1      25.503  11.813  11.909  0.00  0.00     0.153 HD
ENDROOT
TORSDOF 0
ENDMDL
MODEL 3
REMARK VINA RESULT:      -6.2      7.932      9.972
REMARK  0 active torsions:
REMARK  status: ('A' for Active; 'I' for Inactive)
ROOT
HETATM    1  N   UNK N   1      33.622  15.113   4.311  0.00  0.00    -0.420 N 
HETATM    2  N   UNK N   1      30.535  18.019   9.514  0.00  0.00    -0.363 N 
ATOM      3  HN  UNK N   1      31.321  18.239  10.126  1.00  0.00     0.165 HD
HETATM    4  N   UNK N   1      28.407  17.428   7.872  0.00  0.00    -0.363 N 
ATOM      5  HN  UNK N   1      27.616  17.210   7.266  1.00  0.00     0.165 HD
HETATM    6  C   UNK N   1      33.514  17.286   5.603  0.00  0.00     0.037 C 
HETATM    7  C   UNK N   1      31.679  16.736   4.191  0.00  0.00     0.037 C 
HETATM    8  C   UNK N   1      32.906  17.670   4.237  0.00  0.00     0.022 C 
HETATM    9  C   UNK N   1      32.266  17.216   6.398  0.00  0.00    -0.043 A 
HETATM   10  C   UNK N   1      31.210  16.913   5.585  0.00  0.00    -0.043 A 
HETATM   11  C   UNK N   1      34.115  15.873   5.480  0.00  0.00     0.123 C 
HETATM   12  C   UNK N   1      32.187  15.290   4.012  0.00  0.00     0.123 C 
HETATM   13  C   UNK N   1      32.077  17.598   7.729  0.00  0.00     0.040 A 
HETATM   14  C   UNK N   1      29.893  16.980   6.045  0.00  0.00     0.040 A 
HETATM   15  C   UNK N   1      30.768  17.644   8.229  0.00  0.00     0.059 A 
HETATM   16  C   UNK N   1      29.670  17.337   7.384  0.00  0.00     0.059 A 
HETATM   17  C   UNK N   1      29.266  18.104   9.995  0.00  0.00     0.105 A 
HETATM   18  C   UNK N   1      28.183  17.805   9.160  0.00  0.00     0.105 A 
HETATM   19  H   UNK N   1      34.230  14.512   3.754  0.00  0.00     0.153 HD
ENDROOT
TORSDOF 0
ENDMDL
MODEL 4
REMARK VINA RESULT:      -6.0     10.407     12.872
REMARK  0 active torsions:
REMARK  status: ('A' for Active; 'I' for Inactive)
ROOT
HETATM    1  N   UNK N   1      32.852  16.890   5.870  0.00  0.00    -0.420 N 
HETATM    2  N   UNK N   1      36.159  15.764  11.601  0.00  0.00    -0.363 N 
ATOM      3  HN  UNK N   1      36.842  16.523  11.600  1.00  0.00     0.165 HD
HETATM    4  N   UNK N   1      34.323  13.714  11.613  0.00  0.00    -0.363 N 
ATOM      5  HN  UNK N   1      33.644  12.953  11.621  1.00  0.00     0.165 HD
HETATM    6  C   UNK N   1      33.402  17.960   8.097  0.00  0.00     0.037 C 
HETATM    7  C   UNK N   1      31.833  16.171   8.077  0.00  0.00     0.037 C 
HETATM    8  C   UNK N   1      31.883  17.707   8.206  0.00  0.00     0.022 C 
HETATM    9  C   UNK N   1      33.880  16.858   8.962  0.00  0.00    -0.043 A 
HETATM   10  C   UNK N   1      32.975  15.835   8.961  0.00  0.00    -0.043 A 
HETATM   11  C   UNK N   1      33.830  17.685   6.643  0.00  0.00     0.123 C 
HETATM   12  C   UNK N   1      32.199  15.800   6.624  0.00  0.00     0.123 C 
HETATM   13  C   UNK N   1      34.966  16.871   9.842  0.00  0.00     0.040 A 
HETATM   14  C   UNK N   1      33.086  14.760   9.846  0.00  0.00     0.040 A 
HETATM   15  C   UNK N   1      35.124  15.791  10.721  0.00  0.00     0.059 A 
HETATM   16  C   UNK N   1      34.179  14.731  10.727  0.00  0.00     0.059 A 
HETATM   17  C   UNK N   1      36.297  14.739  12.484  0.00  0.00     0.105 A 
HETATM   18  C   UNK N   1      35.363  13.697  12.492  0.00  0.00     0.105 A 
HETATM   19  H   UNK N   1      32.643  17.081   4.890  0.00  0.00     0.153 HD
ENDROOT
TORSDOF 0
ENDMDL
MODEL 5
REMARK VINA RESULT:      -6.0      6.017     10.539
REMARK  0 active torsions:
REMARK  status: ('A' for Active; 'I' for Inactive)
ROOT
HETATM    1  N   UNK N   1      34.533  15.706   8.261  0.00  0.00    -0.420 N 
HETATM    2  N   UNK N   1      28.345  17.361   6.255  0.00  0.00    -0.363 N 
ATOM      3  HN  UNK N   1      27.833  17.359   7.138  1.00  0.00     0.165 HD
HETATM    4  N   UNK N   1      29.717  17.366   3.869  0.00  0.00    -0.363 N 
ATOM      5  HN  UNK N   1      30.222  17.369   2.983  1.00  0.00     0.165 HD
HETATM    6  C   UNK N   1      32.744  17.470   8.567  0.00  0.00     0.037 C 
HETATM    7  C   UNK N   1      33.933  17.435   6.506  0.00  0.00     0.037 C 
HETATM    8  C   UNK N   1      33.856  18.238   7.821  0.00  0.00     0.022 C 
HETATM    9  C   UNK N   1      31.801  17.281   7.441  0.00  0.00    -0.043 A 
HETATM   10  C   UNK N   1      32.481  17.274   6.257  0.00  0.00    -0.043 A 
HETATM   11  C   UNK N   1      33.308  16.100   8.989  0.00  0.00     0.123 C 
HETATM   12  C   UNK N   1      34.543  16.054   6.825  0.00  0.00     0.123 C 
HETATM   13  C   UNK N   1      30.404  17.315   7.480  0.00  0.00     0.040 A 
HETATM   14  C   UNK N   1      31.813  17.309   5.030  0.00  0.00     0.040 A 
HETATM   15  C   UNK N   1      29.703  17.319   6.267  0.00  0.00     0.059 A 
HETATM   16  C   UNK N   1      30.409  17.319   5.035  0.00  0.00     0.059 A 
HETATM   17  C   UNK N   1      27.660  17.405   5.082  0.00  0.00     0.105 A 
HETATM   18  C   UNK N   1      28.356  17.409   3.868  0.00  0.00     0.105 A 
HETATM   19  H   UNK N   1      35.312  15.231   8.716  0.00  0.00     0.153 HD
ENDROOT
TORSDOF 0
ENDMDL
MODEL 6
REMARK VINA RESULT:      -5.6      8.992     11.928
REMARK  0 active torsions:
REMARK  status: ('A' for Active; 'I' for Inactive)
ROOT
HETATM    1  N   UNK N   1      31.030  15.659   4.653  0.00  0.00    -0.420 N 
HETATM    2  N   UNK N   1      35.906  14.899   9.203  0.00  0.00    -0.363 N 
ATOM      3  HN  UNK N   1      36.376  14.059   8.865  1.00  0.00     0.165 HD
HETATM    4  N   UNK N   1      34.645  17.167  10.121  0.00  0.00    -0.363 N 
ATOM      5  HN  UNK N   1      34.180  18.007  10.464  1.00  0.00     0.165 HD
HETATM    6  C   UNK N   1      33.549  15.568   4.878  0.00  0.00     0.037 C 
HETATM    7  C   UNK N   1      32.428  17.507   5.682  0.00  0.00     0.037 C 
HETATM    8  C   UNK N   1      33.293  17.041   4.494  0.00  0.00     0.022 C 
HETATM    9  C   UNK N   1      33.828  15.753   6.320  0.00  0.00    -0.043 A 
HETATM   10  C   UNK N   1      33.195  16.872   6.780  0.00  0.00    -0.043 A 
HETATM   11  C   UNK N   1      32.227  14.794   4.713  0.00  0.00     0.123 C 
HETATM   12  C   UNK N   1      31.051  16.818   5.569  0.00  0.00     0.123 C 
HETATM   13  C   UNK N   1      34.754  15.063   7.108  0.00  0.00     0.040 A 
HETATM   14  C   UNK N   1      33.449  17.385   8.055  0.00  0.00     0.040 A 
HETATM   15  C   UNK N   1      35.007  15.532   8.404  0.00  0.00     0.059 A 
HETATM   16  C   UNK N   1      34.356  16.700   8.879  0.00  0.00     0.059 A 
HETATM   17  C   UNK N   1      36.187  15.372  10.446  0.00  0.00     0.105 A 
HETATM   18  C   UNK N   1      35.548  16.526  10.913  0.00  0.00     0.105 A 
HETATM   19  H   UNK N   1      30.248  15.469   4.026  0.00  0.00     0.153 HD
ENDROOT
TORSDOF 0
ENDMDL
MODEL 7
REMARK VINA RESULT:      -5.6     12.140     13.923
REMARK  0 active torsions:
REMARK  status: ('A' for Active; 'I' for Inactive)
ROOT
HETATM    1  N   UNK N   1      28.694  30.033  -2.720  0.00  0.00    -0.420 N 
HETATM    2  N   UNK N   1      25.455  25.576  -6.553  0.00  0.00    -0.363 N 
ATOM      3  HN  UNK N   1      24.792  25.175  -5.890  1.00  0.00     0.165 HD
HETATM    4  N   UNK N   1      27.244  26.650  -8.349  0.00  0.00    -0.363 N 
ATOM      5  HN  UNK N   1      27.905  27.045  -9.017  1.00  0.00     0.165 HD
HETATM    6  C   UNK N   1      26.389  29.456  -3.591  0.00  0.00     0.037 C 
HETATM    7  C   UNK N   1      27.964  30.368  -5.125  0.00  0.00     0.037 C 
HETATM    8  C   UNK N   1      26.711  30.776  -4.324  0.00  0.00     0.022 C 
HETATM    9  C   UNK N   1      26.610  28.513  -4.711  0.00  0.00    -0.043 A 
HETATM   10  C   UNK N   1      27.505  29.040  -5.598  0.00  0.00    -0.043 A 
HETATM   11  C   UNK N   1      27.470  29.230  -2.517  0.00  0.00     0.123 C 
HETATM   12  C   UNK N   1      29.125  30.169  -4.127  0.00  0.00     0.123 C 
HETATM   13  C   UNK N   1      25.896  27.347  -5.000  0.00  0.00     0.040 A 
HETATM   14  C   UNK N   1      27.741  28.444  -6.839  0.00  0.00     0.040 A 
HETATM   15  C   UNK N   1      26.133  26.707  -6.224  0.00  0.00     0.059 A 
HETATM   16  C   UNK N   1      27.057  27.258  -7.150  0.00  0.00     0.059 A 
HETATM   17  C   UNK N   1      25.652  24.971  -7.755  0.00  0.00     0.105 A 
HETATM   18  C   UNK N   1      26.559  25.518  -8.670  0.00  0.00     0.105 A 
HETATM   19  H   UNK N   1      29.202  30.462  -1.946  0.00  0.00     0.153 HD
ENDROOT
TORSDOF 0
ENDMDL
MODEL 8
REMARK VINA RESULT:      -5.5     15.291     17.394
REMARK  0 active torsions:
REMARK  status: ('A' for Active; 'I' for Inactive)
ROOT
HETATM    1  N   UNK N   1      35.662   9.422  15.330  0.00  0.00    -0.420 N 
HETATM    2  N   UNK N   1      35.596  13.674  10.137  0.00  0.00    -0.363 N 
ATOM      3  HN  UNK N   1      35.398  13.047   9.358  1.00  0.00     0.165 HD
HETATM    4  N   UNK N   1      36.133  15.374  12.234  0.00  0.00    -0.363 N 
ATOM      5  HN  UNK N   1      36.332  16.007  13.009  1.00  0.00     0.165 HD
HETATM    6  C   UNK N   1      34.161  10.297  13.490  0.00  0.00     0.037 C 
HETATM    7  C   UNK N   1      34.660  11.751  15.307  0.00  0.00     0.037 C 
HETATM    8  C   UNK N   1      33.511  10.876  14.765  0.00  0.00     0.022 C 
HETATM    9  C   UNK N   1      34.818  11.526  12.989  0.00  0.00    -0.043 A 
HETATM   10  C   UNK N   1      35.094  12.366  14.030  0.00  0.00    -0.043 A 
HETATM   11  C   UNK N   1      35.240   9.285  13.920  0.00  0.00     0.123 C 
HETATM   12  C   UNK N   1      35.776  10.813  15.815  0.00  0.00     0.123 C 
HETATM   13  C   UNK N   1      34.971  11.934  11.661  0.00  0.00     0.040 A 
HETATM   14  C   UNK N   1      35.533  13.675  13.815  0.00  0.00     0.040 A 
HETATM   15  C   UNK N   1      35.440  13.230  11.413  0.00  0.00     0.059 A 
HETATM   16  C   UNK N   1      35.720  14.107  12.493  0.00  0.00     0.059 A 
HETATM   17  C   UNK N   1      36.013  14.944   9.888  0.00  0.00     0.105 A 
HETATM   18  C   UNK N   1      36.284  15.809  10.954  0.00  0.00     0.105 A 
HETATM   19  H   UNK N   1      35.858   8.616  15.923  0.00  0.00     0.153 HD
ENDROOT
TORSDOF 0
ENDMDL
MODEL 9
REMARK VINA RESULT:      -5.5     10.476     12.045
REMARK  0 active torsions:
REMARK  status: ('A' for Active; 'I' for Inactive)
ROOT
HETATM    1  N   UNK N   1      27.092  23.588  -5.963  0.00  0.00    -0.420 N 
HETATM    2  N   UNK N   1      26.005  29.781  -3.614  0.00  0.00    -0.363 N 
ATOM      3  HN  UNK N   1      24.986  29.811  -3.571  1.00  0.00     0.165 HD
HETATM    4  N   UNK N   1      28.754  29.710  -3.728  0.00  0.00    -0.363 N 
ATOM      5  HN  UNK N   1      29.773  29.687  -3.769  1.00  0.00     0.165 HD
HETATM    6  C   UNK N   1      26.049  24.827  -4.019  0.00  0.00     0.037 C 
HETATM    7  C   UNK N   1      28.424  24.766  -4.156  0.00  0.00     0.037 C 
HETATM    8  C   UNK N   1      27.262  24.128  -3.368  0.00  0.00     0.022 C 
HETATM    9  C   UNK N   1      26.588  26.204  -4.088  0.00  0.00    -0.043 A 
HETATM   10  C   UNK N   1      27.952  26.170  -4.154  0.00  0.00    -0.043 A 
HETATM   11  C   UNK N   1      25.889  24.274  -5.448  0.00  0.00     0.123 C 
HETATM   12  C   UNK N   1      28.376  24.223  -5.600  0.00  0.00     0.123 C 
HETATM   13  C   UNK N   1      25.896  27.404  -3.901  0.00  0.00     0.040 A 
HETATM   14  C   UNK N   1      28.718  27.332  -4.030  0.00  0.00     0.040 A 
HETATM   15  C   UNK N   1      26.634  28.591  -3.805  0.00  0.00     0.059 A 
HETATM   16  C   UNK N   1      28.052  28.556  -3.866  0.00  0.00     0.059 A 
HETATM   17  C   UNK N   1      26.717  30.931  -3.480  0.00  0.00     0.105 A 
HETATM   18  C   UNK N   1      28.115  30.896  -3.536  0.00  0.00     0.105 A 
HETATM   19  H   UNK N   1      27.039  22.739  -6.527  0.00  0.00     0.153 HD
ENDROOT
TORSDOF 0
ENDMDL
