MODEL 1
REMARK VINA RESULT:      -6.5      0.000      0.000
REMARK  11 active torsions:
REMARK  status: ('A' for Active; 'I' for Inactive)
REMARK    1  A    between atoms: C_10  and  O_1 
REMARK    2  A    between atoms: O_2  and  C_23 
REMARK    3  A    between atoms: O_3  and  C_22 
REMARK    4  A    between atoms: C_7  and  N_5 
REMARK    5  A    between atoms: N_5  and  C_9 
REMARK    6  A    between atoms: N_6  and  C_18 
REMARK    7  A    between atoms: N_6  and  C_24 
REMARK    8  A    between atoms: C_7  and  C_8 
REMARK    9  A    between atoms: C_8  and  C_12 
REMARK   10  A    between atoms: C_9  and  C_10 
REMARK   11  A    between atoms: C_10  and  C_13 
ROOT
HETATM    1  C   UNK N   1      28.812  21.909  -6.618  0.00  0.00     0.168 C 
ENDROOT
BRANCH   1   2
HETATM    2  O   UNK N   1      29.001  20.871  -7.536  0.00  0.00    -0.389 OA
HETATM    3  H   UNK N   1      28.674  20.962  -8.445  0.00  0.00     0.210 HD
ENDBRANCH   1   2
BRANCH   1   4
HETATM    4  C   UNK N   1      28.969  23.232  -7.356  0.00  0.00     0.150 C 
BRANCH   4   5
HETATM    5  N   UNK N   1      27.899  24.163  -7.029  0.00  0.00    -0.414 N 
HETATM    6  H   UNK N   1      27.986  25.160  -6.829  0.00  0.00     0.153 HD
BRANCH   5   7
HETATM    7  C   UNK N   1      26.681  23.373  -7.045  0.00  0.00     0.076 C 
HETATM    8  C   UNK N   1      25.955  23.495  -8.375  0.00  0.00     0.032 C 
BRANCH   7   9
HETATM    9  C   UNK N   1      25.791  23.646  -5.826  0.00  0.00     0.062 C 
BRANCH   9  10
HETATM   10  C   UNK N   1      25.848  25.016  -5.203  0.00  0.00    -0.056 A 
HETATM   11  C   UNK N   1      26.500  25.150  -3.973  0.00  0.00     0.010 A 
HETATM   12  C   UNK N   1      26.500  26.374  -3.302  0.00  0.00     0.037 A 
HETATM   13  C   UNK N   1      25.846  27.487  -3.858  0.00  0.00     0.068 A 
HETATM   14  C   UNK N   1      25.221  27.363  -5.103  0.00  0.00     0.037 A 
HETATM   15  C   UNK N   1      25.218  26.134  -5.772  0.00  0.00     0.010 A 
BRANCH  13  16
HETATM   16  O   UNK N   1      25.792  28.674  -3.209  0.00  0.00    -0.356 OA
HETATM   17  C   UNK N   1      26.485  29.790  -3.622  0.00  0.00     0.210 C 
ENDBRANCH  13  16
ENDBRANCH   9  10
ENDBRANCH   7   9
ENDBRANCH   5   7
ENDBRANCH   4   5
ENDBRANCH   1   4
BRANCH   1  18
HETATM   18  C   UNK N   1      29.763  21.774  -5.451  0.00  0.00    -0.026 A 
HETATM   19  C   UNK N   1      30.694  20.724  -5.396  0.00  0.00     0.042 A 
HETATM   20  C   UNK N   1      31.555  20.577  -4.295  0.00  0.00     0.068 A 
HETATM   21  C   UNK N   1      31.474  21.498  -3.239  0.00  0.00     0.092 A 
HETATM   22  C   UNK N   1      30.549  22.544  -3.287  0.00  0.00     0.039 A 
HETATM   23  C   UNK N   1      29.695  22.679  -4.385  0.00  0.00     0.012 A 
BRANCH  20  24
HETATM   24  N   UNK N   1      32.505  19.514  -4.219  0.00  0.00    -0.332 N 
HETATM   25  H   UNK N   1      32.177  18.645  -3.892  0.00  0.00     0.168 HD
BRANCH  24  26
HETATM   26  C   UNK N   1      33.822  19.588  -4.555  0.00  0.00     0.353 C 
HETATM   27  O   UNK N   1      34.680  19.878  -3.737  0.00  0.00    -0.283 OA
ENDBRANCH  24  26
ENDBRANCH  20  24
BRANCH  21  28
HETATM   28  O   UNK N   1      32.281  21.378  -2.171  0.00  0.00    -0.358 OA
HETATM   29  H   UNK N   1      32.910  20.689  -2.084  0.00  0.00     0.217 HD
ENDBRANCH  21  28
ENDBRANCH   1  18
TORSDOF 11
ENDMDL
MODEL 2
REMARK VINA RESULT:      -6.4     10.930     12.746
REMARK  11 active torsions:
REMARK  status: ('A' for Active; 'I' for Inactive)
REMARK    1  A    between atoms: C_10  and  O_1 
REMARK    2  A    between atoms: O_2  and  C_23 
REMARK    3  A    between atoms: O_3  and  C_22 
REMARK    4  A    between atoms: C_7  and  N_5 
REMARK    5  A    between atoms: N_5  and  C_9 
REMARK    6  A    between atoms: N_6  and  C_18 
REMARK    7  A    between atoms: N_6  and  C_24 
REMARK    8  A    between atoms: C_7  and  C_8 
REMARK    9  A    between atoms: C_8  and  C_12 
REMARK   10  A    between atoms: C_9  and  C_10 
REMARK   11  A    between atoms: C_10  and  C_13 
ROOT
HETATM    1  C   UNK N   1      29.344  17.875   8.151  0.00  0.00     0.168 C 
ENDROOT
BRANCH   1   2
HETATM    2  O   UNK N   1      29.179  17.174   9.349  0.00  0.00    -0.389 OA
HETATM    3  H   UNK N   1      29.236  16.205   9.356  0.00  0.00     0.210 HD
ENDBRANCH   1   2
BRANCH   1   4
HETATM    4  C   UNK N   1      28.266  17.413   7.178  0.00  0.00     0.150 C 
BRANCH   4   5
HETATM    5  N   UNK N   1      27.406  18.513   6.762  0.00  0.00    -0.414 N 
HETATM    6  H   UNK N   1      26.716  19.005   7.329  0.00  0.00     0.153 HD
BRANCH   5   7
HETATM    7  C   UNK N   1      27.740  18.758   5.371  0.00  0.00     0.076 C 
HETATM    8  C   UNK N   1      27.864  20.245   5.081  0.00  0.00     0.032 C 
BRANCH   7   9
HETATM    9  C   UNK N   1      26.807  18.014   4.407  0.00  0.00     0.062 C 
BRANCH   9  10
HETATM   10  C   UNK N   1      25.590  18.742   3.900  0.00  0.00    -0.056 A 
HETATM   11  C   UNK N   1      25.788  19.869   3.097  0.00  0.00     0.010 A 
HETATM   12  C   UNK N   1      24.701  20.640   2.679  0.00  0.00     0.037 A 
HETATM   13  C   UNK N   1      23.394  20.287   3.059  0.00  0.00     0.068 A 
HETATM   14  C   UNK N   1      23.193  19.141   3.835  0.00  0.00     0.037 A 
HETATM   15  C   UNK N   1      24.283  18.373   4.257  0.00  0.00     0.010 A 
BRANCH  13  16
HETATM   16  O   UNK N   1      22.326  21.040   2.705  0.00  0.00    -0.356 OA
HETATM   17  C   UNK N   1      21.043  20.545   2.646  0.00  0.00     0.210 C 
ENDBRANCH  13  16
ENDBRANCH   9  10
ENDBRANCH   7   9
ENDBRANCH   5   7
ENDBRANCH   4   5
ENDBRANCH   1   4
BRANCH   1  18
HETATM   18  C   UNK N   1      30.741  17.689   7.606  0.00  0.00    -0.026 A 
HETATM   19  C   UNK N   1      31.866  17.882   8.425  0.00  0.00     0.042 A 
HETATM   20  C   UNK N   1      33.167  17.744   7.912  0.00  0.00     0.068 A 
HETATM   21  C   UNK N   1      33.334  17.410   6.559  0.00  0.00     0.092 A 
HETATM   22  C   UNK N   1      32.218  17.219   5.739  0.00  0.00     0.039 A 
HETATM   23  C   UNK N   1      30.930  17.362   6.258  0.00  0.00     0.012 A 
BRANCH  20  24
HETATM   24  N   UNK N   1      34.323  17.940   8.727  0.00  0.00    -0.332 N 
HETATM   25  H   UNK N   1      34.794  18.799   8.634  0.00  0.00     0.168 HD
BRANCH  24  26
HETATM   26  C   UNK N   1      34.836  17.051   9.620  0.00  0.00     0.353 C 
HETATM   27  O   UNK N   1      35.678  17.375  10.442  0.00  0.00    -0.283 OA
ENDBRANCH  24  26
ENDBRANCH  20  24
BRANCH  21  28
HETATM   28  O   UNK N   1      34.567  17.278   6.039  0.00  0.00    -0.358 OA
HETATM   29  H   UNK N   1      35.070  16.492   6.122  0.00  0.00     0.217 HD
ENDBRANCH  21  28
ENDBRANCH   1  18
TORSDOF 11
ENDMDL
MODEL 3
REMARK VINA RESULT:      -6.3     14.727     16.939
REMARK  11 active torsions:
REMARK  status: ('A' for Active; 'I' for Inactive)
REMARK    1  A    between atoms: C_10  and  O_1 
REMARK    2  A    between atoms: O_2  and  C_23 
REMARK    3  A    between atoms: O_3  and  C_22 
REMARK    4  A    between atoms: C_7  and  N_5 
REMARK    5  A    between atoms: N_5  and  C_9 
REMARK    6  A    between atoms: N_6  and  C_18 
REMARK    7  A    between atoms: N_6  and  C_24 
REMARK    8  A    between atoms: C_7  and  C_8 
REMARK    9  A    between atoms: C_8  and  C_12 
REMARK   10  A    between atoms: C_9  and  C_10 
REMARK   11  A    between atoms: C_10  and  C_13 
ROOT
HETATM    1  C   UNK N   1      20.426  16.650   5.471  0.00  0.00     0.168 C 
ENDROOT
BRANCH   1   2
HETATM    2  O   UNK N   1      20.919  17.767   6.151  0.00  0.00    -0.389 OA
HETATM    3  H   UNK N   1      21.318  17.665   7.030  0.00  0.00     0.210 HD
ENDBRANCH   1   2
BRANCH   1   4
HETATM    4  C   UNK N   1      21.280  15.447   5.851  0.00  0.00     0.150 C 
BRANCH   4   5
HETATM    5  N   UNK N   1      22.589  15.849   6.347  0.00  0.00    -0.414 N 
HETATM    6  H   UNK N   1      22.854  16.758   6.725  0.00  0.00     0.153 HD
BRANCH   5   7
HETATM    7  C   UNK N   1      23.437  14.681   6.188  0.00  0.00     0.076 C 
HETATM    8  C   UNK N   1      23.857  14.490   4.740  0.00  0.00     0.032 C 
BRANCH   7   9
HETATM    9  C   UNK N   1      22.828  13.426   6.828  0.00  0.00     0.062 C 
BRANCH   9  10
HETATM   10  C   UNK N   1      23.152  13.140   8.270  0.00  0.00    -0.056 A 
HETATM   11  C   UNK N   1      24.498  13.035   8.631  0.00  0.00     0.010 A 
HETATM   12  C   UNK N   1      24.856  12.675   9.932  0.00  0.00     0.037 A 
HETATM   13  C   UNK N   1      23.865  12.418  10.894  0.00  0.00     0.068 A 
HETATM   14  C   UNK N   1      22.517  12.554  10.543  0.00  0.00     0.037 A 
HETATM   15  C   UNK N   1      22.160  12.910   9.237  0.00  0.00     0.010 A 
BRANCH  13  16
HETATM   16  O   UNK N   1      24.182  12.024  12.150  0.00  0.00    -0.356 OA
HETATM   17  C   UNK N   1      23.246  11.866  13.148  0.00  0.00     0.210 C 
ENDBRANCH  13  16
ENDBRANCH   9  10
ENDBRANCH   7   9
ENDBRANCH   5   7
ENDBRANCH   4   5
ENDBRANCH   1   4
BRANCH   1  18
HETATM   18  C   UNK N   1      20.395  16.897   3.980  0.00  0.00    -0.026 A 
HETATM   19  C   UNK N   1      20.202  18.190   3.468  0.00  0.00     0.042 A 
HETATM   20  C   UNK N   1      20.137  18.417   2.083  0.00  0.00     0.068 A 
HETATM   21  C   UNK N   1      20.267  17.328   1.207  0.00  0.00     0.092 A 
HETATM   22  C   UNK N   1      20.457  16.039   1.711  0.00  0.00     0.039 A 
HETATM   23  C   UNK N   1      20.517  15.823   3.090  0.00  0.00     0.012 A 
BRANCH  20  24
HETATM   24  N   UNK N   1      19.938  19.724   1.542  0.00  0.00    -0.332 N 
HETATM   25  H   UNK N   1      19.007  20.013   1.407  0.00  0.00     0.168 HD
BRANCH  24  26
HETATM   26  C   UNK N   1      20.914  20.606   1.195  0.00  0.00     0.353 C 
HETATM   27  O   UNK N   1      21.281  20.740   0.039  0.00  0.00    -0.283 OA
ENDBRANCH  24  26
ENDBRANCH  20  24
BRANCH  21  28
HETATM   28  O   UNK N   1      20.203  17.515  -0.123  0.00  0.00    -0.358 OA
HETATM   29  H   UNK N   1      19.452  17.284  -0.632  0.00  0.00     0.217 HD
ENDBRANCH  21  28
ENDBRANCH   1  18
TORSDOF 11
ENDMDL
MODEL 4
REMARK VINA RESULT:      -6.3     11.444     13.228
REMARK  11 active torsions:
REMARK  status: ('A' for Active; 'I' for Inactive)
REMARK    1  A    between atoms: C_10  and  O_1 
REMARK    2  A    between atoms: O_2  and  C_23 
REMARK    3  A    between atoms: O_3  and  C_22 
REMARK    4  A    between atoms: C_7  and  N_5 
REMARK    5  A    between atoms: N_5  and  C_9 
REMARK    6  A    between atoms: N_6  and  C_18 
REMARK    7  A    between atoms: N_6  and  C_24 
REMARK    8  A    between atoms: C_7  and  C_8 
REMARK    9  A    between atoms: C_8  and  C_12 
REMARK   10  A    between atoms: C_9  and  C_10 
REMARK   11  A    between atoms: C_10  and  C_13 
ROOT
HETATM    1  C   UNK N   1      31.910  16.317   3.641  0.00  0.00     0.168 C 
ENDROOT
BRANCH   1   2
HETATM    2  O   UNK N   1      31.584  17.537   3.042  0.00  0.00    -0.389 OA
HETATM    3  H   UNK N   1      31.417  17.580   2.087  0.00  0.00     0.210 HD
ENDBRANCH   1   2
BRANCH   1   4
HETATM    4  C   UNK N   1      30.974  15.250   3.089  0.00  0.00     0.150 C 
BRANCH   4   5
HETATM    5  N   UNK N   1      29.871  15.835   2.338  0.00  0.00    -0.414 N 
HETATM    6  H   UNK N   1      29.927  16.562   1.625  0.00  0.00     0.153 HD
BRANCH   5   7
HETATM    7  C   UNK N   1      28.678  15.163   2.820  0.00  0.00     0.076 C 
HETATM    8  C   UNK N   1      28.182  14.126   1.827  0.00  0.00     0.032 C 
BRANCH   7   9
HETATM    9  C   UNK N   1      27.596  16.152   3.276  0.00  0.00     0.062 C 
BRANCH   9  10
HETATM   10  C   UNK N   1      27.752  16.795   4.628  0.00  0.00    -0.056 A 
HETATM   11  C   UNK N   1      28.436  18.013   4.700  0.00  0.00     0.010 A 
HETATM   12  C   UNK N   1      28.697  18.607   5.936  0.00  0.00     0.037 A 
HETATM   13  C   UNK N   1      28.271  17.987   7.124  0.00  0.00     0.068 A 
HETATM   14  C   UNK N   1      27.558  16.785   7.052  0.00  0.00     0.037 A 
HETATM   15  C   UNK N   1      27.303  16.189   5.812  0.00  0.00     0.010 A 
BRANCH  13  16
HETATM   16  O   UNK N   1      28.548  18.517   8.338  0.00  0.00    -0.356 OA
HETATM   17  C   UNK N   1      28.423  17.811   9.514  0.00  0.00     0.210 C 
ENDBRANCH  13  16
ENDBRANCH   9  10
ENDBRANCH   7   9
ENDBRANCH   5   7
ENDBRANCH   4   5
ENDBRANCH   1   4
BRANCH   1  18
HETATM   18  C   UNK N   1      31.849  16.425   5.148  0.00  0.00    -0.026 A 
HETATM   19  C   UNK N   1      32.617  17.379   5.834  0.00  0.00     0.042 A 
HETATM   20  C   UNK N   1      32.588  17.458   7.237  0.00  0.00     0.068 A 
HETATM   21  C   UNK N   1      31.778  16.564   7.953  0.00  0.00     0.092 A 
HETATM   22  C   UNK N   1      31.013  15.610   7.276  0.00  0.00     0.039 A 
HETATM   23  C   UNK N   1      31.051  15.539   5.881  0.00  0.00     0.012 A 
BRANCH  20  24
HETATM   24  N   UNK N   1      33.365  18.419   7.954  0.00  0.00    -0.332 N 
HETATM   25  H   UNK N   1      32.897  19.230   8.261  0.00  0.00     0.168 HD
BRANCH  24  26
HETATM   26  C   UNK N   1      34.688  18.321   8.252  0.00  0.00     0.353 C 
HETATM   27  O   UNK N   1      35.349  19.294   8.580  0.00  0.00    -0.283 OA
ENDBRANCH  24  26
ENDBRANCH  20  24
BRANCH  21  28
HETATM   28  O   UNK N   1      31.736  16.612   9.296  0.00  0.00    -0.358 OA
HETATM   29  H   UNK N   1      32.161  15.979   9.840  0.00  0.00     0.217 HD
ENDBRANCH  21  28
ENDBRANCH   1  18
TORSDOF 11
ENDMDL
MODEL 5
REMARK VINA RESULT:      -6.3      2.787      5.182
REMARK  11 active torsions:
REMARK  status: ('A' for Active; 'I' for Inactive)
REMARK    1  A    between atoms: C_10  and  O_1 
REMARK    2  A    between atoms: O_2  and  C_23 
REMARK    3  A    between atoms: O_3  and  C_22 
REMARK    4  A    between atoms: C_7  and  N_5 
REMARK    5  A    between atoms: N_5  and  C_9 
REMARK    6  A    between atoms: N_6  and  C_18 
REMARK    7  A    between atoms: N_6  and  C_24 
REMARK    8  A    between atoms: C_7  and  C_8 
REMARK    9  A    between atoms: C_8  and  C_12 
REMARK   10  A    between atoms: C_9  and  C_10 
REMARK   11  A    between atoms: C_10  and  C_13 
ROOT
HETATM    1  C   UNK N   1      29.089  27.459  -5.373  0.00  0.00     0.168 C 
ENDROOT
BRANCH   1   2
HETATM    2  O   UNK N   1      30.271  28.093  -4.980  0.00  0.00    -0.389 OA
HETATM    3  H   UNK N   1      30.734  27.803  -4.178  0.00  0.00     0.210 HD
ENDBRANCH   1   2
BRANCH   1   4
HETATM    4  C   UNK N   1      27.961  27.959  -4.479  0.00  0.00     0.150 C 
BRANCH   4   5
HETATM    5  N   UNK N   1      26.866  28.523  -5.255  0.00  0.00    -0.414 N 
HETATM    6  H   UNK N   1      26.936  29.120  -6.080  0.00  0.00     0.153 HD
BRANCH   5   7
HETATM    7  C   UNK N   1      25.654  28.057  -4.606  0.00  0.00     0.076 C 
HETATM    8  C   UNK N   1      25.951  27.428  -3.255  0.00  0.00     0.032 C 
BRANCH   7   9
HETATM    9  C   UNK N   1      24.801  27.174  -5.527  0.00  0.00     0.062 C 
BRANCH   9  10
HETATM   10  C   UNK N   1      25.401  25.884  -6.022  0.00  0.00    -0.056 A 
HETATM   11  C   UNK N   1      25.889  25.848  -7.331  0.00  0.00     0.010 A 
HETATM   12  C   UNK N   1      26.366  24.654  -7.876  0.00  0.00     0.037 A 
HETATM   13  C   UNK N   1      26.364  23.475  -7.111  0.00  0.00     0.068 A 
HETATM   14  C   UNK N   1      25.906  23.517  -5.790  0.00  0.00     0.037 A 
HETATM   15  C   UNK N   1      25.423  24.713  -5.247  0.00  0.00     0.010 A 
BRANCH  13  16
HETATM   16  O   UNK N   1      26.779  22.295  -7.628  0.00  0.00    -0.356 OA
HETATM   17  C   UNK N   1      25.947  21.441  -8.317  0.00  0.00     0.210 C 
ENDBRANCH  13  16
ENDBRANCH   9  10
ENDBRANCH   7   9
ENDBRANCH   5   7
ENDBRANCH   4   5
ENDBRANCH   1   4
BRANCH   1  18
HETATM   18  C   UNK N   1      29.245  25.956  -5.332  0.00  0.00    -0.026 A 
HETATM   19  C   UNK N   1      28.934  25.231  -4.171  0.00  0.00     0.042 A 
HETATM   20  C   UNK N   1      29.111  23.838  -4.119  0.00  0.00     0.068 A 
HETATM   21  C   UNK N   1      29.608  23.171  -5.250  0.00  0.00     0.092 A 
HETATM   22  C   UNK N   1      29.921  23.889  -6.408  0.00  0.00     0.039 A 
HETATM   23  C   UNK N   1      29.744  25.274  -6.448  0.00  0.00     0.012 A 
BRANCH  20  24
HETATM   24  N   UNK N   1      28.804  23.082  -2.947  0.00  0.00    -0.332 N 
HETATM   25  H   UNK N   1      28.001  22.513  -2.981  0.00  0.00     0.168 HD
BRANCH  24  26
HETATM   26  C   UNK N   1      29.514  23.075  -1.787  0.00  0.00     0.353 C 
HETATM   27  O   UNK N   1      30.727  22.933  -1.774  0.00  0.00    -0.283 OA
ENDBRANCH  24  26
ENDBRANCH  20  24
BRANCH  21  28
HETATM   28  O   UNK N   1      29.793  21.840  -5.227  0.00  0.00    -0.358 OA
HETATM   29  H   UNK N   1      30.165  21.392  -4.493  0.00  0.00     0.217 HD
ENDBRANCH  21  28
ENDBRANCH   1  18
TORSDOF 11
ENDMDL
MODEL 6
REMARK VINA RESULT:      -6.2      2.951      5.493
REMARK  11 active torsions:
REMARK  status: ('A' for Active; 'I' for Inactive)
REMARK    1  A    between atoms: C_10  and  O_1 
REMARK    2  A    between atoms: O_2  and  C_23 
REMARK    3  A    between atoms: O_3  and  C_22 
REMARK    4  A    between atoms: C_7  and  N_5 
REMARK    5  A    between atoms: N_5  and  C_9 
REMARK    6  A    between atoms: N_6  and  C_18 
REMARK    7  A    between atoms: N_6  and  C_24 
REMARK    8  A    between atoms: C_7  and  C_8 
REMARK    9  A    between atoms: C_8  and  C_12 
REMARK   10  A    between atoms: C_9  and  C_10 
REMARK   11  A    between atoms: C_10  and  C_13 
ROOT
HETATM    1  C   UNK N   1      30.727  28.084  -3.833  0.00  0.00     0.168 C 
ENDROOT
BRANCH   1   2
HETATM    2  O   UNK N   1      30.965  27.936  -2.463  0.00  0.00    -0.389 OA
HETATM    3  H   UNK N   1      30.558  27.201  -1.976  0.00  0.00     0.210 HD
ENDBRANCH   1   2
BRANCH   1   4
HETATM    4  C   UNK N   1      29.750  29.238  -4.024  0.00  0.00     0.150 C 
BRANCH   4   5
HETATM    5  N   UNK N   1      28.666  29.194  -3.053  0.00  0.00    -0.414 N 
HETATM    6  H   UNK N   1      28.747  29.107  -2.040  0.00  0.00     0.153 HD
BRANCH   5   7
HETATM    7  C   UNK N   1      27.446  29.300  -3.833  0.00  0.00     0.076 C 
HETATM    8  C   UNK N   1      26.952  30.736  -3.903  0.00  0.00     0.032 C 
BRANCH   7   9
HETATM    9  C   UNK N   1      26.375  28.298  -3.380  0.00  0.00     0.062 C 
BRANCH   9  10
HETATM   10  C   UNK N   1      26.216  27.028  -4.173  0.00  0.00    -0.056 A 
HETATM   11  C   UNK N   1      25.800  27.134  -5.503  0.00  0.00     0.010 A 
HETATM   12  C   UNK N   1      25.541  25.988  -6.258  0.00  0.00     0.037 A 
HETATM   13  C   UNK N   1      25.700  24.713  -5.687  0.00  0.00     0.068 A 
HETATM   14  C   UNK N   1      26.148  24.605  -4.366  0.00  0.00     0.037 A 
HETATM   15  C   UNK N   1      26.402  25.755  -3.610  0.00  0.00     0.010 A 
BRANCH  13  16
HETATM   16  O   UNK N   1      25.414  23.586  -6.380  0.00  0.00    -0.356 OA
HETATM   17  C   UNK N   1      25.702  23.432  -7.718  0.00  0.00     0.210 C 
ENDBRANCH  13  16
ENDBRANCH   9  10
ENDBRANCH   7   9
ENDBRANCH   5   7
ENDBRANCH   4   5
ENDBRANCH   1   4
BRANCH   1  18
HETATM   18  C   UNK N   1      30.228  26.790  -4.435  0.00  0.00    -0.026 A 
HETATM   19  C   UNK N   1      30.278  25.590  -3.708  0.00  0.00     0.042 A 
HETATM   20  C   UNK N   1      29.847  24.380  -4.279  0.00  0.00     0.068 A 
HETATM   21  C   UNK N   1      29.362  24.382  -5.596  0.00  0.00     0.092 A 
HETATM   22  C   UNK N   1      29.312  25.574  -6.324  0.00  0.00     0.039 A 
HETATM   23  C   UNK N   1      29.745  26.770  -5.749  0.00  0.00     0.012 A 
BRANCH  20  24
HETATM   24  N   UNK N   1      29.894  23.149  -3.557  0.00  0.00    -0.332 N 
HETATM   25  H   UNK N   1      30.175  22.349  -4.059  0.00  0.00     0.168 HD
BRANCH  24  26
HETATM   26  C   UNK N   1      29.586  22.975  -2.244  0.00  0.00     0.353 C 
HETATM   27  O   UNK N   1      30.444  22.975  -1.375  0.00  0.00    -0.283 OA
ENDBRANCH  24  26
ENDBRANCH  20  24
BRANCH  21  28
HETATM   28  O   UNK N   1      28.949  23.238  -6.169  0.00  0.00    -0.358 OA
HETATM   29  H   UNK N   1      28.231  23.203  -6.769  0.00  0.00     0.217 HD
ENDBRANCH  21  28
ENDBRANCH   1  18
TORSDOF 11
ENDMDL
MODEL 7
REMARK VINA RESULT:      -6.2     14.779     16.646
REMARK  11 active torsions:
REMARK  status: ('A' for Active; 'I' for Inactive)
REMARK    1  A    between atoms: C_10  and  O_1 
REMARK    2  A    between atoms: O_2  and  C_23 
REMARK    3  A    between atoms: O_3  and  C_22 
REMARK    4  A    between atoms: C_7  and  N_5 
REMARK    5  A    between atoms: N_5  and  C_9 
REMARK    6  A    between atoms: N_6  and  C_18 
REMARK    7  A    between atoms: N_6  and  C_24 
REMARK    8  A    between atoms: C_7  and  C_8 
REMARK    9  A    between atoms: C_8  and  C_12 
REMARK   10  A    between atoms: C_9  and  C_10 
REMARK   11  A    between atoms: C_10  and  C_13 
ROOT
HETATM    1  C   UNK N   1      20.538  16.051   3.289  0.00  0.00     0.168 C 
ENDROOT
BRANCH   1   2
HETATM    2  O   UNK N   1      19.378  15.728   2.579  0.00  0.00    -0.389 OA
HETATM    3  H   UNK N   1      19.402  15.035   1.900  0.00  0.00     0.210 HD
ENDBRANCH   1   2
BRANCH   1   4
HETATM    4  C   UNK N   1      20.337  15.639   4.742  0.00  0.00     0.150 C 
BRANCH   4   5
HETATM    5  N   UNK N   1      21.038  14.402   5.055  0.00  0.00    -0.414 N 
HETATM    6  H   UNK N   1      21.416  13.722   4.395  0.00  0.00     0.153 HD
BRANCH   5   7
HETATM    7  C   UNK N   1      21.083  14.341   6.505  0.00  0.00     0.076 C 
HETATM    8  C   UNK N   1      22.088  15.329   7.074  0.00  0.00     0.032 C 
BRANCH   7   9
HETATM    9  C   UNK N   1      21.262  12.907   7.023  0.00  0.00     0.062 C 
BRANCH   9  10
HETATM   10  C   UNK N   1      21.945  12.716   8.352  0.00  0.00    -0.056 A 
HETATM   11  C   UNK N   1      23.261  12.246   8.349  0.00  0.00     0.010 A 
HETATM   12  C   UNK N   1      23.911  11.957   9.551  0.00  0.00     0.037 A 
HETATM   13  C   UNK N   1      23.248  12.139  10.777  0.00  0.00     0.068 A 
HETATM   14  C   UNK N   1      21.942  12.640  10.781  0.00  0.00     0.037 A 
HETATM   15  C   UNK N   1      21.290  12.924   9.576  0.00  0.00     0.010 A 
BRANCH  13  16
HETATM   16  O   UNK N   1      23.838  11.826  11.955  0.00  0.00    -0.356 OA
HETATM   17  C   UNK N   1      23.186  11.899  13.166  0.00  0.00     0.210 C 
ENDBRANCH  13  16
ENDBRANCH   9  10
ENDBRANCH   7   9
ENDBRANCH   5   7
ENDBRANCH   4   5
ENDBRANCH   1   4
BRANCH   1  18
HETATM   18  C   UNK N   1      20.871  17.518   3.138  0.00  0.00    -0.026 A 
HETATM   19  C   UNK N   1      22.146  18.006   3.466  0.00  0.00     0.042 A 
HETATM   20  C   UNK N   1      22.446  19.374   3.359  0.00  0.00     0.068 A 
HETATM   21  C   UNK N   1      21.450  20.259   2.920  0.00  0.00     0.092 A 
HETATM   22  C   UNK N   1      20.178  19.779   2.594  0.00  0.00     0.039 A 
HETATM   23  C   UNK N   1      19.889  18.417   2.706  0.00  0.00     0.012 A 
BRANCH  20  24
HETATM   24  N   UNK N   1      23.736  19.890   3.691  0.00  0.00    -0.332 N 
HETATM   25  H   UNK N   1      23.855  20.240   4.604  0.00  0.00     0.168 HD
BRANCH  24  26
HETATM   26  C   UNK N   1      24.816  19.946   2.865  0.00  0.00     0.353 C 
HETATM   27  O   UNK N   1      24.991  20.877   2.095  0.00  0.00    -0.283 OA
ENDBRANCH  24  26
ENDBRANCH  20  24
BRANCH  21  28
HETATM   28  O   UNK N   1      21.707  21.574   2.814  0.00  0.00    -0.358 OA
HETATM   29  H   UNK N   1      21.092  22.233   3.068  0.00  0.00     0.217 HD
ENDBRANCH  21  28
ENDBRANCH   1  18
TORSDOF 11
ENDMDL
MODEL 8
REMARK VINA RESULT:      -6.2      2.456      7.338
REMARK  11 active torsions:
REMARK  status: ('A' for Active; 'I' for Inactive)
REMARK    1  A    between atoms: C_10  and  O_1 
REMARK    2  A    between atoms: O_2  and  C_23 
REMARK    3  A    between atoms: O_3  and  C_22 
REMARK    4  A    between atoms: C_7  and  N_5 
REMARK    5  A    between atoms: N_5  and  C_9 
REMARK    6  A    between atoms: N_6  and  C_18 
REMARK    7  A    between atoms: N_6  and  C_24 
REMARK    8  A    between atoms: C_7  and  C_8 
REMARK    9  A    between atoms: C_8  and  C_12 
REMARK   10  A    between atoms: C_9  and  C_10 
REMARK   11  A    between atoms: C_10  and  C_13 
ROOT
HETATM    1  C   UNK N   1      26.531  26.111  -8.171  0.00  0.00     0.168 C 
ENDROOT
BRANCH   1   2
HETATM    2  O   UNK N   1      25.650  26.514  -9.179  0.00  0.00    -0.389 OA
HETATM    3  H   UNK N   1      25.981  27.012  -9.943  0.00  0.00     0.210 HD
ENDBRANCH   1   2
BRANCH   1   4
HETATM    4  C   UNK N   1      26.334  24.619  -7.936  0.00  0.00     0.150 C 
BRANCH   4   5
HETATM    5  N   UNK N   1      27.574  23.966  -7.539  0.00  0.00    -0.414 N 
HETATM    6  H   UNK N   1      28.474  24.008  -8.016  0.00  0.00     0.153 HD
BRANCH   5   7
HETATM    7  C   UNK N   1      27.256  23.242  -6.321  0.00  0.00     0.076 C 
HETATM    8  C   UNK N   1      25.775  22.907  -6.243  0.00  0.00     0.032 C 
BRANCH   7   9
HETATM    9  C   UNK N   1      27.800  23.941  -5.068  0.00  0.00     0.062 C 
BRANCH   9  10
HETATM   10  C   UNK N   1      28.925  23.275  -4.320  0.00  0.00    -0.056 A 
HETATM   11  C   UNK N   1      29.042  23.529  -2.950  0.00  0.00     0.010 A 
HETATM   12  C   UNK N   1      30.121  23.018  -2.226  0.00  0.00     0.037 A 
HETATM   13  C   UNK N   1      31.100  22.239  -2.867  0.00  0.00     0.068 A 
HETATM   14  C   UNK N   1      30.966  21.958  -4.231  0.00  0.00     0.037 A 
HETATM   15  C   UNK N   1      29.887  22.475  -4.956  0.00  0.00     0.010 A 
BRANCH  13  16
HETATM   16  O   UNK N   1      32.179  21.768  -2.199  0.00  0.00    -0.356 OA
HETATM   17  C   UNK N   1      33.122  20.947  -2.776  0.00  0.00     0.210 C 
ENDBRANCH  13  16
ENDBRANCH   9  10
ENDBRANCH   7   9
ENDBRANCH   5   7
ENDBRANCH   4   5
ENDBRANCH   1   4
BRANCH   1  18
HETATM   18  C   UNK N   1      26.328  26.932  -6.919  0.00  0.00    -0.026 A 
HETATM   19  C   UNK N   1      27.235  27.944  -6.564  0.00  0.00     0.042 A 
HETATM   20  C   UNK N   1      27.067  28.684  -5.382  0.00  0.00     0.068 A 
HETATM   21  C   UNK N   1      25.974  28.400  -4.549  0.00  0.00     0.092 A 
HETATM   22  C   UNK N   1      25.069  27.394  -4.896  0.00  0.00     0.039 A 
HETATM   23  C   UNK N   1      25.247  26.661  -6.072  0.00  0.00     0.012 A 
BRANCH  20  24
HETATM   24  N   UNK N   1      27.981  29.714  -5.002  0.00  0.00    -0.332 N 
HETATM   25  H   UNK N   1      27.824  30.611  -5.380  0.00  0.00     0.168 HD
BRANCH  24  26
HETATM   26  C   UNK N   1      29.047  29.575  -4.169  0.00  0.00     0.353 C 
HETATM   27  O   UNK N   1      28.921  29.186  -3.019  0.00  0.00    -0.283 OA
ENDBRANCH  24  26
ENDBRANCH  20  24
BRANCH  21  28
HETATM   28  O   UNK N   1      25.792  29.089  -3.409  0.00  0.00    -0.358 OA
HETATM   29  H   UNK N   1      24.943  29.269  -3.055  0.00  0.00     0.217 HD
ENDBRANCH  21  28
ENDBRANCH   1  18
TORSDOF 11
ENDMDL
MODEL 9
REMARK VINA RESULT:      -6.1     19.456     23.366
REMARK  11 active torsions:
REMARK  status: ('A' for Active; 'I' for Inactive)
REMARK    1  A    between atoms: C_10  and  O_1 
REMARK    2  A    between atoms: O_2  and  C_23 
REMARK    3  A    between atoms: O_3  and  C_22 
REMARK    4  A    between atoms: C_7  and  N_5 
REMARK    5  A    between atoms: N_5  and  C_9 
REMARK    6  A    between atoms: N_6  and  C_18 
REMARK    7  A    between atoms: N_6  and  C_24 
REMARK    8  A    between atoms: C_7  and  C_8 
REMARK    9  A    between atoms: C_8  and  C_12 
REMARK   10  A    between atoms: C_9  and  C_10 
REMARK   11  A    between atoms: C_10  and  C_13 
ROOT
HETATM    1  C   UNK N   1      36.799  13.915  11.892  0.00  0.00     0.168 C 
ENDROOT
BRANCH   1   2
HETATM    2  O   UNK N   1      37.987  13.283  11.513  0.00  0.00    -0.389 OA
HETATM    3  H   UNK N   1      38.309  12.515  12.012  0.00  0.00     0.210 HD
ENDBRANCH   1   2
BRANCH   1   4
HETATM    4  C   UNK N   1      36.006  12.953  12.767  0.00  0.00     0.150 C 
BRANCH   4   5
HETATM    5  N   UNK N   1      36.646  12.746  14.059  0.00  0.00    -0.414 N 
HETATM    6  H   UNK N   1      37.373  12.069  14.287  0.00  0.00     0.153 HD
BRANCH   5   7
HETATM    7  C   UNK N   1      36.027  13.709  14.954  0.00  0.00     0.076 C 
HETATM    8  C   UNK N   1      37.067  14.467  15.762  0.00  0.00     0.032 C 
BRANCH   7   9
HETATM    9  C   UNK N   1      34.915  13.082  15.806  0.00  0.00     0.062 C 
BRANCH   9  10
HETATM   10  C   UNK N   1      35.306  12.414  17.097  0.00  0.00    -0.056 A 
HETATM   11  C   UNK N   1      35.827  11.118  17.033  0.00  0.00     0.010 A 
HETATM   12  C   UNK N   1      36.115  10.413  18.204  0.00  0.00     0.037 A 
HETATM   13  C   UNK N   1      35.887  11.002  19.460  0.00  0.00     0.068 A 
HETATM   14  C   UNK N   1      35.397  12.310  19.524  0.00  0.00     0.037 A 
HETATM   15  C   UNK N   1      35.104  13.013  18.351  0.00  0.00     0.010 A 
BRANCH  13  16
HETATM   16  O   UNK N   1      36.116  10.326  20.610  0.00  0.00    -0.356 OA
HETATM   17  C   UNK N   1      35.112   9.751  21.358  0.00  0.00     0.210 C 
ENDBRANCH  13  16
ENDBRANCH   9  10
ENDBRANCH   7   9
ENDBRANCH   5   7
ENDBRANCH   4   5
ENDBRANCH   1   4
BRANCH   1  18
HETATM   18  C   UNK N   1      36.024  14.375  10.678  0.00  0.00    -0.026 A 
HETATM   19  C   UNK N   1      35.563  15.698  10.575  0.00  0.00     0.042 A 
HETATM   20  C   UNK N   1      34.812  16.118   9.465  0.00  0.00     0.068 A 
HETATM   21  C   UNK N   1      34.522  15.194   8.449  0.00  0.00     0.092 A 
HETATM   22  C   UNK N   1      34.976  13.876   8.547  0.00  0.00     0.039 A 
HETATM   23  C   UNK N   1      35.719  13.467   9.657  0.00  0.00     0.012 A 
BRANCH  20  24
HETATM   24  N   UNK N   1      34.332  17.457   9.343  0.00  0.00    -0.332 N 
HETATM   25  H   UNK N   1      33.726  17.779  10.050  0.00  0.00     0.168 HD
BRANCH  24  26
HETATM   26  C   UNK N   1      34.632  18.330   8.344  0.00  0.00     0.353 C 
HETATM   27  O   UNK N   1      35.340  19.307   8.532  0.00  0.00    -0.283 OA
ENDBRANCH  24  26
ENDBRANCH  20  24
BRANCH  21  28
HETATM   28  O   UNK N   1      33.800  15.566   7.378  0.00  0.00    -0.358 OA
HETATM   29  H   UNK N   1      33.328  14.956   6.847  0.00  0.00     0.217 HD
ENDBRANCH  21  28
ENDBRANCH   1  18
TORSDOF 11
ENDMDL
