MODEL 1
REMARK VINA RESULT:      -5.6      0.000      0.000
REMARK  2 active torsions:
REMARK  status: ('A' for Active; 'I' for Inactive)
REMARK    1  A    between atoms: N_1  and  N_6 
REMARK    2  A    between atoms: N_1  and  C_9 
ROOT
HETATM    1  N   UNK N   1      35.551  12.997  20.067  0.00  0.00    -0.284 N 
ATOM      2  HN  UNK N   1      35.692  13.669  20.821  1.00  0.00     0.188 HD
HETATM    3  N   UNK N   1      35.642  11.690  20.332  0.00  0.00    -0.309 N 
ATOM      4  HN  UNK N   1      35.851  11.388  21.284  1.00  0.00     0.186 HD
HETATM    5  C   UNK N   1      35.079  12.532  17.779  0.00  0.00     0.022 A 
HETATM    6  C   UNK N   1      35.176  11.159  18.062  0.00  0.00    -0.005 A 
HETATM    7  C   UNK N   1      35.273  13.453  18.813  0.00  0.00     0.145 A 
HETATM    8  C   UNK N   1      34.792  12.955  16.474  0.00  0.00     0.016 A 
HETATM    9  C   UNK N   1      34.986  10.218  17.046  0.00  0.00     0.014 A 
HETATM   10  C   UNK N   1      34.602  12.013  15.459  0.00  0.00     0.001 A 
HETATM   11  C   UNK N   1      35.461  10.753  19.363  0.00  0.00     0.119 A 
HETATM   12  C   UNK N   1      34.699  10.647  15.745  0.00  0.00     0.001 A 
ENDROOT
BRANCH   7  13
HETATM   13  N   UNK N   1      35.182  14.843  18.557  0.00  0.00    -0.290 N 
HETATM   14  H   UNK N   1      34.302  15.282  18.577  0.00  0.00     0.188 HD
BRANCH  13  15
HETATM   15  N   UNK N   1      36.312  15.595  18.280  0.00  0.00    -0.344 N 
HETATM   16  H   UNK N   1      36.404  16.538  18.660  0.00  0.00     0.176 HD
HETATM   17  H   UNK N   1      37.054  15.208  17.695  0.00  0.00     0.176 HD
ENDBRANCH  13  15
ENDBRANCH   7  13
TORSDOF 2
ENDMDL
MODEL 2
REMARK VINA RESULT:      -5.3     18.975     20.288
REMARK  2 active torsions:
REMARK  status: ('A' for Active; 'I' for Inactive)
REMARK    1  A    between atoms: N_1  and  N_6 
REMARK    2  A    between atoms: N_1  and  C_9 
ROOT
HETATM    1  N   UNK N   1      45.634  23.188   3.365  0.00  0.00    -0.284 N 
ATOM      2  HN  UNK N   1      46.474  23.763   3.413  1.00  0.00     0.188 HD
HETATM    3  N   UNK N   1      45.611  22.011   3.998  0.00  0.00    -0.309 N 
ATOM      4  HN  UNK N   1      46.435  21.709   4.518  1.00  0.00     0.186 HD
HETATM    5  C   UNK N   1      43.407  22.851   2.589  0.00  0.00     0.022 A 
HETATM    6  C   UNK N   1      43.387  21.613   3.256  0.00  0.00    -0.005 A 
HETATM    7  C   UNK N   1      44.560  23.638   2.656  0.00  0.00     0.145 A 
HETATM    8  C   UNK N   1      42.279  23.272   1.873  0.00  0.00     0.016 A 
HETATM    9  C   UNK N   1      42.247  20.807   3.205  0.00  0.00     0.014 A 
HETATM   10  C   UNK N   1      41.140  22.466   1.822  0.00  0.00     0.001 A 
HETATM   11  C   UNK N   1      44.514  21.206   3.964  0.00  0.00     0.119 A 
HETATM   12  C   UNK N   1      41.123  21.235   2.487  0.00  0.00     0.001 A 
ENDROOT
BRANCH   7  13
HETATM   13  N   UNK N   1      44.609  24.889   1.994  0.00  0.00    -0.290 N 
HETATM   14  H   UNK N   1      44.133  25.004   1.140  0.00  0.00     0.188 HD
BRANCH  13  15
HETATM   15  N   UNK N   1      45.316  25.955   2.527  0.00  0.00    -0.344 N 
HETATM   16  H   UNK N   1      44.914  26.505   3.286  0.00  0.00     0.176 HD
HETATM   17  H   UNK N   1      46.239  26.190   2.161  0.00  0.00     0.176 HD
ENDBRANCH  13  15
ENDBRANCH   7  13
TORSDOF 2
ENDMDL
MODEL 3
REMARK VINA RESULT:      -5.2     14.324     15.386
REMARK  2 active torsions:
REMARK  status: ('A' for Active; 'I' for Inactive)
REMARK    1  A    between atoms: N_1  and  N_6 
REMARK    2  A    between atoms: N_1  and  C_9 
ROOT
HETATM    1  N   UNK N   1      22.870  11.657  11.663  0.00  0.00    -0.284 N 
ATOM      2  HN  UNK N   1      23.544  11.087  12.172  1.00  0.00     0.188 HD
HETATM    3  N   UNK N   1      21.593  11.667  12.059  0.00  0.00    -0.309 N 
ATOM      4  HN  UNK N   1      21.316  11.105  12.863  1.00  0.00     0.186 HD
HETATM    5  C   UNK N   1      22.368  13.173   9.896  0.00  0.00     0.022 A 
HETATM    6  C   UNK N   1      21.026  13.181  10.315  0.00  0.00    -0.005 A 
HETATM    7  C   UNK N   1      23.292  12.391  10.595  0.00  0.00     0.145 A 
HETATM    8  C   UNK N   1      22.756  13.943   8.792  0.00  0.00     0.016 A 
HETATM    9  C   UNK N   1      20.083  13.955   9.633  0.00  0.00     0.014 A 
HETATM   10  C   UNK N   1      21.812  14.716   8.111  0.00  0.00     0.001 A 
HETATM   11  C   UNK N   1      20.654  12.411  11.413  0.00  0.00     0.119 A 
HETATM   12  C   UNK N   1      20.478  14.722   8.531  0.00  0.00     0.001 A 
ENDROOT
BRANCH   7  13
HETATM   13  N   UNK N   1      24.650  12.363  10.195  0.00  0.00    -0.290 N 
HETATM   14  H   UNK N   1      24.933  11.742   9.485  0.00  0.00     0.188 HD
BRANCH  13  15
HETATM   15  N   UNK N   1      25.588  13.195  10.786  0.00  0.00    -0.344 N 
HETATM   16  H   UNK N   1      26.058  13.909  10.231  0.00  0.00     0.176 HD
HETATM   17  H   UNK N   1      25.808  13.093  11.777  0.00  0.00     0.176 HD
ENDBRANCH  13  15
ENDBRANCH   7  13
TORSDOF 2
ENDMDL
MODEL 4
REMARK VINA RESULT:      -5.2      3.832      5.055
REMARK  2 active torsions:
REMARK  status: ('A' for Active; 'I' for Inactive)
REMARK    1  A    between atoms: N_1  and  N_6 
REMARK    2  A    between atoms: N_1  and  C_9 
ROOT
HETATM    1  N   UNK N   1      36.157  14.474  13.122  0.00  0.00    -0.284 N 
ATOM      2  HN  UNK N   1      36.271  15.120  12.342  1.00  0.00     0.188 HD
HETATM    3  N   UNK N   1      36.862  14.670  14.241  0.00  0.00    -0.309 N 
ATOM      4  HN  UNK N   1      37.502  15.462  14.294  1.00  0.00     0.186 HD
HETATM    5  C   UNK N   1      35.130  12.545  14.070  0.00  0.00     0.022 A 
HETATM    6  C   UNK N   1      35.874  12.755  15.245  0.00  0.00    -0.005 A 
HETATM    7  C   UNK N   1      35.288  13.431  13.000  0.00  0.00     0.145 A 
HETATM    8  C   UNK N   1      34.249  11.458  13.990  0.00  0.00     0.016 A 
HETATM    9  C   UNK N   1      35.734  11.883  16.328  0.00  0.00     0.014 A 
HETATM   10  C   UNK N   1      34.110  10.588  15.074  0.00  0.00     0.001 A 
HETATM   11  C   UNK N   1      36.746  13.838  15.311  0.00  0.00     0.119 A 
HETATM   12  C   UNK N   1      34.852  10.800  16.241  0.00  0.00     0.001 A 
ENDROOT
BRANCH   7  13
HETATM   13  N   UNK N   1      34.552  13.244  11.805  0.00  0.00    -0.290 N 
HETATM   14  H   UNK N   1      34.373  12.331  11.484  0.00  0.00     0.188 HD
BRANCH  13  15
HETATM   15  N   UNK N   1      34.080  14.325  11.078  0.00  0.00    -0.344 N 
HETATM   16  H   UNK N   1      34.620  14.688  10.293  0.00  0.00     0.176 HD
HETATM   17  H   UNK N   1      33.191  14.760  11.329  0.00  0.00     0.176 HD
ENDBRANCH  13  15
ENDBRANCH   7  13
TORSDOF 2
ENDMDL
MODEL 5
REMARK VINA RESULT:      -5.2      3.499      4.226
REMARK  2 active torsions:
REMARK  status: ('A' for Active; 'I' for Inactive)
REMARK    1  A    between atoms: N_1  and  N_6 
REMARK    2  A    between atoms: N_1  and  C_9 
ROOT
HETATM    1  N   UNK N   1      37.535  12.377  13.616  0.00  0.00    -0.284 N 
ATOM      2  HN  UNK N   1      37.932  12.748  12.753  1.00  0.00     0.188 HD
HETATM    3  N   UNK N   1      37.674  11.077  13.892  0.00  0.00    -0.309 N 
ATOM      4  HN  UNK N   1      38.175  10.479  13.235  1.00  0.00     0.186 HD
HETATM    5  C   UNK N   1      36.330  12.711  15.643  0.00  0.00     0.022 A 
HETATM    6  C   UNK N   1      36.479  11.343  15.930  0.00  0.00    -0.005 A 
HETATM    7  C   UNK N   1      36.874  13.219  14.460  0.00  0.00     0.145 A 
HETATM    8  C   UNK N   1      35.642  13.538  16.541  0.00  0.00     0.016 A 
HETATM    9  C   UNK N   1      35.944  10.810  17.106  0.00  0.00     0.014 A 
HETATM   10  C   UNK N   1      35.108  13.005  17.717  0.00  0.00     0.001 A 
HETATM   11  C   UNK N   1      37.164  10.532  15.029  0.00  0.00     0.119 A 
HETATM   12  C   UNK N   1      35.258  11.643  17.999  0.00  0.00     0.001 A 
ENDROOT
BRANCH   7  13
HETATM   13  N   UNK N   1      36.739  14.593  14.145  0.00  0.00    -0.290 N 
HETATM   14  H   UNK N   1      36.887  15.267  14.847  0.00  0.00     0.188 HD
BRANCH  13  15
HETATM   15  N   UNK N   1      36.403  15.005  12.866  0.00  0.00    -0.344 N 
HETATM   16  H   UNK N   1      37.135  15.191  12.180  0.00  0.00     0.176 HD
HETATM   17  H   UNK N   1      35.422  15.123  12.609  0.00  0.00     0.176 HD
ENDBRANCH  13  15
ENDBRANCH   7  13
TORSDOF 2
ENDMDL
MODEL 6
REMARK VINA RESULT:      -5.1     20.360     21.791
REMARK  2 active torsions:
REMARK  status: ('A' for Active; 'I' for Inactive)
REMARK    1  A    between atoms: N_1  and  N_6 
REMARK    2  A    between atoms: N_1  and  C_9 
ROOT
HETATM    1  N   UNK N   1      19.229  18.948   2.350  0.00  0.00    -0.284 N 
ATOM      2  HN  UNK N   1      18.387  19.240   1.854  1.00  0.00     0.188 HD
HETATM    3  N   UNK N   1      19.215  17.806   3.045  0.00  0.00    -0.309 N 
ATOM      4  HN  UNK N   1      18.362  17.247   3.067  1.00  0.00     0.186 HD
HETATM    5  C   UNK N   1      21.497  19.334   2.968  0.00  0.00     0.022 A 
HETATM    6  C   UNK N   1      21.478  18.132   3.698  0.00  0.00    -0.005 A 
HETATM    7  C   UNK N   1      20.342  19.733   2.289  0.00  0.00     0.145 A 
HETATM    8  C   UNK N   1      22.664  20.108   2.934  0.00  0.00     0.016 A 
HETATM    9  C   UNK N   1      22.619  17.712   4.386  0.00  0.00     0.014 A 
HETATM   10  C   UNK N   1      23.805  19.686   3.622  0.00  0.00     0.001 A 
HETATM   11  C   UNK N   1      20.311  17.373   3.724  0.00  0.00     0.119 A 
HETATM   12  C   UNK N   1      23.782  18.490   4.347  0.00  0.00     0.001 A 
ENDROOT
BRANCH   7  13
HETATM   13  N   UNK N   1      20.332  20.938   1.545  0.00  0.00    -0.290 N 
HETATM   14  H   UNK N   1      20.198  21.794   2.013  0.00  0.00     0.188 HD
BRANCH  13  15
HETATM   15  N   UNK N   1      20.508  20.934   0.171  0.00  0.00    -0.344 N 
HETATM   16  H   UNK N   1      19.818  21.381  -0.433  0.00  0.00     0.176 HD
HETATM   17  H   UNK N   1      21.327  20.483  -0.238  0.00  0.00     0.176 HD
ENDBRANCH  13  15
ENDBRANCH   7  13
TORSDOF 2
ENDMDL
MODEL 7
REMARK VINA RESULT:      -5.1     11.077     12.510
REMARK  2 active torsions:
REMARK  status: ('A' for Active; 'I' for Inactive)
REMARK    1  A    between atoms: N_1  and  N_6 
REMARK    2  A    between atoms: N_1  and  C_9 
ROOT
HETATM    1  N   UNK N   1      33.057  17.216   9.151  0.00  0.00    -0.284 N 
ATOM      2  HN  UNK N   1      33.044  17.149  10.168  1.00  0.00     0.188 HD
HETATM    3  N   UNK N   1      34.230  17.341   8.520  0.00  0.00    -0.309 N 
ATOM      4  HN  UNK N   1      35.089  17.366   9.068  1.00  0.00     0.186 HD
HETATM    5  C   UNK N   1      31.897  17.269   7.071  0.00  0.00     0.022 A 
HETATM    6  C   UNK N   1      33.131  17.400   6.412  0.00  0.00    -0.005 A 
HETATM    7  C   UNK N   1      31.879  17.177   8.466  0.00  0.00     0.145 A 
HETATM    8  C   UNK N   1      30.711  17.233   6.326  0.00  0.00     0.016 A 
HETATM    9  C   UNK N   1      33.176  17.493   5.018  0.00  0.00     0.014 A 
HETATM   10  C   UNK N   1      30.757  17.327   4.932  0.00  0.00     0.001 A 
HETATM   11  C   UNK N   1      34.302  17.434   7.165  0.00  0.00     0.119 A 
HETATM   12  C   UNK N   1      31.987  17.457   4.280  0.00  0.00     0.001 A 
ENDROOT
BRANCH   7  13
HETATM   13  N   UNK N   1      30.650  17.045   9.157  0.00  0.00    -0.290 N 
HETATM   14  H   UNK N   1      30.186  16.177   9.157  0.00  0.00     0.188 HD
BRANCH  13  15
HETATM   15  N   UNK N   1      30.090  18.116   9.833  0.00  0.00    -0.344 N 
HETATM   16  H   UNK N   1      29.353  18.669   9.394  0.00  0.00     0.176 HD
HETATM   17  H   UNK N   1      30.414  18.354  10.772  0.00  0.00     0.176 HD
ENDBRANCH  13  15
ENDBRANCH   7  13
TORSDOF 2
ENDMDL
MODEL 8
REMARK VINA RESULT:      -5.1     18.170     19.833
REMARK  2 active torsions:
REMARK  status: ('A' for Active; 'I' for Inactive)
REMARK    1  A    between atoms: N_1  and  N_6 
REMARK    2  A    between atoms: N_1  and  C_9 
ROOT
HETATM    1  N   UNK N   1      43.847  23.830   2.502  0.00  0.00    -0.284 N 
ATOM      2  HN  UNK N   1      44.681  24.366   2.741  1.00  0.00     0.188 HD
HETATM    3  N   UNK N   1      43.076  24.240   1.489  0.00  0.00    -0.309 N 
ATOM      4  HN  UNK N   1      43.335  25.081   0.974  1.00  0.00     0.186 HD
HETATM    5  C   UNK N   1      42.402  21.978   2.894  0.00  0.00     0.022 A 
HETATM    6  C   UNK N   1      41.594  22.412   1.829  0.00  0.00    -0.005 A 
HETATM    7  C   UNK N   1      43.545  22.713   3.222  0.00  0.00     0.145 A 
HETATM    8  C   UNK N   1      42.052  20.823   3.606  0.00  0.00     0.016 A 
HETATM    9  C   UNK N   1      40.446  21.694   1.481  0.00  0.00     0.014 A 
HETATM   10  C   UNK N   1      40.904  20.106   3.258  0.00  0.00     0.001 A 
HETATM   11  C   UNK N   1      41.953  23.561   1.130  0.00  0.00     0.119 A 
HETATM   12  C   UNK N   1      40.103  20.541   2.197  0.00  0.00     0.001 A 
ENDROOT
BRANCH   7  13
HETATM   13  N   UNK N   1      44.378  22.299   4.290  0.00  0.00    -0.290 N 
HETATM   14  H   UNK N   1      43.970  22.023   5.142  0.00  0.00     0.188 HD
BRANCH  13  15
HETATM   15  N   UNK N   1      45.756  22.277   4.156  0.00  0.00    -0.344 N 
HETATM   16  H   UNK N   1      46.180  22.281   3.228  0.00  0.00     0.176 HD
HETATM   17  H   UNK N   1      46.350  22.256   4.986  0.00  0.00     0.176 HD
ENDBRANCH  13  15
ENDBRANCH   7  13
TORSDOF 2
ENDMDL
MODEL 9
REMARK VINA RESULT:      -5.1     10.799     12.482
REMARK  2 active torsions:
REMARK  status: ('A' for Active; 'I' for Inactive)
REMARK    1  A    between atoms: N_1  and  N_6 
REMARK    2  A    between atoms: N_1  and  C_9 
ROOT
HETATM    1  N   UNK N   1      31.758  17.213   9.183  0.00  0.00    -0.284 N 
ATOM      2  HN  UNK N   1      31.961  17.218  10.182  1.00  0.00     0.188 HD
HETATM    3  N   UNK N   1      30.496  17.048   8.774  0.00  0.00    -0.309 N 
ATOM      4  HN  UNK N   1      29.759  16.930   9.469  1.00  0.00     0.186 HD
HETATM    5  C   UNK N   1      32.503  17.367   6.926  0.00  0.00     0.022 A 
HETATM    6  C   UNK N   1      31.174  17.193   6.500  0.00  0.00    -0.005 A 
HETATM    7  C   UNK N   1      32.780  17.374   8.296  0.00  0.00     0.145 A 
HETATM    8  C   UNK N   1      33.521  17.529   5.977  0.00  0.00     0.016 A 
HETATM    9  C   UNK N   1      30.870  17.182   5.136  0.00  0.00     0.014 A 
HETATM   10  C   UNK N   1      33.216  17.518   4.614  0.00  0.00     0.001 A 
HETATM   11  C   UNK N   1      30.172  17.033   7.453  0.00  0.00     0.119 A 
HETATM   12  C   UNK N   1      31.893  17.345   4.194  0.00  0.00     0.001 A 
ENDROOT
BRANCH   7  13
HETATM   13  N   UNK N   1      34.109  17.548   8.754  0.00  0.00    -0.290 N 
HETATM   14  H   UNK N   1      34.763  18.006   8.179  0.00  0.00     0.188 HD
BRANCH  13  15
HETATM   15  N   UNK N   1      34.505  17.082   9.997  0.00  0.00    -0.344 N 
HETATM   16  H   UNK N   1      34.997  17.701  10.641  0.00  0.00     0.176 HD
HETATM   17  H   UNK N   1      34.303  16.120  10.270  0.00  0.00     0.176 HD
ENDBRANCH  13  15
ENDBRANCH   7  13
TORSDOF 2
ENDMDL
