MODEL 1
REMARK VINA RESULT:      -6.4      0.000      0.000
REMARK  6 active torsions:
REMARK  status: ('A' for Active; 'I' for Inactive)
REMARK    1  A    between atoms: C_14  and  O_2 
REMARK    2  A    between atoms: C_16  and  O_3 
REMARK    3  A    between atoms: O_4  and  C_18 
REMARK    4  A    between atoms: O_5  and  C_22 
REMARK    5  A    between atoms: C_15  and  N_6 
REMARK       I    between atoms: N_13  and  C_23 
REMARK    6  A    between atoms: C_17  and  C_18 
ROOT
HETATM    1  N   UNK N   1      33.012  15.044   8.657  0.00  0.00    -0.297 N 
HETATM    2  N   UNK N   1      32.147  14.702   6.607  0.00  0.00    -0.346 N 
ATOM      3  HN  UNK N   1      31.978  14.320   5.676  1.00  0.00     0.167 HD
HETATM    4  N   UNK N   1      31.534  16.854   9.290  0.00  0.00    -0.174 N 
ATOM      5  HN  UNK N   1      31.946  16.988  10.214  1.00  0.00     0.186 HD
HETATM    6  N   UNK N   1      29.973  17.470   7.604  0.00  0.00    -0.168 N 
ATOM      7  HN  UNK N   1      29.213  18.073   7.294  1.00  0.00     0.186 HD
HETATM    8  N   UNK N   1      30.006  18.662   9.696  0.00  0.00    -0.234 N 
HETATM    9  C   UNK N   1      31.990  15.886   8.457  0.00  0.00     0.157 A 
HETATM   10  C   UNK N   1      33.103  14.327   7.503  0.00  0.00     0.188 A 
HETATM   11  C   UNK N   1      31.476  15.692   7.228  0.00  0.00     0.130 A 
HETATM   12  C   UNK N   1      30.447  16.493   6.764  0.00  0.00     0.188 A 
HETATM   13  C   UNK N   1      30.507  17.645   8.858  0.00  0.00     0.679 A 
HETATM   14  H   UNK N   1      30.351  18.758  10.613  0.00  0.00     0.174 HD
HETATM   15  H   UNK N   1      29.312  19.276   9.364  0.00  0.00     0.174 HD
ENDROOT
BRANCH   1  16
HETATM   16  C   UNK N   1      33.940  15.012   9.791  0.00  0.00     0.262 C 
HETATM   17  O   UNK N   1      34.569  13.756   9.924  0.00  0.00    -0.353 OA
HETATM   18  C   UNK N   1      35.851  14.033  10.443  0.00  0.00     0.179 C 
HETATM   19  C   UNK N   1      35.868  15.497  10.832  0.00  0.00     0.182 C 
HETATM   20  C   UNK N   1      35.027  16.056   9.741  0.00  0.00     0.198 C 
BRANCH  18  21
HETATM   21  C   UNK N   1      36.129  13.136  11.638  0.00  0.00     0.198 C 
BRANCH  21  22
HETATM   22  O   UNK N   1      37.178  13.649  12.401  0.00  0.00    -0.398 OA
HETATM   23  H   UNK N   1      37.403  14.590  12.468  0.00  0.00     0.209 HD
ENDBRANCH  21  22
ENDBRANCH  18  21
BRANCH  19  24
HETATM   24  O   UNK N   1      37.156  16.029  10.827  0.00  0.00    -0.390 OA
HETATM   25  H   UNK N   1      38.015  15.652  10.579  0.00  0.00     0.210 HD
ENDBRANCH  19  24
BRANCH  20  26
HETATM   26  O   UNK N   1      34.532  17.312  10.094  0.00  0.00    -0.388 OA
HETATM   27  H   UNK N   1      34.932  17.939  10.717  0.00  0.00     0.210 HD
ENDBRANCH  20  26
ENDBRANCH   1  16
BRANCH  12  28
HETATM   28  O   UNK N   1      29.954  16.337   5.516  0.00  0.00    -0.339 OA
HETATM   29  C   UNK N   1      30.361  17.123   4.463  0.00  0.00     0.211 C 
ENDBRANCH  12  28
TORSDOF 6
ENDMDL
MODEL 2
REMARK VINA RESULT:      -6.3      2.577      6.541
REMARK  6 active torsions:
REMARK  status: ('A' for Active; 'I' for Inactive)
REMARK    1  A    between atoms: C_14  and  O_2 
REMARK    2  A    between atoms: C_16  and  O_3 
REMARK    3  A    between atoms: O_4  and  C_18 
REMARK    4  A    between atoms: O_5  and  C_22 
REMARK    5  A    between atoms: C_15  and  N_6 
REMARK       I    between atoms: N_13  and  C_23 
REMARK    6  A    between atoms: C_17  and  C_18 
ROOT
HETATM    1  N   UNK N   1      31.337  16.394   7.433  0.00  0.00    -0.297 N 
HETATM    2  N   UNK N   1      32.188  14.439   6.714  0.00  0.00    -0.346 N 
ATOM      3  HN  UNK N   1      32.314  13.564   6.204  1.00  0.00     0.167 HD
HETATM    4  N   UNK N   1      33.098  16.906   9.014  0.00  0.00    -0.174 N 
ATOM      5  HN  UNK N   1      32.689  17.788   9.323  1.00  0.00     0.186 HD
HETATM    6  N   UNK N   1      34.795  15.245   9.149  0.00  0.00    -0.168 N 
ATOM      7  HN  UNK N   1      35.662  14.911   9.570  1.00  0.00     0.186 HD
HETATM    8  N   UNK N   1      34.915  17.193  10.559  0.00  0.00    -0.234 N 
HETATM    9  C   UNK N   1      32.500  16.158   8.054  0.00  0.00     0.157 A 
HETATM   10  C   UNK N   1      31.153  15.321   6.617  0.00  0.00     0.188 A 
HETATM   11  C   UNK N   1      33.008  14.984   7.633  0.00  0.00     0.130 A 
HETATM   12  C   UNK N   1      34.179  14.490   8.183  0.00  0.00     0.188 A 
HETATM   13  C   UNK N   1      34.264  16.444   9.558  0.00  0.00     0.679 A 
HETATM   14  H   UNK N   1      34.565  18.076  10.817  0.00  0.00     0.174 HD
HETATM   15  H   UNK N   1      35.718  16.833  10.999  0.00  0.00     0.174 HD
ENDROOT
BRANCH   1  16
HETATM   16  C   UNK N   1      30.384  17.478   7.695  0.00  0.00     0.262 C 
HETATM   17  O   UNK N   1      29.535  17.711   6.593  0.00  0.00    -0.353 OA
HETATM   18  C   UNK N   1      28.308  18.132   7.150  0.00  0.00     0.179 C 
HETATM   19  C   UNK N   1      28.545  18.362   8.628  0.00  0.00     0.182 C 
HETATM   20  C   UNK N   1      29.506  17.261   8.902  0.00  0.00     0.198 C 
BRANCH  18  21
HETATM   21  C   UNK N   1      27.836  19.401   6.458  0.00  0.00     0.198 C 
BRANCH  21  22
HETATM   22  O   UNK N   1      26.972  20.116   7.286  0.00  0.00    -0.398 OA
HETATM   23  H   UNK N   1      27.059  21.060   7.490  0.00  0.00     0.209 HD
ENDBRANCH  21  22
ENDBRANCH  18  21
BRANCH  19  24
HETATM   24  O   UNK N   1      27.375  18.235   9.375  0.00  0.00    -0.390 OA
HETATM   25  H   UNK N   1      26.982  18.789  10.069  0.00  0.00     0.210 HD
ENDBRANCH  19  24
BRANCH  20  26
HETATM   26  O   UNK N   1      30.209  17.504  10.082  0.00  0.00    -0.388 OA
HETATM   27  H   UNK N   1      30.563  16.839  10.694  0.00  0.00     0.210 HD
ENDBRANCH  20  26
ENDBRANCH   1  16
BRANCH  12  28
HETATM   28  O   UNK N   1      34.674  13.293   7.801  0.00  0.00    -0.339 OA
HETATM   29  C   UNK N   1      35.024  12.321   8.709  0.00  0.00     0.211 C 
ENDBRANCH  12  28
TORSDOF 6
ENDMDL
MODEL 3
REMARK VINA RESULT:      -6.2      2.848      4.191
REMARK  6 active torsions:
REMARK  status: ('A' for Active; 'I' for Inactive)
REMARK    1  A    between atoms: C_14  and  O_2 
REMARK    2  A    between atoms: C_16  and  O_3 
REMARK    3  A    between atoms: O_4  and  C_18 
REMARK    4  A    between atoms: O_5  and  C_22 
REMARK    5  A    between atoms: C_15  and  N_6 
REMARK       I    between atoms: N_13  and  C_23 
REMARK    6  A    between atoms: C_17  and  C_18 
ROOT
HETATM    1  N   UNK N   1      31.104  17.007   5.919  0.00  0.00    -0.297 N 
HETATM    2  N   UNK N   1      29.912  17.536   4.085  0.00  0.00    -0.346 N 
ATOM      3  HN  UNK N   1      29.628  17.654   3.112  1.00  0.00     0.167 HD
HETATM    4  N   UNK N   1      29.469  17.746   7.544  0.00  0.00    -0.174 N 
ATOM      5  HN  UNK N   1      30.032  17.497   8.358  1.00  0.00     0.186 HD
HETATM    6  N   UNK N   1      27.499  18.674   6.588  0.00  0.00    -0.168 N 
ATOM      7  HN  UNK N   1      26.587  19.113   6.714  1.00  0.00     0.186 HD
HETATM    8  N   UNK N   1      27.738  18.585   8.982  0.00  0.00    -0.234 N 
HETATM    9  C   UNK N   1      29.919  17.511   6.287  0.00  0.00     0.157 A 
HETATM   10  C   UNK N   1      31.089  17.038   4.558  0.00  0.00     0.188 A 
HETATM   11  C   UNK N   1      29.206  17.837   5.192  0.00  0.00     0.130 A 
HETATM   12  C   UNK N   1      27.966  18.441   5.319  0.00  0.00     0.188 A 
HETATM   13  C   UNK N   1      28.240  18.325   7.691  0.00  0.00     0.679 A 
HETATM   14  H   UNK N   1      28.242  18.290   9.774  0.00  0.00     0.174 HD
HETATM   15  H   UNK N   1      26.884  19.062   9.091  0.00  0.00     0.174 HD
ENDROOT
BRANCH   1  16
HETATM   16  C   UNK N   1      32.238  16.659   6.781  0.00  0.00     0.262 C 
HETATM   17  O   UNK N   1      32.799  17.796   7.400  0.00  0.00    -0.353 OA
HETATM   18  C   UNK N   1      33.271  17.345   8.651  0.00  0.00     0.179 C 
HETATM   19  C   UNK N   1      33.172  15.834   8.646  0.00  0.00     0.182 C 
HETATM   20  C   UNK N   1      31.916  15.667   7.870  0.00  0.00     0.198 C 
BRANCH  18  21
HETATM   21  C   UNK N   1      34.704  17.809   8.860  0.00  0.00     0.198 C 
BRANCH  21  22
HETATM   22  O   UNK N   1      34.905  19.056   8.269  0.00  0.00    -0.398 OA
HETATM   23  H   UNK N   1      34.880  19.224   7.314  0.00  0.00     0.209 HD
ENDBRANCH  21  22
ENDBRANCH  18  21
BRANCH  19  24
HETATM   24  O   UNK N   1      33.067  15.308   9.933  0.00  0.00    -0.390 OA
HETATM   25  H   UNK N   1      33.510  15.534  10.767  0.00  0.00     0.210 HD
ENDBRANCH  19  24
BRANCH  20  26
HETATM   26  O   UNK N   1      31.822  14.373   7.356  0.00  0.00    -0.388 OA
HETATM   27  H   UNK N   1      31.708  14.125   6.425  0.00  0.00     0.210 HD
ENDBRANCH  20  26
ENDBRANCH   1  16
BRANCH  12  28
HETATM   28  O   UNK N   1      27.262  18.814   4.228  0.00  0.00    -0.339 OA
HETATM   29  C   UNK N   1      26.921  20.125   3.989  0.00  0.00     0.211 C 
ENDBRANCH  12  28
TORSDOF 6
ENDMDL
MODEL 4
REMARK VINA RESULT:      -6.1      6.607      8.990
REMARK  6 active torsions:
REMARK  status: ('A' for Active; 'I' for Inactive)
REMARK    1  A    between atoms: C_14  and  O_2 
REMARK    2  A    between atoms: C_16  and  O_3 
REMARK    3  A    between atoms: O_4  and  C_18 
REMARK    4  A    between atoms: O_5  and  C_22 
REMARK    5  A    between atoms: C_15  and  N_6 
REMARK       I    between atoms: N_13  and  C_23 
REMARK    6  A    between atoms: C_17  and  C_18 
ROOT
HETATM    1  N   UNK N   1      26.683  19.441   4.298  0.00  0.00    -0.297 N 
HETATM    2  N   UNK N   1      25.608  20.685   2.762  0.00  0.00    -0.346 N 
ATOM      3  HN  UNK N   1      25.418  21.344   2.005  1.00  0.00     0.167 HD
HETATM    4  N   UNK N   1      24.726  18.320   5.177  0.00  0.00    -0.174 N 
ATOM      5  HN  UNK N   1      25.239  17.770   5.866  1.00  0.00     0.186 HD
HETATM    6  N   UNK N   1      22.683  18.992   4.161  0.00  0.00    -0.168 N 
ATOM      7  HN  UNK N   1      21.668  18.919   4.105  1.00  0.00     0.186 HD
HETATM    8  N   UNK N   1      22.657  17.366   5.937  0.00  0.00    -0.234 N 
HETATM    9  C   UNK N   1      25.374  19.163   4.335  0.00  0.00     0.157 A 
HETATM   10  C   UNK N   1      26.811  20.389   3.329  0.00  0.00     0.188 A 
HETATM   11  C   UNK N   1      24.726  19.912   3.424  0.00  0.00     0.130 A 
HETATM   12  C   UNK N   1      23.346  19.849   3.319  0.00  0.00     0.188 A 
HETATM   13  C   UNK N   1      23.366  18.230   5.078  0.00  0.00     0.679 A 
HETATM   14  H   UNK N   1      23.146  16.781   6.559  0.00  0.00     0.174 HD
HETATM   15  H   UNK N   1      21.673  17.347   5.913  0.00  0.00     0.174 HD
ENDROOT
BRANCH   1  16
HETATM   16  C   UNK N   1      27.729  18.965   5.209  0.00  0.00     0.262 C 
HETATM   17  O   UNK N   1      27.255  18.828   6.531  0.00  0.00    -0.353 OA
HETATM   18  C   UNK N   1      27.979  17.748   7.078  0.00  0.00     0.179 C 
HETATM   19  C   UNK N   1      29.074  17.400   6.091  0.00  0.00     0.182 C 
HETATM   20  C   UNK N   1      28.350  17.648   4.816  0.00  0.00     0.198 C 
BRANCH  18  21
HETATM   21  C   UNK N   1      28.553  18.143   8.429  0.00  0.00     0.198 C 
BRANCH  21  22
HETATM   22  O   UNK N   1      27.538  18.246   9.380  0.00  0.00    -0.398 OA
HETATM   23  H   UNK N   1      26.645  17.881   9.275  0.00  0.00     0.209 HD
ENDBRANCH  21  22
ENDBRANCH  18  21
BRANCH  19  24
HETATM   24  O   UNK N   1      29.489  16.075   6.209  0.00  0.00    -0.390 OA
HETATM   25  H   UNK N   1      29.067  15.292   6.597  0.00  0.00     0.210 HD
ENDBRANCH  19  24
BRANCH  20  26
HETATM   26  O   UNK N   1      29.250  17.814   3.762  0.00  0.00    -0.388 OA
HETATM   27  H   UNK N   1      29.514  17.143   3.113  0.00  0.00     0.210 HD
ENDBRANCH  20  26
ENDBRANCH   1  16
BRANCH  12  28
HETATM   28  O   UNK N   1      22.681  20.629   2.439  0.00  0.00    -0.339 OA
HETATM   29  C   UNK N   1      21.307  20.661   2.380  0.00  0.00     0.211 C 
ENDBRANCH  12  28
TORSDOF 6
ENDMDL
MODEL 5
REMARK VINA RESULT:      -6.1     14.017     16.238
REMARK  6 active torsions:
REMARK  status: ('A' for Active; 'I' for Inactive)
REMARK    1  A    between atoms: C_14  and  O_2 
REMARK    2  A    between atoms: C_16  and  O_3 
REMARK    3  A    between atoms: O_4  and  C_18 
REMARK    4  A    between atoms: O_5  and  C_22 
REMARK    5  A    between atoms: C_15  and  N_6 
REMARK       I    between atoms: N_13  and  C_23 
REMARK    6  A    between atoms: C_17  and  C_18 
ROOT
HETATM    1  N   UNK N   1      29.357  24.193  -4.138  0.00  0.00    -0.297 N 
HETATM    2  N   UNK N   1      28.962  26.408  -4.097  0.00  0.00    -0.346 N 
ATOM      3  HN  UNK N   1      29.068  27.410  -3.939  1.00  0.00     0.167 HD
HETATM    4  N   UNK N   1      27.308  23.558  -5.260  0.00  0.00    -0.174 N 
ATOM      5  HN  UNK N   1      27.513  22.559  -5.263  1.00  0.00     0.186 HD
HETATM    6  N   UNK N   1      25.864  25.383  -5.750  0.00  0.00    -0.168 N 
ATOM      7  HN  UNK N   1      24.983  25.724  -6.134  1.00  0.00     0.186 HD
HETATM    8  N   UNK N   1      25.197  23.143  -6.328  0.00  0.00    -0.234 N 
HETATM    9  C   UNK N   1      28.189  24.449  -4.739  0.00  0.00     0.157 A 
HETATM   10  C   UNK N   1      29.818  25.410  -3.739  0.00  0.00     0.188 A 
HETATM   11  C   UNK N   1      27.944  25.772  -4.709  0.00  0.00     0.130 A 
HETATM   12  C   UNK N   1      26.757  26.277  -5.214  0.00  0.00     0.188 A 
HETATM   13  C   UNK N   1      26.138  24.038  -5.779  0.00  0.00     0.679 A 
HETATM   14  H   UNK N   1      25.412  22.185  -6.397  0.00  0.00     0.174 HD
HETATM   15  H   UNK N   1      24.327  23.476  -6.642  0.00  0.00     0.174 HD
ENDROOT
BRANCH   1  16
HETATM   16  C   UNK N   1      29.937  22.883  -3.822  0.00  0.00     0.262 C 
HETATM   17  O   UNK N   1      30.581  22.308  -4.938  0.00  0.00    -0.353 OA
HETATM   18  C   UNK N   1      31.651  21.558  -4.405  0.00  0.00     0.179 C 
HETATM   19  C   UNK N   1      31.469  21.526  -2.902  0.00  0.00     0.182 C 
HETATM   20  C   UNK N   1      30.929  22.895  -2.686  0.00  0.00     0.198 C 
BRANCH  18  21
HETATM   21  C   UNK N   1      31.644  20.157  -4.996  0.00  0.00     0.198 C 
BRANCH  21  22
HETATM   22  O   UNK N   1      32.097  19.229  -4.059  0.00  0.00    -0.398 OA
HETATM   23  H   UNK N   1      31.697  18.359  -3.906  0.00  0.00     0.209 HD
ENDBRANCH  21  22
ENDBRANCH  18  21
BRANCH  19  24
HETATM   24  O   UNK N   1      32.673  21.326  -2.229  0.00  0.00    -0.390 OA
HETATM   25  H   UNK N   1      33.360  20.645  -2.312  0.00  0.00     0.210 HD
ENDBRANCH  19  24
BRANCH  20  26
HETATM   26  O   UNK N   1      30.279  22.980  -1.455  0.00  0.00    -0.388 OA
HETATM   27  H   UNK N   1      29.999  23.790  -1.001  0.00  0.00     0.210 HD
ENDBRANCH  20  26
ENDBRANCH   1  16
BRANCH  12  28
HETATM   28  O   UNK N   1      26.480  27.597  -5.147  0.00  0.00    -0.339 OA
HETATM   29  C   UNK N   1      25.667  28.128  -4.173  0.00  0.00     0.211 C 
ENDBRANCH  12  28
TORSDOF 6
ENDMDL
MODEL 6
REMARK VINA RESULT:      -6.1      1.910      2.286
REMARK  6 active torsions:
REMARK  status: ('A' for Active; 'I' for Inactive)
REMARK    1  A    between atoms: C_14  and  O_2 
REMARK    2  A    between atoms: C_16  and  O_3 
REMARK    3  A    between atoms: O_4  and  C_18 
REMARK    4  A    between atoms: O_5  and  C_22 
REMARK    5  A    between atoms: C_15  and  N_6 
REMARK       I    between atoms: N_13  and  C_23 
REMARK    6  A    between atoms: C_17  and  C_18 
ROOT
HETATM    1  N   UNK N   1      34.824  15.107   8.775  0.00  0.00    -0.297 N 
HETATM    2  N   UNK N   1      35.133  15.545   6.589  0.00  0.00    -0.346 N 
ATOM      3  HN  UNK N   1      35.510  15.537   5.641  1.00  0.00     0.167 HD
HETATM    4  N   UNK N   1      32.887  16.528   9.080  0.00  0.00    -0.174 N 
ATOM      5  HN  UNK N   1      32.772  16.312  10.070  1.00  0.00     0.186 HD
HETATM    6  N   UNK N   1      32.231  17.708   7.122  0.00  0.00    -0.168 N 
ATOM      7  HN  UNK N   1      31.605  18.373   6.669  1.00  0.00     0.186 HD
HETATM    8  N   UNK N   1      31.017  18.031   9.176  0.00  0.00    -0.234 N 
HETATM    9  C   UNK N   1      33.873  15.949   8.350  0.00  0.00     0.157 A 
HETATM   10  C   UNK N   1      35.599  14.875   7.681  0.00  0.00     0.188 A 
HETATM   11  C   UNK N   1      34.060  16.221   7.045  0.00  0.00     0.130 A 
HETATM   12  C   UNK N   1      33.237  17.124   6.393  0.00  0.00     0.188 A 
HETATM   13  C   UNK N   1      32.053  17.409   8.451  0.00  0.00     0.679 A 
HETATM   14  H   UNK N   1      30.855  17.782  10.114  0.00  0.00     0.174 HD
HETATM   15  H   UNK N   1      30.457  18.715   8.744  0.00  0.00     0.174 HD
ENDROOT
BRANCH   1  16
HETATM   16  C   UNK N   1      35.083  14.666  10.149  0.00  0.00     0.262 C 
HETATM   17  O   UNK N   1      34.597  13.363  10.386  0.00  0.00    -0.353 OA
HETATM   18  C   UNK N   1      35.485  12.797  11.325  0.00  0.00     0.179 C 
HETATM   19  C   UNK N   1      36.389  13.911  11.811  0.00  0.00     0.182 C 
HETATM   20  C   UNK N   1      36.538  14.682  10.549  0.00  0.00     0.198 C 
BRANCH  18  21
HETATM   21  C   UNK N   1      34.700  12.177  12.470  0.00  0.00     0.198 C 
BRANCH  21  22
HETATM   22  O   UNK N   1      34.726  13.011  13.588  0.00  0.00    -0.398 OA
HETATM   23  H   UNK N   1      33.997  13.588  13.863  0.00  0.00     0.209 HD
ENDBRANCH  21  22
ENDBRANCH  18  21
BRANCH  19  24
HETATM   24  O   UNK N   1      37.611  13.432  12.281  0.00  0.00    -0.390 OA
HETATM   25  H   UNK N   1      38.061  13.523  13.136  0.00  0.00     0.210 HD
ENDBRANCH  19  24
BRANCH  20  26
HETATM   26  O   UNK N   1      36.969  15.982  10.813  0.00  0.00    -0.388 OA
HETATM   27  H   UNK N   1      36.417  16.778  10.865  0.00  0.00     0.210 HD
ENDBRANCH  20  26
ENDBRANCH   1  16
BRANCH  12  28
HETATM   28  O   UNK N   1      33.442  17.439   5.095  0.00  0.00    -0.339 OA
HETATM   29  C   UNK N   1      32.415  17.491   4.182  0.00  0.00     0.211 C 
ENDBRANCH  12  28
TORSDOF 6
ENDMDL
MODEL 7
REMARK VINA RESULT:      -6.0      2.516      4.408
REMARK  6 active torsions:
REMARK  status: ('A' for Active; 'I' for Inactive)
REMARK    1  A    between atoms: C_14  and  O_2 
REMARK    2  A    between atoms: C_16  and  O_3 
REMARK    3  A    between atoms: O_4  and  C_18 
REMARK    4  A    between atoms: O_5  and  C_22 
REMARK    5  A    between atoms: C_15  and  N_6 
REMARK       I    between atoms: N_13  and  C_23 
REMARK    6  A    between atoms: C_17  and  C_18 
ROOT
HETATM    1  N   UNK N   1      35.410  15.118  11.445  0.00  0.00    -0.297 N 
HETATM    2  N   UNK N   1      34.798  16.955  10.298  0.00  0.00    -0.346 N 
ATOM      3  HN  UNK N   1      34.727  17.922   9.979  1.00  0.00     0.167 HD
HETATM    4  N   UNK N   1      34.045  13.544  10.213  0.00  0.00    -0.174 N 
ATOM      5  HN  UNK N   1      34.339  12.729  10.751  1.00  0.00     0.186 HD
HETATM    6  N   UNK N   1      32.724  14.536   8.501  0.00  0.00    -0.168 N 
ATOM      7  HN  UNK N   1      32.034  14.434   7.757  1.00  0.00     0.186 HD
HETATM    8  N   UNK N   1      32.579  12.166   8.900  0.00  0.00    -0.234 N 
HETATM    9  C   UNK N   1      34.551  14.774  10.477  0.00  0.00     0.157 A 
HETATM   10  C   UNK N   1      35.546  16.467  11.328  0.00  0.00     0.188 A 
HETATM   11  C   UNK N   1      34.175  15.872   9.795  0.00  0.00     0.130 A 
HETATM   12  C   UNK N   1      33.236  15.779   8.781  0.00  0.00     0.188 A 
HETATM   13  C   UNK N   1      33.128  13.428   9.205  0.00  0.00     0.679 A 
HETATM   14  H   UNK N   1      32.904  11.363   9.368  0.00  0.00     0.174 HD
HETATM   15  H   UNK N   1      31.872  12.089   8.221  0.00  0.00     0.174 HD
ENDROOT
BRANCH   1  16
HETATM   16  C   UNK N   1      35.954  14.266  12.507  0.00  0.00     0.262 C 
HETATM   17  O   UNK N   1      34.943  13.769  13.356  0.00  0.00    -0.353 OA
HETATM   18  C   UNK N   1      35.395  12.499  13.772  0.00  0.00     0.179 C 
HETATM   19  C   UNK N   1      36.832  12.365  13.314  0.00  0.00     0.182 C 
HETATM   20  C   UNK N   1      36.749  13.082  12.015  0.00  0.00     0.198 C 
BRANCH  18  21
HETATM   21  C   UNK N   1      35.278  12.379  15.283  0.00  0.00     0.198 C 
BRANCH  21  22
HETATM   22  O   UNK N   1      34.221  13.156  15.755  0.00  0.00    -0.398 OA
HETATM   23  H   UNK N   1      33.433  13.388  15.238  0.00  0.00     0.209 HD
ENDBRANCH  21  22
ENDBRANCH  18  21
BRANCH  19  24
HETATM   24  O   UNK N   1      37.213  11.034  13.155  0.00  0.00    -0.390 OA
HETATM   25  H   UNK N   1      36.797  10.200  13.427  0.00  0.00     0.210 HD
ENDBRANCH  19  24
BRANCH  20  26
HETATM   26  O   UNK N   1      38.018  13.475  11.586  0.00  0.00    -0.388 OA
HETATM   27  H   UNK N   1      38.363  13.434  10.680  0.00  0.00     0.210 HD
ENDBRANCH  20  26
ENDBRANCH   1  16
BRANCH  12  28
HETATM   28  O   UNK N   1      32.817  16.880   8.120  0.00  0.00    -0.339 OA
HETATM   29  C   UNK N   1      31.513  17.313   8.169  0.00  0.00     0.211 C 
ENDBRANCH  12  28
TORSDOF 6
ENDMDL
MODEL 8
REMARK VINA RESULT:      -6.0     11.321     14.058
REMARK  6 active torsions:
REMARK  status: ('A' for Active; 'I' for Inactive)
REMARK    1  A    between atoms: C_14  and  O_2 
REMARK    2  A    between atoms: C_16  and  O_3 
REMARK    3  A    between atoms: O_4  and  C_18 
REMARK    4  A    between atoms: O_5  and  C_22 
REMARK    5  A    between atoms: C_15  and  N_6 
REMARK       I    between atoms: N_13  and  C_23 
REMARK    6  A    between atoms: C_17  and  C_18 
ROOT
HETATM    1  N   UNK N   1      21.429  16.910   5.766  0.00  0.00    -0.297 N 
HETATM    2  N   UNK N   1      22.819  15.370   6.638  0.00  0.00    -0.346 N 
ATOM      3  HN  UNK N   1      23.616  14.747   6.773  1.00  0.00     0.167 HD
HETATM    4  N   UNK N   1      19.760  16.811   7.516  0.00  0.00    -0.174 N 
ATOM      5  HN  UNK N   1      19.148  17.511   7.097  1.00  0.00     0.186 HD
HETATM    6  N   UNK N   1      20.241  15.232   9.229  0.00  0.00    -0.168 N 
ATOM      7  HN  UNK N   1      19.969  14.772  10.097  1.00  0.00     0.186 HD
HETATM    8  N   UNK N   1      18.207  16.517   9.325  0.00  0.00    -0.234 N 
HETATM    9  C   UNK N   1      20.933  16.469   6.929  0.00  0.00     0.157 A 
HETATM   10  C   UNK N   1      22.587  16.216   5.595  0.00  0.00     0.188 A 
HETATM   11  C   UNK N   1      21.757  15.540   7.449  0.00  0.00     0.130 A 
HETATM   12  C   UNK N   1      21.423  14.886   8.623  0.00  0.00     0.188 A 
HETATM   13  C   UNK N   1      19.419  16.189   8.685  0.00  0.00     0.679 A 
HETATM   14  H   UNK N   1      17.641  17.237   8.966  0.00  0.00     0.174 HD
HETATM   15  H   UNK N   1      17.927  16.025  10.130  0.00  0.00     0.174 HD
ENDROOT
BRANCH   1  16
HETATM   16  C   UNK N   1      20.790  17.811   4.802  0.00  0.00     0.262 C 
HETATM   17  O   UNK N   1      21.733  18.600   4.109  0.00  0.00    -0.353 OA
HETATM   18  C   UNK N   1      21.182  18.800   2.826  0.00  0.00     0.179 C 
HETATM   19  C   UNK N   1      19.758  18.288   2.867  0.00  0.00     0.182 C 
HETATM   20  C   UNK N   1      19.937  17.119   3.768  0.00  0.00     0.198 C 
BRANCH  18  21
HETATM   21  C   UNK N   1      21.234  20.276   2.467  0.00  0.00     0.198 C 
BRANCH  21  22
HETATM   22  O   UNK N   1      20.571  21.036   3.431  0.00  0.00    -0.398 OA
HETATM   23  H   UNK N   1      19.701  20.820   3.802  0.00  0.00     0.209 HD
ENDBRANCH  21  22
ENDBRANCH  18  21
BRANCH  19  24
HETATM   24  O   UNK N   1      19.295  17.913   1.607  0.00  0.00    -0.390 OA
HETATM   25  H   UNK N   1      18.782  18.388   0.934  0.00  0.00     0.210 HD
ENDBRANCH  19  24
BRANCH  20  26
HETATM   26  O   UNK N   1      18.715  16.723   4.311  0.00  0.00    -0.388 OA
HETATM   27  H   UNK N   1      17.925  17.275   4.427  0.00  0.00     0.210 HD
ENDBRANCH  20  26
ENDBRANCH   1  16
BRANCH  12  28
HETATM   28  O   UNK N   1      22.220  13.920   9.130  0.00  0.00    -0.339 OA
HETATM   29  C   UNK N   1      21.822  13.113  10.171  0.00  0.00     0.211 C 
ENDBRANCH  12  28
TORSDOF 6
ENDMDL
MODEL 9
REMARK VINA RESULT:      -6.0      2.019      2.619
REMARK  6 active torsions:
REMARK  status: ('A' for Active; 'I' for Inactive)
REMARK    1  A    between atoms: C_14  and  O_2 
REMARK    2  A    between atoms: C_16  and  O_3 
REMARK    3  A    between atoms: O_4  and  C_18 
REMARK    4  A    between atoms: O_5  and  C_22 
REMARK    5  A    between atoms: C_15  and  N_6 
REMARK       I    between atoms: N_13  and  C_23 
REMARK    6  A    between atoms: C_17  and  C_18 
ROOT
HETATM    1  N   UNK N   1      33.813  14.332   9.145  0.00  0.00    -0.297 N 
HETATM    2  N   UNK N   1      31.885  14.513   7.997  0.00  0.00    -0.346 N 
ATOM      3  HN  UNK N   1      30.995  14.287   7.552  1.00  0.00     0.167 HD
HETATM    4  N   UNK N   1      34.484  16.649   8.940  0.00  0.00    -0.174 N 
ATOM      5  HN  UNK N   1      35.353  16.538   9.463  1.00  0.00     0.186 HD
HETATM    6  N   UNK N   1      32.975  17.991   7.684  0.00  0.00    -0.168 N 
ATOM      7  HN  UNK N   1      32.733  18.897   7.285  1.00  0.00     0.186 HD
HETATM    8  N   UNK N   1      34.986  18.969   8.574  0.00  0.00    -0.234 N 
HETATM    9  C   UNK N   1      33.642  15.602   8.756  0.00  0.00     0.157 A 
HETATM   10  C   UNK N   1      32.726  13.671   8.661  0.00  0.00     0.188 A 
HETATM   11  C   UNK N   1      32.495  15.713   8.060  0.00  0.00     0.130 A 
HETATM   12  C   UNK N   1      32.132  16.924   7.495  0.00  0.00     0.188 A 
HETATM   13  C   UNK N   1      34.136  17.858   8.404  0.00  0.00     0.679 A 
HETATM   14  H   UNK N   1      35.793  18.890   9.132  0.00  0.00     0.174 HD
HETATM   15  H   UNK N   1      34.773  19.823   8.135  0.00  0.00     0.174 HD
ENDROOT
BRANCH   1  16
HETATM   16  C   UNK N   1      34.987  13.743   9.796  0.00  0.00     0.262 C 
HETATM   17  O   UNK N   1      36.190  14.138   9.174  0.00  0.00    -0.353 OA
HETATM   18  C   UNK N   1      37.147  14.186  10.209  0.00  0.00     0.179 C 
HETATM   19  C   UNK N   1      36.508  13.572  11.437  0.00  0.00     0.182 C 
HETATM   20  C   UNK N   1      35.114  14.061  11.265  0.00  0.00     0.198 C 
BRANCH  18  21
HETATM   21  C   UNK N   1      38.396  13.425   9.792  0.00  0.00     0.198 C 
BRANCH  21  22
HETATM   22  O   UNK N   1      39.275  13.301  10.868  0.00  0.00    -0.398 OA
HETATM   23  H   UNK N   1      39.913  12.579  10.980  0.00  0.00     0.209 HD
ENDBRANCH  21  22
ENDBRANCH  18  21
BRANCH  19  24
HETATM   24  O   UNK N   1      37.084  14.035  12.619  0.00  0.00    -0.390 OA
HETATM   25  H   UNK N   1      37.883  13.770  13.101  0.00  0.00     0.210 HD
ENDBRANCH  19  24
BRANCH  20  26
HETATM   26  O   UNK N   1      34.226  13.296  12.021  0.00  0.00    -0.388 OA
HETATM   27  H   UNK N   1      33.937  13.472  12.931  0.00  0.00     0.210 HD
ENDBRANCH  20  26
ENDBRANCH   1  16
BRANCH  12  28
HETATM   28  O   UNK N   1      31.006  17.036   6.757  0.00  0.00    -0.339 OA
HETATM   29  C   UNK N   1      29.810  17.442   7.302  0.00  0.00     0.211 C 
ENDBRANCH  12  28
TORSDOF 6
ENDMDL
