REMARK  10 active torsions:
REMARK  status: ('A' for Active; 'I' for Inactive)
REMARK    1  A    between atoms: O_1  and  C_9 
REMARK    2  A    between atoms: O_2  and  C_17 
REMARK    3  A    between atoms: O_3  and  C_18 
REMARK    4  A    between atoms: O_4  and  C_21 
REMARK    5  A    between atoms: N_5  and  C_6 
REMARK    6  A    between atoms: N_5  and  C_8 
REMARK    7  A    between atoms: C_6  and  C_7 
REMARK    8  A    between atoms: C_7  and  C_11 
REMARK    9  A    between atoms: C_8  and  C_9 
REMARK   10  A    between atoms: C_9  and  C_12 
ROOT
HETATM    1  C   UNK N   1       2.256   0.263   0.911  0.00  0.00     0.150 C 
ENDROOT
BRANCH   1   2
HETATM    2  N   UNK N   1       2.857   0.684  -0.344  0.00  0.00    -0.414 N 
HETATM    3  H   UNK N   1       2.382   0.740  -1.244  0.00  0.00     0.153 HD
BRANCH   2   4
HETATM    4  C   UNK N   1       4.250   1.009  -0.097  0.00  0.00     0.076 C 
HETATM    5  C   UNK N   1       5.074   0.345  -1.188  0.00  0.00     0.032 C 
BRANCH   4   6
HETATM    6  C   UNK N   1       4.411   2.532  -0.142  0.00  0.00     0.062 C 
BRANCH   6   7
HETATM    7  C   UNK N   1       5.814   3.058  -0.003  0.00  0.00    -0.056 A 
HETATM    8  C   UNK N   1       6.900   2.219   0.297  0.00  0.00     0.010 A 
HETATM    9  C   UNK N   1       8.197   2.735   0.347  0.00  0.00     0.037 A 
HETATM   10  C   UNK N   1       8.418   4.092   0.098  0.00  0.00     0.065 A 
HETATM   11  C   UNK N   1       7.339   4.935  -0.183  0.00  0.00     0.037 A 
HETATM   12  C   UNK N   1       6.042   4.419  -0.233  0.00  0.00     0.010 A 
BRANCH  10  13
HETATM   13  O   UNK N   1       9.666   4.584   0.125  0.00  0.00    -0.361 OA
HETATM   14  H   UNK N   1      10.400   4.001   0.143  0.00  0.00     0.217 HD
ENDBRANCH  10  13
ENDBRANCH   6   7
ENDBRANCH   4   6
ENDBRANCH   2   4
ENDBRANCH   1   2
BRANCH   1  15
HETATM   15  C   UNK N   1       1.229  -0.843   0.658  0.00  0.00     0.168 C 
BRANCH  15  16
HETATM   16  O   UNK N   1       0.348  -0.454  -0.356  0.00  0.00    -0.389 OA
HETATM   17  H   UNK N   1       0.277   0.210  -1.060  0.00  0.00     0.210 HD
ENDBRANCH  15  16
BRANCH  15  18
HETATM   18  C   UNK N   1       1.820  -2.196   0.347  0.00  0.00    -0.023 A 
HETATM   19  C   UNK N   1       3.209  -2.401   0.267  0.00  0.00     0.046 A 
HETATM   20  C   UNK N   1       3.720  -3.675  -0.001  0.00  0.00     0.069 A 
HETATM   21  C   UNK N   1       2.850  -4.751  -0.189  0.00  0.00     0.073 A 
HETATM   22  C   UNK N   1       1.468  -4.556  -0.110  0.00  0.00     0.069 A 
HETATM   23  C   UNK N   1       0.957  -3.283   0.160  0.00  0.00     0.046 A 
BRANCH  20  24
HETATM   24  O   UNK N   1       5.047  -3.864  -0.074  0.00  0.00    -0.361 OA
HETATM   25  H   UNK N   1       5.396  -4.733  -0.125  0.00  0.00     0.217 HD
ENDBRANCH  20  24
BRANCH  22  26
HETATM   26  O   UNK N   1       0.632  -5.590  -0.288  0.00  0.00    -0.361 OA
HETATM   27  H   UNK N   1      -0.285  -5.446  -0.413  0.00  0.00     0.217 HD
ENDBRANCH  22  26
ENDBRANCH  15  18
ENDBRANCH   1  15
TORSDOF 10
