MODEL 1
REMARK VINA RESULT:      -6.9      0.000      0.000
REMARK  10 active torsions:
REMARK  status: ('A' for Active; 'I' for Inactive)
REMARK    1  A    between atoms: O_1  and  C_9 
REMARK    2  A    between atoms: O_2  and  C_17 
REMARK    3  A    between atoms: O_3  and  C_18 
REMARK    4  A    between atoms: O_4  and  C_21 
REMARK    5  A    between atoms: N_5  and  C_6 
REMARK    6  A    between atoms: N_5  and  C_8 
REMARK    7  A    between atoms: C_6  and  C_7 
REMARK    8  A    between atoms: C_7  and  C_11 
REMARK    9  A    between atoms: C_8  and  C_9 
REMARK   10  A    between atoms: C_9  and  C_12 
ROOT
HETATM    1  C   UNK N   1      36.301  14.040  11.734  0.00  0.00     0.150 C 
ENDROOT
BRANCH   1   2
HETATM    2  N   UNK N   1      36.740  13.971  13.118  0.00  0.00    -0.414 N 
HETATM    3  H   UNK N   1      37.616  14.342  13.486  0.00  0.00     0.153 HD
BRANCH   2   4
HETATM    4  C   UNK N   1      35.720  13.282  13.887  0.00  0.00     0.076 C 
HETATM    5  C   UNK N   1      34.918  12.428  12.920  0.00  0.00     0.032 C 
BRANCH   4   6
HETATM    6  C   UNK N   1      36.409  12.411  14.942  0.00  0.00     0.062 C 
BRANCH   6   7
HETATM    7  C   UNK N   1      35.920  12.565  16.357  0.00  0.00    -0.056 A 
HETATM    8  C   UNK N   1      35.746  11.464  17.211  0.00  0.00     0.010 A 
HETATM    9  C   UNK N   1      35.358  11.656  18.539  0.00  0.00     0.037 A 
HETATM   10  C   UNK N   1      35.140  12.949  19.023  0.00  0.00     0.065 A 
HETATM   11  C   UNK N   1      35.293  14.047  18.172  0.00  0.00     0.037 A 
HETATM   12  C   UNK N   1      35.681  13.855  16.844  0.00  0.00     0.010 A 
BRANCH  10  13
HETATM   13  O   UNK N   1      34.788  13.135  20.304  0.00  0.00    -0.361 OA
HETATM   14  H   UNK N   1      33.931  12.890  20.595  0.00  0.00     0.217 HD
ENDBRANCH  10  13
ENDBRANCH   6   7
ENDBRANCH   4   6
ENDBRANCH   2   4
ENDBRANCH   1   2
BRANCH   1  15
HETATM   15  C   UNK N   1      36.021  15.492  11.342  0.00  0.00     0.168 C 
BRANCH  15  16
HETATM   16  O   UNK N   1      37.179  16.078  10.819  0.00  0.00    -0.389 OA
HETATM   17  H   UNK N   1      37.704  16.078  10.003  0.00  0.00     0.210 HD
ENDBRANCH  15  16
BRANCH  15  18
HETATM   18  C   UNK N   1      34.865  15.678  10.390  0.00  0.00    -0.023 A 
HETATM   19  C   UNK N   1      34.659  16.884   9.696  0.00  0.00     0.046 A 
HETATM   20  C   UNK N   1      33.589  17.012   8.805  0.00  0.00     0.069 A 
HETATM   21  C   UNK N   1      32.720  15.938   8.599  0.00  0.00     0.073 A 
HETATM   22  C   UNK N   1      32.919  14.735   9.283  0.00  0.00     0.069 A 
HETATM   23  C   UNK N   1      33.989  14.607  10.173  0.00  0.00     0.046 A 
BRANCH  20  24
HETATM   24  O   UNK N   1      33.399  18.165   8.145  0.00  0.00    -0.361 OA
HETATM   25  H   UNK N   1      33.742  18.966   8.490  0.00  0.00     0.217 HD
ENDBRANCH  20  24
BRANCH  22  26
HETATM   26  O   UNK N   1      32.086  13.703   9.084  0.00  0.00    -0.361 OA
HETATM   27  H   UNK N   1      31.407  13.511   9.701  0.00  0.00     0.217 HD
ENDBRANCH  22  26
ENDBRANCH  15  18
ENDBRANCH   1  15
TORSDOF 10
ENDMDL
MODEL 2
REMARK VINA RESULT:      -6.8      1.602      2.289
REMARK  10 active torsions:
REMARK  status: ('A' for Active; 'I' for Inactive)
REMARK    1  A    between atoms: O_1  and  C_9 
REMARK    2  A    between atoms: O_2  and  C_17 
REMARK    3  A    between atoms: O_3  and  C_18 
REMARK    4  A    between atoms: O_4  and  C_21 
REMARK    5  A    between atoms: N_5  and  C_6 
REMARK    6  A    between atoms: N_5  and  C_8 
REMARK    7  A    between atoms: C_6  and  C_7 
REMARK    8  A    between atoms: C_7  and  C_11 
REMARK    9  A    between atoms: C_8  and  C_9 
REMARK   10  A    between atoms: C_9  and  C_12 
ROOT
HETATM    1  C   UNK N   1      36.274  14.286  13.284  0.00  0.00     0.150 C 
ENDROOT
BRANCH   1   2
HETATM    2  N   UNK N   1      37.008  13.271  14.023  0.00  0.00    -0.414 N 
HETATM    3  H   UNK N   1      37.488  12.469  13.618  0.00  0.00     0.153 HD
BRANCH   2   4
HETATM    4  C   UNK N   1      36.938  13.595  15.436  0.00  0.00     0.076 C 
HETATM    5  C   UNK N   1      37.215  15.083  15.578  0.00  0.00     0.032 C 
BRANCH   4   6
HETATM    6  C   UNK N   1      35.535  13.250  15.947  0.00  0.00     0.062 C 
BRANCH   6   7
HETATM    7  C   UNK N   1      35.456  12.647  17.323  0.00  0.00    -0.056 A 
HETATM    8  C   UNK N   1      35.194  13.423  18.465  0.00  0.00     0.010 A 
HETATM    9  C   UNK N   1      35.058  12.815  19.715  0.00  0.00     0.037 A 
HETATM   10  C   UNK N   1      35.183  11.429  19.833  0.00  0.00     0.065 A 
HETATM   11  C   UNK N   1      35.462  10.654  18.704  0.00  0.00     0.037 A 
HETATM   12  C   UNK N   1      35.598  11.262  17.454  0.00  0.00     0.010 A 
BRANCH  10  13
HETATM   13  O   UNK N   1      35.032  10.842  21.030  0.00  0.00    -0.361 OA
HETATM   14  H   UNK N   1      35.720  10.887  21.665  0.00  0.00     0.217 HD
ENDBRANCH  10  13
ENDBRANCH   6   7
ENDBRANCH   4   6
ENDBRANCH   2   4
ENDBRANCH   1   2
BRANCH   1  15
HETATM   15  C   UNK N   1      35.433  13.632  12.186  0.00  0.00     0.168 C 
BRANCH  15  16
HETATM   16  O   UNK N   1      34.309  13.018  12.748  0.00  0.00    -0.389 OA
HETATM   17  H   UNK N   1      34.005  12.668  13.601  0.00  0.00     0.210 HD
ENDBRANCH  15  16
BRANCH  15  18
HETATM   18  C   UNK N   1      35.019  14.559  11.070  0.00  0.00    -0.023 A 
HETATM   19  C   UNK N   1      35.482  15.885  10.993  0.00  0.00     0.046 A 
HETATM   20  C   UNK N   1      35.095  16.707   9.930  0.00  0.00     0.069 A 
HETATM   21  C   UNK N   1      34.245  16.212   8.938  0.00  0.00     0.073 A 
HETATM   22  C   UNK N   1      33.780  14.896   9.007  0.00  0.00     0.069 A 
HETATM   23  C   UNK N   1      34.170  14.073  10.068  0.00  0.00     0.046 A 
BRANCH  20  24
HETATM   24  O   UNK N   1      35.543  17.971   9.861  0.00  0.00    -0.361 OA
HETATM   25  H   UNK N   1      36.316  18.221  10.329  0.00  0.00     0.217 HD
ENDBRANCH  20  24
BRANCH  22  26
HETATM   26  O   UNK N   1      32.966  14.420   8.053  0.00  0.00    -0.361 OA
HETATM   27  H   UNK N   1      32.626  14.986   7.389  0.00  0.00     0.217 HD
ENDBRANCH  22  26
ENDBRANCH  15  18
ENDBRANCH   1  15
TORSDOF 10
ENDMDL
MODEL 3
REMARK VINA RESULT:      -6.7     18.827     22.569
REMARK  10 active torsions:
REMARK  status: ('A' for Active; 'I' for Inactive)
REMARK    1  A    between atoms: O_1  and  C_9 
REMARK    2  A    between atoms: O_2  and  C_17 
REMARK    3  A    between atoms: O_3  and  C_18 
REMARK    4  A    between atoms: O_4  and  C_21 
REMARK    5  A    between atoms: N_5  and  C_6 
REMARK    6  A    between atoms: N_5  and  C_8 
REMARK    7  A    between atoms: C_6  and  C_7 
REMARK    8  A    between atoms: C_7  and  C_11 
REMARK    9  A    between atoms: C_8  and  C_9 
REMARK   10  A    between atoms: C_9  and  C_12 
ROOT
HETATM    1  C   UNK N   1      28.254  22.953  -6.977  0.00  0.00     0.150 C 
ENDROOT
BRANCH   1   2
HETATM    2  N   UNK N   1      27.336  23.997  -7.403  0.00  0.00    -0.414 N 
HETATM    3  H   UNK N   1      27.596  24.869  -7.862  0.00  0.00     0.153 HD
BRANCH   2   4
HETATM    4  C   UNK N   1      25.986  23.586  -7.062  0.00  0.00     0.076 C 
HETATM    5  C   UNK N   1      25.837  22.128  -7.467  0.00  0.00     0.032 C 
BRANCH   4   6
HETATM    6  C   UNK N   1      25.793  23.755  -5.551  0.00  0.00     0.062 C 
BRANCH   6   7
HETATM    7  C   UNK N   1      25.804  25.167  -5.032  0.00  0.00    -0.056 A 
HETATM    8  C   UNK N   1      25.174  26.220  -5.716  0.00  0.00     0.010 A 
HETATM    9  C   UNK N   1      25.147  27.503  -5.165  0.00  0.00     0.037 A 
HETATM   10  C   UNK N   1      25.749  27.743  -3.927  0.00  0.00     0.065 A 
HETATM   11  C   UNK N   1      26.393  26.703  -3.250  0.00  0.00     0.037 A 
HETATM   12  C   UNK N   1      26.421  25.420  -3.802  0.00  0.00     0.010 A 
BRANCH  10  13
HETATM   13  O   UNK N   1      25.705  28.971  -3.387  0.00  0.00    -0.361 OA
HETATM   14  H   UNK N   1      26.410  29.272  -2.849  0.00  0.00     0.217 HD
ENDBRANCH  10  13
ENDBRANCH   6   7
ENDBRANCH   4   6
ENDBRANCH   2   4
ENDBRANCH   1   2
BRANCH   1  15
HETATM   15  C   UNK N   1      29.481  23.574  -6.305  0.00  0.00     0.168 C 
BRANCH  15  16
HETATM   16  O   UNK N   1      29.198  24.886  -5.911  0.00  0.00    -0.389 OA
HETATM   17  H   UNK N   1      28.433  25.456  -5.734  0.00  0.00     0.210 HD
ENDBRANCH  15  16
BRANCH  15  18
HETATM   18  C   UNK N   1      30.031  22.786  -5.141  0.00  0.00    -0.023 A 
HETATM   19  C   UNK N   1      30.617  21.519  -5.311  0.00  0.00     0.046 A 
HETATM   20  C   UNK N   1      31.136  20.829  -4.211  0.00  0.00     0.069 A 
HETATM   21  C   UNK N   1      31.077  21.399  -2.938  0.00  0.00     0.073 A 
HETATM   22  C   UNK N   1      30.498  22.658  -2.760  0.00  0.00     0.069 A 
HETATM   23  C   UNK N   1      29.980  23.349  -3.860  0.00  0.00     0.046 A 
BRANCH  20  24
HETATM   24  O   UNK N   1      31.696  19.620  -4.380  0.00  0.00    -0.361 OA
HETATM   25  H   UNK N   1      31.172  18.846  -4.309  0.00  0.00     0.217 HD
ENDBRANCH  20  24
BRANCH  22  26
HETATM   26  O   UNK N   1      30.443  23.207  -1.538  0.00  0.00    -0.361 OA
HETATM   27  H   UNK N   1      30.196  22.693  -0.795  0.00  0.00     0.217 HD
ENDBRANCH  22  26
ENDBRANCH  15  18
ENDBRANCH   1  15
TORSDOF 10
ENDMDL
MODEL 4
REMARK VINA RESULT:      -6.7     19.483     23.279
REMARK  10 active torsions:
REMARK  status: ('A' for Active; 'I' for Inactive)
REMARK    1  A    between atoms: O_1  and  C_9 
REMARK    2  A    between atoms: O_2  and  C_17 
REMARK    3  A    between atoms: O_3  and  C_18 
REMARK    4  A    between atoms: O_4  and  C_21 
REMARK    5  A    between atoms: N_5  and  C_6 
REMARK    6  A    between atoms: N_5  and  C_8 
REMARK    7  A    between atoms: C_6  and  C_7 
REMARK    8  A    between atoms: C_7  and  C_11 
REMARK    9  A    between atoms: C_8  and  C_9 
REMARK   10  A    between atoms: C_9  and  C_12 
ROOT
HETATM    1  C   UNK N   1      26.373  23.557  -5.601  0.00  0.00     0.150 C 
ENDROOT
BRANCH   1   2
HETATM    2  N   UNK N   1      25.414  24.390  -6.308  0.00  0.00    -0.414 N 
HETATM    3  H   UNK N   1      24.430  24.501  -6.069  0.00  0.00     0.153 HD
BRANCH   2   4
HETATM    4  C   UNK N   1      26.098  25.035  -7.414  0.00  0.00     0.076 C 
HETATM    5  C   UNK N   1      25.576  24.411  -8.699  0.00  0.00     0.032 C 
BRANCH   4   6
HETATM    6  C   UNK N   1      25.788  26.535  -7.371  0.00  0.00     0.062 C 
BRANCH   6   7
HETATM    7  C   UNK N   1      26.109  27.245  -6.084  0.00  0.00    -0.056 A 
HETATM    8  C   UNK N   1      25.142  27.456  -5.086  0.00  0.00     0.010 A 
HETATM    9  C   UNK N   1      25.497  28.055  -3.876  0.00  0.00     0.037 A 
HETATM   10  C   UNK N   1      26.819  28.449  -3.653  0.00  0.00     0.065 A 
HETATM   11  C   UNK N   1      27.781  28.258  -4.650  0.00  0.00     0.037 A 
HETATM   12  C   UNK N   1      27.426  27.658  -5.860  0.00  0.00     0.010 A 
BRANCH  10  13
HETATM   13  O   UNK N   1      27.165  29.005  -2.483  0.00  0.00    -0.361 OA
HETATM   14  H   UNK N   1      27.584  28.488  -1.822  0.00  0.00     0.217 HD
ENDBRANCH  10  13
ENDBRANCH   6   7
ENDBRANCH   4   6
ENDBRANCH   2   4
ENDBRANCH   1   2
BRANCH   1  15
HETATM   15  C   UNK N   1      26.888  24.286  -4.357  0.00  0.00     0.168 C 
BRANCH  15  16
HETATM   16  O   UNK N   1      26.153  23.893  -3.234  0.00  0.00    -0.389 OA
HETATM   17  H   UNK N   1      26.067  23.135  -2.635  0.00  0.00     0.210 HD
ENDBRANCH  15  16
BRANCH  15  18
HETATM   18  C   UNK N   1      28.365  24.128  -4.097  0.00  0.00    -0.023 A 
HETATM   19  C   UNK N   1      28.856  23.593  -2.893  0.00  0.00     0.046 A 
HETATM   20  C   UNK N   1      30.232  23.440  -2.697  0.00  0.00     0.069 A 
HETATM   21  C   UNK N   1      31.126  23.819  -3.701  0.00  0.00     0.073 A 
HETATM   22  C   UNK N   1      30.647  24.351  -4.902  0.00  0.00     0.069 A 
HETATM   23  C   UNK N   1      29.271  24.501  -5.098  0.00  0.00     0.046 A 
BRANCH  20  24
HETATM   24  O   UNK N   1      30.694  22.926  -1.546  0.00  0.00    -0.361 OA
HETATM   25  H   UNK N   1      30.999  23.496  -0.866  0.00  0.00     0.217 HD
ENDBRANCH  20  24
BRANCH  22  26
HETATM   26  O   UNK N   1      31.505  24.712  -5.867  0.00  0.00    -0.361 OA
HETATM   27  H   UNK N   1      31.705  25.615  -6.015  0.00  0.00     0.217 HD
ENDBRANCH  22  26
ENDBRANCH  15  18
ENDBRANCH   1  15
TORSDOF 10
ENDMDL
MODEL 5
REMARK VINA RESULT:      -6.6     19.210     22.431
REMARK  10 active torsions:
REMARK  status: ('A' for Active; 'I' for Inactive)
REMARK    1  A    between atoms: O_1  and  C_9 
REMARK    2  A    between atoms: O_2  and  C_17 
REMARK    3  A    between atoms: O_3  and  C_18 
REMARK    4  A    between atoms: O_4  and  C_21 
REMARK    5  A    between atoms: N_5  and  C_6 
REMARK    6  A    between atoms: N_5  and  C_8 
REMARK    7  A    between atoms: C_6  and  C_7 
REMARK    8  A    between atoms: C_7  and  C_11 
REMARK    9  A    between atoms: C_8  and  C_9 
REMARK   10  A    between atoms: C_9  and  C_12 
ROOT
HETATM    1  C   UNK N   1      26.431  21.911  -7.704  0.00  0.00     0.150 C 
ENDROOT
BRANCH   1   2
HETATM    2  N   UNK N   1      27.760  21.883  -8.292  0.00  0.00    -0.414 N 
HETATM    3  H   UNK N   1      27.998  22.162  -9.243  0.00  0.00     0.153 HD
BRANCH   2   4
HETATM    4  C   UNK N   1      28.691  21.389  -7.294  0.00  0.00     0.076 C 
HETATM    5  C   UNK N   1      29.457  20.234  -7.917  0.00  0.00     0.032 C 
BRANCH   4   6
HETATM    6  C   UNK N   1      29.640  22.527  -6.905  0.00  0.00     0.062 C 
BRANCH   6   7
HETATM    7  C   UNK N   1      29.895  22.708  -5.433  0.00  0.00    -0.056 A 
HETATM    8  C   UNK N   1      29.793  23.961  -4.806  0.00  0.00     0.010 A 
HETATM    9  C   UNK N   1      29.968  24.074  -3.425  0.00  0.00     0.037 A 
HETATM   10  C   UNK N   1      30.247  22.937  -2.661  0.00  0.00     0.065 A 
HETATM   11  C   UNK N   1      30.368  21.691  -3.283  0.00  0.00     0.037 A 
HETATM   12  C   UNK N   1      30.193  21.578  -4.664  0.00  0.00     0.010 A 
BRANCH  10  13
HETATM   13  O   UNK N   1      30.395  23.042  -1.332  0.00  0.00    -0.361 OA
HETATM   14  H   UNK N   1      30.809  23.798  -0.964  0.00  0.00     0.217 HD
ENDBRANCH  10  13
ENDBRANCH   6   7
ENDBRANCH   4   6
ENDBRANCH   2   4
ENDBRANCH   1   2
BRANCH   1  15
HETATM   15  C   UNK N   1      25.804  23.295  -7.884  0.00  0.00     0.168 C 
BRANCH  15  16
HETATM   16  O   UNK N   1      24.462  23.167  -8.258  0.00  0.00    -0.389 OA
HETATM   17  H   UNK N   1      23.731  23.713  -8.589  0.00  0.00     0.210 HD
ENDBRANCH  15  16
BRANCH  15  18
HETATM   18  C   UNK N   1      25.929  24.207  -6.688  0.00  0.00    -0.023 A 
HETATM   19  C   UNK N   1      25.827  25.604  -6.803  0.00  0.00     0.046 A 
HETATM   20  C   UNK N   1      25.926  26.415  -5.668  0.00  0.00     0.069 A 
HETATM   21  C   UNK N   1      26.126  25.838  -4.413  0.00  0.00     0.073 A 
HETATM   22  C   UNK N   1      26.227  24.449  -4.289  0.00  0.00     0.069 A 
HETATM   23  C   UNK N   1      26.126  23.638  -5.423  0.00  0.00     0.046 A 
BRANCH  20  24
HETATM   24  O   UNK N   1      25.825  27.749  -5.785  0.00  0.00    -0.361 OA
HETATM   25  H   UNK N   1      26.571  28.293  -5.619  0.00  0.00     0.217 HD
ENDBRANCH  20  24
BRANCH  22  26
HETATM   26  O   UNK N   1      26.417  23.893  -3.083  0.00  0.00    -0.361 OA
HETATM   27  H   UNK N   1      25.899  24.159  -2.349  0.00  0.00     0.217 HD
ENDBRANCH  22  26
ENDBRANCH  15  18
ENDBRANCH   1  15
TORSDOF 10
ENDMDL
MODEL 6
REMARK VINA RESULT:      -6.6     12.041     15.009
REMARK  10 active torsions:
REMARK  status: ('A' for Active; 'I' for Inactive)
REMARK    1  A    between atoms: O_1  and  C_9 
REMARK    2  A    between atoms: O_2  and  C_17 
REMARK    3  A    between atoms: O_3  and  C_18 
REMARK    4  A    between atoms: O_4  and  C_21 
REMARK    5  A    between atoms: N_5  and  C_6 
REMARK    6  A    between atoms: N_5  and  C_8 
REMARK    7  A    between atoms: C_6  and  C_7 
REMARK    8  A    between atoms: C_7  and  C_11 
REMARK    9  A    between atoms: C_8  and  C_9 
REMARK   10  A    between atoms: C_9  and  C_12 
ROOT
HETATM    1  C   UNK N   1      22.556  16.793   5.752  0.00  0.00     0.150 C 
ENDROOT
BRANCH   1   2
HETATM    2  N   UNK N   1      22.088  15.450   6.049  0.00  0.00    -0.414 N 
HETATM    3  H   UNK N   1      22.083  14.662   5.402  0.00  0.00     0.153 HD
BRANCH   2   4
HETATM    4  C   UNK N   1      21.624  15.421   7.424  0.00  0.00     0.076 C 
HETATM    5  C   UNK N   1      20.301  16.167   7.476  0.00  0.00     0.032 C 
BRANCH   4   6
HETATM    6  C   UNK N   1      21.445  13.960   7.849  0.00  0.00     0.062 C 
BRANCH   6   7
HETATM    7  C   UNK N   1      22.395  13.449   8.898  0.00  0.00    -0.056 A 
HETATM    8  C   UNK N   1      21.950  12.984  10.146  0.00  0.00     0.010 A 
HETATM    9  C   UNK N   1      22.858  12.451  11.065  0.00  0.00     0.037 A 
HETATM   10  C   UNK N   1      24.215  12.381  10.743  0.00  0.00     0.065 A 
HETATM   11  C   UNK N   1      24.666  12.859   9.509  0.00  0.00     0.037 A 
HETATM   12  C   UNK N   1      23.759  13.391   8.591  0.00  0.00     0.010 A 
BRANCH  10  13
HETATM   13  O   UNK N   1      25.085  11.850  11.616  0.00  0.00    -0.361 OA
HETATM   14  H   UNK N   1      25.937  11.586  11.329  0.00  0.00     0.217 HD
ENDBRANCH  10  13
ENDBRANCH   6   7
ENDBRANCH   4   6
ENDBRANCH   2   4
ENDBRANCH   1   2
BRANCH   1  15
HETATM   15  C   UNK N   1      22.676  16.986   4.238  0.00  0.00     0.168 C 
BRANCH  15  16
HETATM   16  O   UNK N   1      22.416  15.779   3.581  0.00  0.00    -0.389 OA
HETATM   17  H   UNK N   1      21.717  15.109   3.513  0.00  0.00     0.210 HD
ENDBRANCH  15  16
BRANCH  15  18
HETATM   18  C   UNK N   1      21.815  18.087   3.671  0.00  0.00    -0.023 A 
HETATM   19  C   UNK N   1      22.308  19.389   3.468  0.00  0.00     0.046 A 
HETATM   20  C   UNK N   1      21.486  20.377   2.918  0.00  0.00     0.069 A 
HETATM   21  C   UNK N   1      20.169  20.074   2.566  0.00  0.00     0.073 A 
HETATM   22  C   UNK N   1      19.671  18.783   2.763  0.00  0.00     0.069 A 
HETATM   23  C   UNK N   1      20.494  17.794   3.310  0.00  0.00     0.046 A 
BRANCH  20  24
HETATM   24  O   UNK N   1      21.964  21.617   2.726  0.00  0.00    -0.361 OA
HETATM   25  H   UNK N   1      21.431  22.267   2.310  0.00  0.00     0.217 HD
ENDBRANCH  20  24
BRANCH  22  26
HETATM   26  O   UNK N   1      18.407  18.491   2.422  0.00  0.00    -0.361 OA
HETATM   27  H   UNK N   1      18.035  18.830   1.632  0.00  0.00     0.217 HD
ENDBRANCH  22  26
ENDBRANCH  15  18
ENDBRANCH   1  15
TORSDOF 10
ENDMDL
MODEL 7
REMARK VINA RESULT:      -6.6     10.151     13.829
REMARK  10 active torsions:
REMARK  status: ('A' for Active; 'I' for Inactive)
REMARK    1  A    between atoms: O_1  and  C_9 
REMARK    2  A    between atoms: O_2  and  C_17 
REMARK    3  A    between atoms: O_3  and  C_18 
REMARK    4  A    between atoms: O_4  and  C_21 
REMARK    5  A    between atoms: N_5  and  C_6 
REMARK    6  A    between atoms: N_5  and  C_8 
REMARK    7  A    between atoms: C_6  and  C_7 
REMARK    8  A    between atoms: C_7  and  C_11 
REMARK    9  A    between atoms: C_8  and  C_9 
REMARK   10  A    between atoms: C_9  and  C_12 
ROOT
HETATM    1  C   UNK N   1      24.812  19.082   4.256  0.00  0.00     0.150 C 
ENDROOT
BRANCH   1   2
HETATM    2  N   UNK N   1      25.459  19.227   5.550  0.00  0.00    -0.414 N 
HETATM    3  H   UNK N   1      25.001  19.502   6.418  0.00  0.00     0.153 HD
BRANCH   2   4
HETATM    4  C   UNK N   1      26.868  18.916   5.394  0.00  0.00     0.076 C 
HETATM    5  C   UNK N   1      27.319  19.497   4.064  0.00  0.00     0.032 C 
BRANCH   4   6
HETATM    6  C   UNK N   1      27.639  19.551   6.556  0.00  0.00     0.062 C 
BRANCH   6   7
HETATM    7  C   UNK N   1      28.542  18.634   7.336  0.00  0.00    -0.056 A 
HETATM    8  C   UNK N   1      29.435  17.751   6.705  0.00  0.00     0.010 A 
HETATM    9  C   UNK N   1      30.307  16.968   7.465  0.00  0.00     0.037 A 
HETATM   10  C   UNK N   1      30.293  17.061   8.859  0.00  0.00     0.065 A 
HETATM   11  C   UNK N   1      29.394  17.924   9.492  0.00  0.00     0.037 A 
HETATM   12  C   UNK N   1      28.522  18.707   8.733  0.00  0.00     0.010 A 
BRANCH  10  13
HETATM   13  O   UNK N   1      31.145  16.324   9.589  0.00  0.00    -0.361 OA
HETATM   14  H   UNK N   1      32.056  16.304   9.368  0.00  0.00     0.217 HD
ENDBRANCH  10  13
ENDBRANCH   6   7
ENDBRANCH   4   6
ENDBRANCH   2   4
ENDBRANCH   1   2
BRANCH   1  15
HETATM   15  C   UNK N   1      23.581  18.181   4.381  0.00  0.00     0.168 C 
BRANCH  15  16
HETATM   16  O   UNK N   1      23.343  17.881   5.726  0.00  0.00    -0.389 OA
HETATM   17  H   UNK N   1      23.712  18.072   6.603  0.00  0.00     0.210 HD
ENDBRANCH  15  16
BRANCH  15  18
HETATM   18  C   UNK N   1      22.330  18.726   3.737  0.00  0.00    -0.023 A 
HETATM   19  C   UNK N   1      22.302  19.988   3.116  0.00  0.00     0.046 A 
HETATM   20  C   UNK N   1      21.129  20.450   2.510  0.00  0.00     0.069 A 
HETATM   21  C   UNK N   1      19.980  19.656   2.518  0.00  0.00     0.073 A 
HETATM   22  C   UNK N   1      20.000  18.401   3.131  0.00  0.00     0.069 A 
HETATM   23  C   UNK N   1      21.173  17.938   3.736  0.00  0.00     0.046 A 
BRANCH  20  24
HETATM   24  O   UNK N   1      21.110  21.654   1.917  0.00  0.00    -0.361 OA
HETATM   25  H   UNK N   1      21.089  22.434   2.438  0.00  0.00     0.217 HD
ENDBRANCH  20  24
BRANCH  22  26
HETATM   26  O   UNK N   1      18.897  17.637   3.137  0.00  0.00    -0.361 OA
HETATM   27  H   UNK N   1      18.734  17.030   2.442  0.00  0.00     0.217 HD
ENDBRANCH  22  26
ENDBRANCH  15  18
ENDBRANCH   1  15
TORSDOF 10
ENDMDL
MODEL 8
REMARK VINA RESULT:      -6.6     18.788     22.513
REMARK  10 active torsions:
REMARK  status: ('A' for Active; 'I' for Inactive)
REMARK    1  A    between atoms: O_1  and  C_9 
REMARK    2  A    between atoms: O_2  and  C_17 
REMARK    3  A    between atoms: O_3  and  C_18 
REMARK    4  A    between atoms: O_4  and  C_21 
REMARK    5  A    between atoms: N_5  and  C_6 
REMARK    6  A    between atoms: N_5  and  C_8 
REMARK    7  A    between atoms: C_6  and  C_7 
REMARK    8  A    between atoms: C_7  and  C_11 
REMARK    9  A    between atoms: C_8  and  C_9 
REMARK   10  A    between atoms: C_9  and  C_12 
ROOT
HETATM    1  C   UNK N   1      28.342  23.034  -6.927  0.00  0.00     0.150 C 
ENDROOT
BRANCH   1   2
HETATM    2  N   UNK N   1      27.473  24.114  -7.364  0.00  0.00    -0.414 N 
HETATM    3  H   UNK N   1      27.778  25.003  -7.758  0.00  0.00     0.153 HD
BRANCH   2   4
HETATM    4  C   UNK N   1      26.096  23.711  -7.142  0.00  0.00     0.076 C 
HETATM    5  C   UNK N   1      25.936  22.307  -7.700  0.00  0.00     0.032 C 
BRANCH   4   6
HETATM    6  C   UNK N   1      25.818  23.735  -5.635  0.00  0.00     0.062 C 
BRANCH   6   7
HETATM    7  C   UNK N   1      25.768  25.093  -4.989  0.00  0.00    -0.056 A 
HETATM    8  C   UNK N   1      26.444  25.375  -3.790  0.00  0.00     0.010 A 
HETATM    9  C   UNK N   1      26.430  26.667  -3.260  0.00  0.00     0.037 A 
HETATM   10  C   UNK N   1      25.740  27.686  -3.923  0.00  0.00     0.065 A 
HETATM   11  C   UNK N   1      25.050  27.406  -5.106  0.00  0.00     0.037 A 
HETATM   12  C   UNK N   1      25.064  26.114  -5.636  0.00  0.00     0.010 A 
BRANCH  10  13
HETATM   13  O   UNK N   1      25.744  28.932  -3.425  0.00  0.00    -0.361 OA
HETATM   14  H   UNK N   1      25.001  29.489  -3.550  0.00  0.00     0.217 HD
ENDBRANCH  10  13
ENDBRANCH   6   7
ENDBRANCH   4   6
ENDBRANCH   2   4
ENDBRANCH   1   2
BRANCH   1  15
HETATM   15  C   UNK N   1      29.622  23.605  -6.312  0.00  0.00     0.168 C 
BRANCH  15  16
HETATM   16  O   UNK N   1      29.444  24.958  -6.008  0.00  0.00    -0.389 OA
HETATM   17  H   UNK N   1      29.124  25.518  -5.283  0.00  0.00     0.210 HD
ENDBRANCH  15  16
BRANCH  15  18
HETATM   18  C   UNK N   1      30.130  22.859  -5.102  0.00  0.00    -0.023 A 
HETATM   19  C   UNK N   1      30.031  23.392  -3.804  0.00  0.00     0.046 A 
HETATM   20  C   UNK N   1      30.492  22.661  -2.704  0.00  0.00     0.069 A 
HETATM   21  C   UNK N   1      31.052  21.396  -2.892  0.00  0.00     0.073 A 
HETATM   22  C   UNK N   1      31.153  20.859  -4.179  0.00  0.00     0.069 A 
HETATM   23  C   UNK N   1      30.690  21.588  -5.278  0.00  0.00     0.046 A 
BRANCH  20  24
HETATM   24  O   UNK N   1      30.393  23.175  -1.468  0.00  0.00    -0.361 OA
HETATM   25  H   UNK N   1      31.095  23.685  -1.113  0.00  0.00     0.217 HD
ENDBRANCH  20  24
BRANCH  22  26
HETATM   26  O   UNK N   1      31.689  19.642  -4.359  0.00  0.00    -0.361 OA
HETATM   27  H   UNK N   1      32.468  19.392  -3.904  0.00  0.00     0.217 HD
ENDBRANCH  22  26
ENDBRANCH  15  18
ENDBRANCH   1  15
TORSDOF 10
ENDMDL
MODEL 9
REMARK VINA RESULT:      -6.5      4.027      8.824
REMARK  10 active torsions:
REMARK  status: ('A' for Active; 'I' for Inactive)
REMARK    1  A    between atoms: O_1  and  C_9 
REMARK    2  A    between atoms: O_2  and  C_17 
REMARK    3  A    between atoms: O_3  and  C_18 
REMARK    4  A    between atoms: O_4  and  C_21 
REMARK    5  A    between atoms: N_5  and  C_6 
REMARK    6  A    between atoms: N_5  and  C_8 
REMARK    7  A    between atoms: C_6  and  C_7 
REMARK    8  A    between atoms: C_7  and  C_11 
REMARK    9  A    between atoms: C_8  and  C_9 
REMARK   10  A    between atoms: C_9  and  C_12 
ROOT
HETATM    1  C   UNK N   1      34.097  15.859   8.563  0.00  0.00     0.150 C 
ENDROOT
BRANCH   1   2
HETATM    2  N   UNK N   1      34.378  16.521   7.299  0.00  0.00    -0.414 N 
HETATM    3  H   UNK N   1      35.264  16.496   6.796  0.00  0.00     0.153 HD
BRANCH   2   4
HETATM    4  C   UNK N   1      33.181  17.226   6.877  0.00  0.00     0.076 C 
HETATM    5  C   UNK N   1      33.290  17.452   5.378  0.00  0.00     0.032 C 
BRANCH   4   6
HETATM    6  C   UNK N   1      31.962  16.360   7.212  0.00  0.00     0.062 C 
BRANCH   6   7
HETATM    7  C   UNK N   1      30.724  17.095   7.651  0.00  0.00    -0.056 A 
HETATM    8  C   UNK N   1      30.689  17.863   8.826  0.00  0.00     0.010 A 
HETATM    9  C   UNK N   1      29.543  18.587   9.162  0.00  0.00     0.037 A 
HETATM   10  C   UNK N   1      28.424  18.548   8.326  0.00  0.00     0.065 A 
HETATM   11  C   UNK N   1      28.446  17.771   7.165  0.00  0.00     0.037 A 
HETATM   12  C   UNK N   1      29.593  17.047   6.829  0.00  0.00     0.010 A 
BRANCH  10  13
HETATM   13  O   UNK N   1      27.330  19.260   8.637  0.00  0.00    -0.361 OA
HETATM   14  H   UNK N   1      26.905  19.131   9.462  0.00  0.00     0.217 HD
ENDBRANCH  10  13
ENDBRANCH   6   7
ENDBRANCH   4   6
ENDBRANCH   2   4
ENDBRANCH   1   2
BRANCH   1  15
HETATM   15  C   UNK N   1      35.145  16.253   9.607  0.00  0.00     0.168 C 
BRANCH  15  16
HETATM   16  O   UNK N   1      34.671  17.316  10.382  0.00  0.00    -0.389 OA
HETATM   17  H   UNK N   1      33.863  17.594  10.842  0.00  0.00     0.210 HD
ENDBRANCH  15  16
BRANCH  15  18
HETATM   18  C   UNK N   1      35.608  15.124  10.495  0.00  0.00    -0.023 A 
HETATM   19  C   UNK N   1      34.747  14.501  11.416  0.00  0.00     0.046 A 
HETATM   20  C   UNK N   1      35.207  13.442  12.206  0.00  0.00     0.069 A 
HETATM   21  C   UNK N   1      36.525  12.999  12.082  0.00  0.00     0.073 A 
HETATM   22  C   UNK N   1      37.386  13.612  11.168  0.00  0.00     0.069 A 
HETATM   23  C   UNK N   1      36.927  14.669  10.376  0.00  0.00     0.046 A 
BRANCH  20  24
HETATM   24  O   UNK N   1      34.379  12.850  13.082  0.00  0.00    -0.361 OA
HETATM   25  H   UNK N   1      33.517  13.193  13.220  0.00  0.00     0.217 HD
ENDBRANCH  20  24
BRANCH  22  26
HETATM   26  O   UNK N   1      38.652  13.185  11.046  0.00  0.00    -0.361 OA
HETATM   27  H   UNK N   1      39.259  13.285  11.752  0.00  0.00     0.217 HD
ENDBRANCH  22  26
ENDBRANCH  15  18
ENDBRANCH   1  15
TORSDOF 10
ENDMDL
