MODEL 1
REMARK VINA RESULT:      -7.8      0.000      0.000
REMARK  7 active torsions:
REMARK  status: ('A' for Active; 'I' for Inactive)
REMARK    1  A    between atoms: S_1  and  N_9 
REMARK    2  A    between atoms: S_1  and  C_20 
REMARK    3  A    between atoms: N_7  and  N_8 
REMARK       I    between atoms: N_8  and  C_19 
REMARK       I    between atoms: N_9  and  C_19 
REMARK    4  A    between atoms: N_10  and  C_25 
REMARK       I    between atoms: N_10  and  C_28 
REMARK    5  A    between atoms: C_21  and  C_22 
REMARK    6  A    between atoms: C_22  and  C_25 
REMARK    7  A    between atoms: C_28  and  C_29 
ROOT
HETATM    1  C   UNK N   1      34.291  16.332   7.207  0.00  0.00     0.080 A 
HETATM    2  C   UNK N   1      33.629  16.304   4.471  0.00  0.00    -0.057 A 
HETATM    3  C   UNK N   1      33.722  17.480   6.567  0.00  0.00     0.026 A 
HETATM    4  C   UNK N   1      34.567  15.208   6.417  0.00  0.00     0.026 A 
HETATM    5  C   UNK N   1      33.376  17.449   5.222  0.00  0.00     0.009 A 
HETATM    6  C   UNK N   1      34.240  15.193   5.063  0.00  0.00     0.009 A 
ENDROOT
BRANCH   1   7
HETATM    7  S   UNK N   1      34.669  16.198   9.023  0.00  0.00     0.266 S 
HETATM    8  O   UNK N   1      35.688  15.267   8.340  0.00  0.00    -0.200 OA
HETATM    9  O   UNK N   1      33.236  15.762   8.667  0.00  0.00    -0.200 OA
BRANCH   7  10
HETATM   10  N   UNK N   1      34.466  14.710   9.996  0.00  0.00    -0.231 N 
HETATM   11  C   UNK N   1      34.703  14.549  11.335  0.00  0.00     0.344 C 
HETATM   12  O   UNK N   1      35.081  15.491  12.020  0.00  0.00    -0.245 OA
HETATM   13  N   UNK N   1      34.568  13.325  11.893  0.00  0.00    -0.270 N 
HETATM   14  H   UNK N   1      34.220  12.583  11.348  0.00  0.00     0.185 HD
HETATM   15  H   UNK N   1      34.148  13.914   9.511  0.00  0.00     0.183 HD
BRANCH  13  16
HETATM   16  N   UNK N   1      34.911  13.092  13.220  0.00  0.00    -0.227 NA
HETATM   17  C   UNK N   1      36.370  13.177  13.315  0.00  0.00     0.113 C 
HETATM   18  C   UNK N   1      36.940  12.560  14.601  0.00  0.00     0.016 C 
HETATM   19  C   UNK N   1      36.261  13.038  15.890  0.00  0.00     0.001 C 
HETATM   20  C   UNK N   1      34.730  12.916  15.906  0.00  0.00     0.001 C 
HETATM   21  C   UNK N   1      34.186  11.701  15.141  0.00  0.00     0.016 C 
HETATM   22  C   UNK N   1      34.431  11.764  13.624  0.00  0.00     0.113 C 
ENDBRANCH  13  16
ENDBRANCH   7  10
ENDBRANCH   1   7
BRANCH   2  23
HETATM   23  C   UNK N   1      32.979  16.144   3.141  0.00  0.00     0.058 C 
BRANCH  23  24
HETATM   24  C   UNK N   1      31.955  17.283   2.970  0.00  0.00     0.127 C 
BRANCH  24  25
HETATM   25  N   UNK N   1      30.660  16.739   2.599  0.00  0.00    -0.355 N 
HETATM   26  C   UNK N   1      29.656  16.482   3.479  0.00  0.00     0.270 C 
HETATM   27  O   UNK N   1      28.542  16.231   3.045  0.00  0.00    -0.266 OA
HETATM   28  H   UNK N   1      30.499  16.543   1.647  0.00  0.00     0.162 HD
BRANCH  26  29
HETATM   29  C   UNK N   1      29.865  16.491   4.944  0.00  0.00     0.124 A 
HETATM   30  N   UNK N   1      30.359  15.447   5.636  0.00  0.00    -0.256 N 
HETATM   31  O   UNK N   1      30.468  15.825   6.876  0.00  0.00    -0.242 OA
ATOM     32  HN  UNK N   1      30.603  14.531   5.260  1.00  0.00     0.195 HD
HETATM   33  C   UNK N   1      30.074  17.068   7.018  0.00  0.00     0.075 A 
HETATM   34  C   UNK N   1      29.669  17.559   5.800  0.00  0.00     0.071 A 
HETATM   35  C   UNK N   1      30.103  17.828   8.293  0.00  0.00     0.079 C 
ENDBRANCH  26  29
ENDBRANCH  24  25
ENDBRANCH  23  24
ENDBRANCH   2  23
TORSDOF 7
ENDMDL
MODEL 2
REMARK VINA RESULT:      -7.7      1.663      2.043
REMARK  7 active torsions:
REMARK  status: ('A' for Active; 'I' for Inactive)
REMARK    1  A    between atoms: S_1  and  N_9 
REMARK    2  A    between atoms: S_1  and  C_20 
REMARK    3  A    between atoms: N_7  and  N_8 
REMARK       I    between atoms: N_8  and  C_19 
REMARK       I    between atoms: N_9  and  C_19 
REMARK    4  A    between atoms: N_10  and  C_25 
REMARK       I    between atoms: N_10  and  C_28 
REMARK    5  A    between atoms: C_21  and  C_22 
REMARK    6  A    between atoms: C_22  and  C_25 
REMARK    7  A    between atoms: C_28  and  C_29 
ROOT
HETATM    1  C   UNK N   1      33.486  16.445   7.741  0.00  0.00     0.080 A 
HETATM    2  C   UNK N   1      31.951  17.137   5.484  0.00  0.00    -0.057 A 
HETATM    3  C   UNK N   1      32.107  16.072   7.636  0.00  0.00     0.026 A 
HETATM    4  C   UNK N   1      34.038  17.220   6.711  0.00  0.00     0.026 A 
HETATM    5  C   UNK N   1      31.364  16.397   6.508  0.00  0.00     0.009 A 
HETATM    6  C   UNK N   1      33.279  17.563   5.594  0.00  0.00     0.009 A 
ENDROOT
BRANCH   1   7
HETATM    7  S   UNK N   1      34.623  15.956   9.128  0.00  0.00     0.266 S 
HETATM    8  O   UNK N   1      35.063  15.087   7.934  0.00  0.00    -0.200 OA
HETATM    9  O   UNK N   1      33.138  15.703   9.443  0.00  0.00    -0.200 OA
BRANCH   7  10
HETATM   10  N   UNK N   1      34.660  14.336   9.888  0.00  0.00    -0.231 N 
HETATM   11  C   UNK N   1      34.699  14.041  11.224  0.00  0.00     0.344 C 
HETATM   12  O   UNK N   1      34.690  14.935  12.062  0.00  0.00    -0.245 OA
HETATM   13  N   UNK N   1      34.801  12.752  11.620  0.00  0.00    -0.270 N 
HETATM   14  H   UNK N   1      34.761  12.037  10.945  0.00  0.00     0.185 HD
HETATM   15  H   UNK N   1      34.653  13.568   9.272  0.00  0.00     0.183 HD
BRANCH  13  16
HETATM   16  N   UNK N   1      34.961  12.416  12.960  0.00  0.00    -0.227 NA
HETATM   17  C   UNK N   1      36.400  12.298  13.210  0.00  0.00     0.113 C 
HETATM   18  C   UNK N   1      36.738  11.554  14.510  0.00  0.00     0.016 C 
HETATM   19  C   UNK N   1      35.989  12.061  15.747  0.00  0.00     0.001 C 
HETATM   20  C   UNK N   1      34.462  12.147  15.597  0.00  0.00     0.001 C 
HETATM   21  C   UNK N   1      33.853  11.052  14.710  0.00  0.00     0.016 C 
HETATM   22  C   UNK N   1      34.272  11.149  13.232  0.00  0.00     0.113 C 
ENDBRANCH  13  16
ENDBRANCH   7  10
ENDBRANCH   1   7
BRANCH   2  23
HETATM   23  C   UNK N   1      31.280  17.207   4.157  0.00  0.00     0.058 C 
BRANCH  23  24
HETATM   24  C   UNK N   1      29.794  16.847   4.353  0.00  0.00     0.127 C 
BRANCH  24  25
HETATM   25  N   UNK N   1      28.963  18.018   4.132  0.00  0.00    -0.355 N 
HETATM   26  C   UNK N   1      28.305  18.687   5.116  0.00  0.00     0.270 C 
HETATM   27  O   UNK N   1      27.813  19.775   4.861  0.00  0.00    -0.266 OA
HETATM   28  H   UNK N   1      28.870  18.349   3.210  0.00  0.00     0.162 HD
BRANCH  26  29
HETATM   29  C   UNK N   1      28.161  18.143   6.485  0.00  0.00     0.124 A 
HETATM   30  N   UNK N   1      27.290  17.170   6.815  0.00  0.00    -0.256 N 
HETATM   31  O   UNK N   1      27.479  16.897   8.073  0.00  0.00    -0.242 OA
ATOM     32  HN  UNK N   1      26.611  16.729   6.196  1.00  0.00     0.195 HD
HETATM   33  C   UNK N   1      28.436  17.643   8.571  0.00  0.00     0.075 A 
HETATM   34  C   UNK N   1      28.921  18.475   7.591  0.00  0.00     0.071 A 
HETATM   35  C   UNK N   1      28.936  17.563   9.966  0.00  0.00     0.079 C 
ENDBRANCH  26  29
ENDBRANCH  24  25
ENDBRANCH  23  24
ENDBRANCH   2  23
TORSDOF 7
ENDMDL
MODEL 3
REMARK VINA RESULT:      -7.6      4.863     12.545
REMARK  7 active torsions:
REMARK  status: ('A' for Active; 'I' for Inactive)
REMARK    1  A    between atoms: S_1  and  N_9 
REMARK    2  A    between atoms: S_1  and  C_20 
REMARK    3  A    between atoms: N_7  and  N_8 
REMARK       I    between atoms: N_8  and  C_19 
REMARK       I    between atoms: N_9  and  C_19 
REMARK    4  A    between atoms: N_10  and  C_25 
REMARK       I    between atoms: N_10  and  C_28 
REMARK    5  A    between atoms: C_21  and  C_22 
REMARK    6  A    between atoms: C_22  and  C_25 
REMARK    7  A    between atoms: C_28  and  C_29 
ROOT
HETATM    1  C   UNK N   1      36.143  12.581  14.467  0.00  0.00     0.080 A 
HETATM    2  C   UNK N   1      35.717  11.473  17.021  0.00  0.00    -0.057 A 
HETATM    3  C   UNK N   1      36.826  11.394  14.887  0.00  0.00     0.026 A 
HETATM    4  C   UNK N   1      35.296  13.213  15.389  0.00  0.00     0.026 A 
HETATM    5  C   UNK N   1      36.591  10.841  16.140  0.00  0.00     0.009 A 
HETATM    6  C   UNK N   1      35.085  12.666  16.652  0.00  0.00     0.009 A 
ENDROOT
BRANCH   1   7
HETATM    7  S   UNK N   1      36.263  13.341  12.775  0.00  0.00     0.266 S 
HETATM    8  O   UNK N   1      36.407  14.526  13.749  0.00  0.00    -0.200 OA
HETATM    9  O   UNK N   1      34.927  12.617  13.022  0.00  0.00    -0.200 OA
BRANCH   7  10
HETATM   10  N   UNK N   1      35.071  14.486  12.089  0.00  0.00    -0.231 N 
HETATM   11  C   UNK N   1      34.801  14.718  10.766  0.00  0.00     0.344 C 
HETATM   12  O   UNK N   1      35.389  14.096   9.890  0.00  0.00    -0.245 OA
HETATM   13  N   UNK N   1      33.916  15.682  10.426  0.00  0.00    -0.270 N 
HETATM   14  H   UNK N   1      33.413  16.146  11.133  0.00  0.00     0.185 HD
HETATM   15  H   UNK N   1      34.549  15.011  12.738  0.00  0.00     0.183 HD
BRANCH  13  16
HETATM   16  N   UNK N   1      33.699  16.031   9.097  0.00  0.00    -0.227 NA
HETATM   17  C   UNK N   1      34.160  17.411   8.929  0.00  0.00     0.113 C 
HETATM   18  C   UNK N   1      33.637  18.082   7.650  0.00  0.00     0.016 C 
HETATM   19  C   UNK N   1      33.838  17.259   6.372  0.00  0.00     0.001 C 
HETATM   20  C   UNK N   1      33.317  15.816   6.436  0.00  0.00     0.001 C 
HETATM   21  C   UNK N   1      32.051  15.639   7.286  0.00  0.00     0.016 C 
HETATM   22  C   UNK N   1      32.271  15.908   8.785  0.00  0.00     0.113 C 
ENDBRANCH  13  16
ENDBRANCH   7  10
ENDBRANCH   1   7
BRANCH   2  23
HETATM   23  C   UNK N   1      35.217  10.732  18.211  0.00  0.00     0.058 C 
BRANCH  23  24
HETATM   24  C   UNK N   1      35.302  11.673  19.429  0.00  0.00     0.127 C 
BRANCH  24  25
HETATM   25  N   UNK N   1      35.984  11.007  20.527  0.00  0.00    -0.355 N 
HETATM   26  C   UNK N   1      35.427  10.036  21.297  0.00  0.00     0.270 C 
HETATM   27  O   UNK N   1      36.147   9.394  22.047  0.00  0.00    -0.266 OA
HETATM   28  H   UNK N   1      36.909  11.279  20.726  0.00  0.00     0.162 HD
BRANCH  26  29
HETATM   29  C   UNK N   1      33.979   9.729  21.264  0.00  0.00     0.124 A 
HETATM   30  N   UNK N   1      33.046  10.457  21.904  0.00  0.00    -0.256 N 
HETATM   31  O   UNK N   1      31.888   9.945  21.604  0.00  0.00    -0.242 OA
ATOM     32  HN  UNK N   1      33.213  11.260  22.509  1.00  0.00     0.195 HD
HETATM   33  C   UNK N   1      32.029   8.923  20.794  0.00  0.00     0.075 A 
HETATM   34  C   UNK N   1      33.363   8.729  20.534  0.00  0.00     0.071 A 
HETATM   35  C   UNK N   1      30.910   8.132  20.222  0.00  0.00     0.079 C 
ENDBRANCH  26  29
ENDBRANCH  24  25
ENDBRANCH  23  24
ENDBRANCH   2  23
TORSDOF 7
ENDMDL
MODEL 4
REMARK VINA RESULT:      -7.4      6.662     10.562
REMARK  7 active torsions:
REMARK  status: ('A' for Active; 'I' for Inactive)
REMARK    1  A    between atoms: S_1  and  N_9 
REMARK    2  A    between atoms: S_1  and  C_20 
REMARK    3  A    between atoms: N_7  and  N_8 
REMARK       I    between atoms: N_8  and  C_19 
REMARK       I    between atoms: N_9  and  C_19 
REMARK    4  A    between atoms: N_10  and  C_25 
REMARK       I    between atoms: N_10  and  C_28 
REMARK    5  A    between atoms: C_21  and  C_22 
REMARK    6  A    between atoms: C_22  and  C_25 
REMARK    7  A    between atoms: C_28  and  C_29 
ROOT
HETATM    1  C   UNK N   1      24.827  18.650   4.363  0.00  0.00     0.080 A 
HETATM    2  C   UNK N   1      22.634  19.966   3.186  0.00  0.00    -0.057 A 
HETATM    3  C   UNK N   1      23.484  18.200   4.580  0.00  0.00     0.026 A 
HETATM    4  C   UNK N   1      25.017  19.805   3.592  0.00  0.00     0.026 A 
HETATM    5  C   UNK N   1      22.411  18.841   3.975  0.00  0.00     0.009 A 
HETATM    6  C   UNK N   1      23.932  20.457   3.010  0.00  0.00     0.009 A 
ENDROOT
BRANCH   1   7
HETATM    7  S   UNK N   1      26.355  17.801   4.998  0.00  0.00     0.266 S 
HETATM    8  O   UNK N   1      26.543  19.283   5.374  0.00  0.00    -0.200 OA
HETATM    9  O   UNK N   1      26.173  17.664   3.475  0.00  0.00    -0.200 OA
BRANCH   7  10
HETATM   10  N   UNK N   1      28.010  18.095   4.384  0.00  0.00    -0.231 N 
HETATM   11  C   UNK N   1      29.101  17.277   4.501  0.00  0.00     0.344 C 
HETATM   12  O   UNK N   1      29.012  16.192   5.062  0.00  0.00    -0.245 OA
HETATM   13  N   UNK N   1      30.301  17.696   4.040  0.00  0.00    -0.270 N 
HETATM   14  H   UNK N   1      30.358  18.548   3.550  0.00  0.00     0.185 HD
HETATM   15  H   UNK N   1      28.151  18.944   3.907  0.00  0.00     0.183 HD
BRANCH  13  16
HETATM   16  N   UNK N   1      31.457  16.950   4.243  0.00  0.00    -0.227 NA
HETATM   17  C   UNK N   1      32.082  17.441   5.474  0.00  0.00     0.113 C 
HETATM   18  C   UNK N   1      33.548  17.013   5.631  0.00  0.00     0.016 C 
HETATM   19  C   UNK N   1      33.799  15.514   5.429  0.00  0.00     0.001 C 
HETATM   20  C   UNK N   1      33.239  14.928   4.124  0.00  0.00     0.001 C 
HETATM   21  C   UNK N   1      33.278  15.894   2.931  0.00  0.00     0.016 C 
HETATM   22  C   UNK N   1      32.354  17.114   3.093  0.00  0.00     0.113 C 
ENDBRANCH  13  16
ENDBRANCH   7  10
ENDBRANCH   1   7
BRANCH   2  23
HETATM   23  C   UNK N   1      21.552  20.455   2.287  0.00  0.00     0.058 C 
BRANCH  23  24
HETATM   24  C   UNK N   1      20.410  19.420   2.309  0.00  0.00     0.127 C 
BRANCH  24  25
HETATM   25  N   UNK N   1      20.341  18.727   1.034  0.00  0.00    -0.355 N 
HETATM   26  C   UNK N   1      20.233  17.378   0.900  0.00  0.00     0.270 C 
HETATM   27  O   UNK N   1      19.966  16.915  -0.198  0.00  0.00    -0.266 OA
HETATM   28  H   UNK N   1      20.375  19.269   0.213  0.00  0.00     0.162 HD
BRANCH  26  29
HETATM   29  C   UNK N   1      20.429  16.450   2.037  0.00  0.00     0.124 A 
HETATM   30  N   UNK N   1      19.465  16.140   2.924  0.00  0.00    -0.256 N 
HETATM   31  O   UNK N   1      19.963  15.256   3.738  0.00  0.00    -0.242 OA
ATOM     32  HN  UNK N   1      18.521  16.525   2.954  1.00  0.00     0.195 HD
HETATM   33  C   UNK N   1      21.202  14.974   3.415  0.00  0.00     0.075 A 
HETATM   34  C   UNK N   1      21.566  15.716   2.318  0.00  0.00     0.071 A 
HETATM   35  C   UNK N   1      22.054  13.976   4.109  0.00  0.00     0.079 C 
ENDBRANCH  26  29
ENDBRANCH  24  25
ENDBRANCH  23  24
ENDBRANCH   2  23
TORSDOF 7
ENDMDL
MODEL 5
REMARK VINA RESULT:      -7.4      6.660      9.974
REMARK  7 active torsions:
REMARK  status: ('A' for Active; 'I' for Inactive)
REMARK    1  A    between atoms: S_1  and  N_9 
REMARK    2  A    between atoms: S_1  and  C_20 
REMARK    3  A    between atoms: N_7  and  N_8 
REMARK       I    between atoms: N_8  and  C_19 
REMARK       I    between atoms: N_9  and  C_19 
REMARK    4  A    between atoms: N_10  and  C_25 
REMARK       I    between atoms: N_10  and  C_28 
REMARK    5  A    between atoms: C_21  and  C_22 
REMARK    6  A    between atoms: C_22  and  C_25 
REMARK    7  A    between atoms: C_28  and  C_29 
ROOT
HETATM    1  C   UNK N   1      25.195  18.665   3.729  0.00  0.00     0.080 A 
HETATM    2  C   UNK N   1      22.662  19.825   3.321  0.00  0.00    -0.057 A 
HETATM    3  C   UNK N   1      23.997  18.012   4.168  0.00  0.00     0.026 A 
HETATM    4  C   UNK N   1      25.075  19.931   3.140  0.00  0.00     0.026 A 
HETATM    5  C   UNK N   1      22.750  18.581   3.941  0.00  0.00     0.009 A 
HETATM    6  C   UNK N   1      23.823  20.506   2.939  0.00  0.00     0.009 A 
ENDROOT
BRANCH   1   7
HETATM    7  S   UNK N   1      26.907  17.949   3.847  0.00  0.00     0.266 S 
HETATM    8  O   UNK N   1      26.004  16.930   4.568  0.00  0.00    -0.200 OA
HETATM    9  O   UNK N   1      26.779  19.330   4.515  0.00  0.00    -0.200 OA
BRANCH   7  10
HETATM   10  N   UNK N   1      27.811  17.724   5.375  0.00  0.00    -0.231 N 
HETATM   11  C   UNK N   1      29.167  17.631   5.537  0.00  0.00     0.344 C 
HETATM   12  O   UNK N   1      29.919  17.721   4.574  0.00  0.00    -0.245 OA
HETATM   13  N   UNK N   1      29.676  17.382   6.764  0.00  0.00    -0.270 N 
HETATM   14  H   UNK N   1      29.072  17.356   7.540  0.00  0.00     0.185 HD
HETATM   15  H   UNK N   1      27.269  17.658   6.194  0.00  0.00     0.183 HD
BRANCH  13  16
HETATM   16  N   UNK N   1      31.036  17.164   6.954  0.00  0.00    -0.227 NA
HETATM   17  C   UNK N   1      31.251  15.714   6.937  0.00  0.00     0.113 C 
HETATM   18  C   UNK N   1      32.605  15.287   7.523  0.00  0.00     0.016 C 
HETATM   19  C   UNK N   1      33.811  16.044   6.955  0.00  0.00     0.001 C 
HETATM   20  C   UNK N   1      33.702  17.575   7.000  0.00  0.00     0.001 C 
HETATM   21  C   UNK N   1      32.944  18.118   8.220  0.00  0.00     0.016 C 
HETATM   22  C   UNK N   1      31.451  17.744   8.237  0.00  0.00     0.113 C 
ENDBRANCH  13  16
ENDBRANCH   7  10
ENDBRANCH   1   7
BRANCH   2  23
HETATM   23  C   UNK N   1      21.349  20.284   2.789  0.00  0.00     0.058 C 
BRANCH  23  24
HETATM   24  C   UNK N   1      20.418  19.060   2.694  0.00  0.00     0.127 C 
BRANCH  24  25
HETATM   25  N   UNK N   1      20.351  18.589   1.321  0.00  0.00    -0.355 N 
HETATM   26  C   UNK N   1      20.252  17.281   0.964  0.00  0.00     0.270 C 
HETATM   27  O   UNK N   1      19.987  17.006  -0.196  0.00  0.00    -0.266 OA
HETATM   28  H   UNK N   1      20.381  19.261   0.602  0.00  0.00     0.162 HD
BRANCH  26  29
HETATM   29  C   UNK N   1      20.456  16.177   1.930  0.00  0.00     0.124 A 
HETATM   30  N   UNK N   1      19.463  15.614   2.642  0.00  0.00    -0.256 N 
HETATM   31  O   UNK N   1      19.988  14.643   3.331  0.00  0.00    -0.242 OA
ATOM     32  HN  UNK N   1      18.483  15.894   2.643  1.00  0.00     0.195 HD
HETATM   33  C   UNK N   1      21.274  14.547   3.092  0.00  0.00     0.075 A 
HETATM   34  C   UNK N   1      21.642  15.516   2.190  0.00  0.00     0.071 A 
HETATM   35  C   UNK N   1      22.173  13.522   3.679  0.00  0.00     0.079 C 
ENDBRANCH  26  29
ENDBRANCH  24  25
ENDBRANCH  23  24
ENDBRANCH   2  23
TORSDOF 7
ENDMDL
MODEL 6
REMARK VINA RESULT:      -7.3      1.959      2.403
REMARK  7 active torsions:
REMARK  status: ('A' for Active; 'I' for Inactive)
REMARK    1  A    between atoms: S_1  and  N_9 
REMARK    2  A    between atoms: S_1  and  C_20 
REMARK    3  A    between atoms: N_7  and  N_8 
REMARK       I    between atoms: N_8  and  C_19 
REMARK       I    between atoms: N_9  and  C_19 
REMARK    4  A    between atoms: N_10  and  C_25 
REMARK       I    between atoms: N_10  and  C_28 
REMARK    5  A    between atoms: C_21  and  C_22 
REMARK    6  A    between atoms: C_22  and  C_25 
REMARK    7  A    between atoms: C_28  and  C_29 
ROOT
HETATM    1  C   UNK N   1      34.925  15.616   7.576  0.00  0.00     0.080 A 
HETATM    2  C   UNK N   1      33.640  16.969   5.468  0.00  0.00    -0.057 A 
HETATM    3  C   UNK N   1      34.338  16.908   7.769  0.00  0.00     0.026 A 
HETATM    4  C   UNK N   1      34.895  15.066   6.287  0.00  0.00     0.026 A 
HETATM    5  C   UNK N   1      33.685  17.557   6.729  0.00  0.00     0.009 A 
HETATM    6  C   UNK N   1      34.260  15.735   5.244  0.00  0.00     0.009 A 
ENDROOT
BRANCH   1   7
HETATM    7  S   UNK N   1      35.703  14.584   8.913  0.00  0.00     0.266 S 
HETATM    8  O   UNK N   1      34.620  13.678   8.298  0.00  0.00    -0.200 OA
HETATM    9  O   UNK N   1      35.065  15.882   9.442  0.00  0.00    -0.200 OA
BRANCH   7  10
HETATM   10  N   UNK N   1      34.857  14.026  10.388  0.00  0.00    -0.231 N 
HETATM   11  C   UNK N   1      35.397  13.379  11.467  0.00  0.00     0.344 C 
HETATM   12  O   UNK N   1      36.596  13.133  11.511  0.00  0.00    -0.245 OA
HETATM   13  N   UNK N   1      34.588  12.959  12.466  0.00  0.00    -0.270 N 
HETATM   14  H   UNK N   1      33.634  13.200  12.447  0.00  0.00     0.185 HD
HETATM   15  H   UNK N   1      33.889  14.205  10.427  0.00  0.00     0.183 HD
BRANCH  13  16
HETATM   16  N   UNK N   1      35.076  12.196  13.521  0.00  0.00    -0.227 NA
HETATM   17  C   UNK N   1      34.128  11.102  13.742  0.00  0.00     0.113 C 
HETATM   18  C   UNK N   1      34.296  10.408  15.102  0.00  0.00     0.016 C 
HETATM   19  C   UNK N   1      35.733   9.986  15.428  0.00  0.00     0.001 C 
HETATM   20  C   UNK N   1      36.787  11.095  15.292  0.00  0.00     0.001 C 
HETATM   21  C   UNK N   1      36.281  12.495  15.668  0.00  0.00     0.016 C 
HETATM   22  C   UNK N   1      35.200  13.038  14.718  0.00  0.00     0.113 C 
ENDBRANCH  13  16
ENDBRANCH   7  10
ENDBRANCH   1   7
BRANCH   2  23
HETATM   23  C   UNK N   1      32.683  17.489   4.452  0.00  0.00     0.058 C 
BRANCH  23  24
HETATM   24  C   UNK N   1      31.284  17.537   5.096  0.00  0.00     0.127 C 
BRANCH  24  25
HETATM   25  N   UNK N   1      30.318  16.871   4.239  0.00  0.00    -0.355 N 
HETATM   26  C   UNK N   1      29.024  17.263   4.095  0.00  0.00     0.270 C 
HETATM   27  O   UNK N   1      28.357  16.774   3.195  0.00  0.00    -0.266 OA
HETATM   28  H   UNK N   1      30.619  16.085   3.729  0.00  0.00     0.162 HD
BRANCH  26  29
HETATM   29  C   UNK N   1      28.392  18.257   4.991  0.00  0.00     0.124 A 
HETATM   30  N   UNK N   1      28.049  18.002   6.268  0.00  0.00    -0.256 N 
HETATM   31  O   UNK N   1      27.586  19.110   6.769  0.00  0.00    -0.242 OA
ATOM     32  HN  UNK N   1      28.137  17.109   6.752  1.00  0.00     0.195 HD
HETATM   33  C   UNK N   1      27.619  20.071   5.878  0.00  0.00     0.075 A 
HETATM   34  C   UNK N   1      28.131  19.584   4.701  0.00  0.00     0.071 A 
HETATM   35  C   UNK N   1      27.203  21.475   6.127  0.00  0.00     0.079 C 
ENDBRANCH  26  29
ENDBRANCH  24  25
ENDBRANCH  23  24
ENDBRANCH   2  23
TORSDOF 7
ENDMDL
MODEL 7
REMARK VINA RESULT:      -7.2      5.457     11.634
REMARK  7 active torsions:
REMARK  status: ('A' for Active; 'I' for Inactive)
REMARK    1  A    between atoms: S_1  and  N_9 
REMARK    2  A    between atoms: S_1  and  C_20 
REMARK    3  A    between atoms: N_7  and  N_8 
REMARK       I    between atoms: N_8  and  C_19 
REMARK       I    between atoms: N_9  and  C_19 
REMARK    4  A    between atoms: N_10  and  C_25 
REMARK       I    between atoms: N_10  and  C_28 
REMARK    5  A    between atoms: C_21  and  C_22 
REMARK    6  A    between atoms: C_22  and  C_25 
REMARK    7  A    between atoms: C_28  and  C_29 
ROOT
HETATM    1  C   UNK N   1      28.181  16.461   5.674  0.00  0.00     0.080 A 
HETATM    2  C   UNK N   1      30.021  17.575   7.491  0.00  0.00    -0.057 A 
HETATM    3  C   UNK N   1      29.473  15.876   5.878  0.00  0.00     0.026 A 
HETATM    4  C   UNK N   1      27.878  17.643   6.363  0.00  0.00     0.026 A 
HETATM    5  C   UNK N   1      30.365  16.419   6.795  0.00  0.00     0.009 A 
HETATM    6  C   UNK N   1      28.788  18.195   7.262  0.00  0.00     0.009 A 
ENDROOT
BRANCH   1   7
HETATM    7  S   UNK N   1      26.850  15.756   4.584  0.00  0.00     0.266 S 
HETATM    8  O   UNK N   1      26.844  17.267   4.284  0.00  0.00    -0.200 OA
HETATM    9  O   UNK N   1      26.597  15.516   6.084  0.00  0.00    -0.200 OA
BRANCH   7  10
HETATM   10  N   UNK N   1      25.106  16.123   4.744  0.00  0.00    -0.231 N 
HETATM   11  C   UNK N   1      24.129  15.966   3.798  0.00  0.00     0.344 C 
HETATM   12  O   UNK N   1      24.396  15.509   2.694  0.00  0.00    -0.245 OA
HETATM   13  N   UNK N   1      22.867  16.370   4.069  0.00  0.00    -0.270 N 
HETATM   14  H   UNK N   1      22.648  16.693   4.973  0.00  0.00     0.185 HD
HETATM   15  H   UNK N   1      24.816  16.480   5.615  0.00  0.00     0.183 HD
BRANCH  13  16
HETATM   16  N   UNK N   1      21.871  16.338   3.099  0.00  0.00    -0.227 NA
HETATM   17  C   UNK N   1      21.307  17.687   3.009  0.00  0.00     0.113 C 
HETATM   18  C   UNK N   1      19.952  17.739   2.290  0.00  0.00     0.016 C 
HETATM   19  C   UNK N   1      19.922  17.023   0.935  0.00  0.00     0.001 C 
HETATM   20  C   UNK N   1      20.430  15.573   0.952  0.00  0.00     0.001 C 
HETATM   21  C   UNK N   1      20.115  14.809   2.245  0.00  0.00     0.016 C 
HETATM   22  C   UNK N   1      20.846  15.361   3.482  0.00  0.00     0.113 C 
ENDBRANCH  13  16
ENDBRANCH   7  10
ENDBRANCH   1   7
BRANCH   2  23
HETATM   23  C   UNK N   1      30.814  17.971   8.688  0.00  0.00     0.058 C 
BRANCH  23  24
HETATM   24  C   UNK N   1      32.037  17.037   8.780  0.00  0.00     0.127 C 
BRANCH  24  25
HETATM   25  N   UNK N   1      33.257  17.821   8.870  0.00  0.00    -0.355 N 
HETATM   26  C   UNK N   1      34.120  18.016   7.838  0.00  0.00     0.270 C 
HETATM   27  O   UNK N   1      34.995  18.859   7.954  0.00  0.00    -0.266 OA
HETATM   28  H   UNK N   1      33.473  18.238   9.735  0.00  0.00     0.162 HD
BRANCH  26  29
HETATM   29  C   UNK N   1      34.040  17.240   6.580  0.00  0.00     0.124 A 
HETATM   30  N   UNK N   1      34.561  16.008   6.426  0.00  0.00    -0.256 N 
HETATM   31  O   UNK N   1      34.250  15.607   5.228  0.00  0.00    -0.242 OA
ATOM     32  HN  UNK N   1      35.098  15.486   7.118  1.00  0.00     0.195 HD
HETATM   33  C   UNK N   1      33.545  16.519   4.602  0.00  0.00     0.075 A 
HETATM   34  C   UNK N   1      33.374  17.605   5.425  0.00  0.00     0.071 A 
HETATM   35  C   UNK N   1      32.991  16.371   3.233  0.00  0.00     0.079 C 
ENDBRANCH  26  29
ENDBRANCH  24  25
ENDBRANCH  23  24
ENDBRANCH   2  23
TORSDOF 7
ENDMDL
MODEL 8
REMARK VINA RESULT:      -7.1      1.761      2.620
REMARK  7 active torsions:
REMARK  status: ('A' for Active; 'I' for Inactive)
REMARK    1  A    between atoms: S_1  and  N_9 
REMARK    2  A    between atoms: S_1  and  C_20 
REMARK    3  A    between atoms: N_7  and  N_8 
REMARK       I    between atoms: N_8  and  C_19 
REMARK       I    between atoms: N_9  and  C_19 
REMARK    4  A    between atoms: N_10  and  C_25 
REMARK       I    between atoms: N_10  and  C_28 
REMARK    5  A    between atoms: C_21  and  C_22 
REMARK    6  A    between atoms: C_22  and  C_25 
REMARK    7  A    between atoms: C_28  and  C_29 
ROOT
HETATM    1  C   UNK N   1      33.683  16.534   8.109  0.00  0.00     0.080 A 
HETATM    2  C   UNK N   1      32.512  17.281   5.660  0.00  0.00    -0.057 A 
HETATM    3  C   UNK N   1      32.321  16.971   8.038  0.00  0.00     0.026 A 
HETATM    4  C   UNK N   1      34.440  16.546   6.929  0.00  0.00     0.026 A 
HETATM    5  C   UNK N   1      31.744  17.314   6.821  0.00  0.00     0.009 A 
HETATM    6  C   UNK N   1      33.861  16.915   5.717  0.00  0.00     0.009 A 
ENDROOT
BRANCH   1   7
HETATM    7  S   UNK N   1      34.529  15.918   9.646  0.00  0.00     0.266 S 
HETATM    8  O   UNK N   1      35.301  15.266   8.484  0.00  0.00    -0.200 OA
HETATM    9  O   UNK N   1      33.041  15.527   9.574  0.00  0.00    -0.200 OA
BRANCH   7  10
HETATM   10  N   UNK N   1      34.553  14.209  10.177  0.00  0.00    -0.231 N 
HETATM   11  C   UNK N   1      34.665  13.733  11.456  0.00  0.00     0.344 C 
HETATM   12  O   UNK N   1      34.744  14.504  12.404  0.00  0.00    -0.245 OA
HETATM   13  N   UNK N   1      34.744  12.400  11.666  0.00  0.00    -0.270 N 
HETATM   14  H   UNK N   1      34.633  11.785  10.906  0.00  0.00     0.185 HD
HETATM   15  H   UNK N   1      34.477  13.532   9.466  0.00  0.00     0.183 HD
BRANCH  13  16
HETATM   16  N   UNK N   1      34.976  11.879  12.935  0.00  0.00    -0.227 NA
HETATM   17  C   UNK N   1      36.364  11.412  12.966  0.00  0.00     0.113 C 
HETATM   18  C   UNK N   1      36.667  10.461  14.133  0.00  0.00     0.016 C 
HETATM   19  C   UNK N   1      36.211  10.972  15.505  0.00  0.00     0.001 C 
HETATM   20  C   UNK N   1      34.742  11.416  15.582  0.00  0.00     0.001 C 
HETATM   21  C   UNK N   1      33.790  10.600  14.698  0.00  0.00     0.016 C 
HETATM   22  C   UNK N   1      34.042  10.776  13.190  0.00  0.00     0.113 C 
ENDBRANCH  13  16
ENDBRANCH   7  10
ENDBRANCH   1   7
BRANCH   2  23
HETATM   23  C   UNK N   1      31.835  17.328   4.335  0.00  0.00     0.058 C 
BRANCH  23  24
HETATM   24  C   UNK N   1      32.417  16.200   3.461  0.00  0.00     0.127 C 
BRANCH  24  25
HETATM   25  N   UNK N   1      31.388  15.218   3.163  0.00  0.00    -0.355 N 
HETATM   26  C   UNK N   1      31.079  14.165   3.966  0.00  0.00     0.270 C 
HETATM   27  O   UNK N   1      30.063  13.528   3.736  0.00  0.00    -0.266 OA
HETATM   28  H   UNK N   1      30.882  15.321   2.325  0.00  0.00     0.162 HD
BRANCH  26  29
HETATM   29  C   UNK N   1      31.930  13.762   5.108  0.00  0.00     0.124 A 
HETATM   30  N   UNK N   1      31.551  13.862   6.396  0.00  0.00    -0.256 N 
HETATM   31  O   UNK N   1      32.509  13.360   7.118  0.00  0.00    -0.242 OA
ATOM     32  HN  UNK N   1      30.676  14.256   6.741  1.00  0.00     0.195 HD
HETATM   33  C   UNK N   1      33.489  12.934   6.358  0.00  0.00     0.075 A 
HETATM   34  C   UNK N   1      33.176  13.166   5.040  0.00  0.00     0.071 A 
HETATM   35  C   UNK N   1      34.721  12.269   6.852  0.00  0.00     0.079 C 
ENDBRANCH  26  29
ENDBRANCH  24  25
ENDBRANCH  23  24
ENDBRANCH   2  23
TORSDOF 7
ENDMDL
MODEL 9
REMARK VINA RESULT:      -7.1      4.931     10.965
REMARK  7 active torsions:
REMARK  status: ('A' for Active; 'I' for Inactive)
REMARK    1  A    between atoms: S_1  and  N_9 
REMARK    2  A    between atoms: S_1  and  C_20 
REMARK    3  A    between atoms: N_7  and  N_8 
REMARK       I    between atoms: N_8  and  C_19 
REMARK       I    between atoms: N_9  and  C_19 
REMARK    4  A    between atoms: N_10  and  C_25 
REMARK       I    between atoms: N_10  and  C_28 
REMARK    5  A    between atoms: C_21  and  C_22 
REMARK    6  A    between atoms: C_22  and  C_25 
REMARK    7  A    between atoms: C_28  and  C_29 
ROOT
HETATM    1  C   UNK N   1      29.468  17.063   6.509  0.00  0.00     0.080 A 
HETATM    2  C   UNK N   1      31.879  17.511   7.892  0.00  0.00    -0.057 A 
HETATM    3  C   UNK N   1      29.477  17.623   7.828  0.00  0.00     0.026 A 
HETATM    4  C   UNK N   1      30.695  16.686   5.946  0.00  0.00     0.026 A 
HETATM    5  C   UNK N   1      30.673  17.863   8.492  0.00  0.00     0.009 A 
HETATM    6  C   UNK N   1      31.888  16.907   6.630  0.00  0.00     0.009 A 
ENDROOT
BRANCH   1   7
HETATM    7  S   UNK N   1      27.951  16.822   5.461  0.00  0.00     0.266 S 
HETATM    8  O   UNK N   1      28.366  18.286   5.222  0.00  0.00    -0.200 OA
HETATM    9  O   UNK N   1      27.696  16.586   6.961  0.00  0.00    -0.200 OA
BRANCH   7  10
HETATM   10  N   UNK N   1      26.391  17.658   5.723  0.00  0.00    -0.231 N 
HETATM   11  C   UNK N   1      25.197  17.413   5.100  0.00  0.00     0.344 C 
HETATM   12  O   UNK N   1      25.099  16.521   4.267  0.00  0.00    -0.245 OA
HETATM   13  N   UNK N   1      24.131  18.200   5.369  0.00  0.00    -0.270 N 
HETATM   14  H   UNK N   1      24.203  18.885   6.072  0.00  0.00     0.185 HD
HETATM   15  H   UNK N   1      26.393  18.380   6.393  0.00  0.00     0.183 HD
BRANCH  13  16
HETATM   16  N   UNK N   1      22.934  18.061   4.674  0.00  0.00    -0.227 NA
HETATM   17  C   UNK N   1      22.819  19.210   3.772  0.00  0.00     0.113 C 
HETATM   18  C   UNK N   1      21.398  19.427   3.232  0.00  0.00     0.016 C 
HETATM   19  C   UNK N   1      20.745  18.173   2.637  0.00  0.00     0.001 C 
HETATM   20  C   UNK N   1      20.757  16.936   3.548  0.00  0.00     0.001 C 
HETATM   21  C   UNK N   1      20.619  17.253   5.043  0.00  0.00     0.016 C 
HETATM   22  C   UNK N   1      21.817  18.022   5.626  0.00  0.00     0.113 C 
ENDBRANCH  13  16
ENDBRANCH   7  10
ENDBRANCH   1   7
BRANCH   2  23
HETATM   23  C   UNK N   1      33.154  18.051   8.441  0.00  0.00     0.058 C 
BRANCH  23  24
HETATM   24  C   UNK N   1      34.122  16.869   8.650  0.00  0.00     0.127 C 
BRANCH  24  25
HETATM   25  N   UNK N   1      34.058  16.410  10.027  0.00  0.00    -0.355 N 
HETATM   26  C   UNK N   1      33.979  15.103  10.395  0.00  0.00     0.270 C 
HETATM   27  O   UNK N   1      34.148  14.812  11.569  0.00  0.00    -0.266 OA
HETATM   28  H   UNK N   1      34.073  17.088  10.740  0.00  0.00     0.162 HD
BRANCH  26  29
HETATM   29  C   UNK N   1      33.693  14.022   9.426  0.00  0.00     0.124 A 
HETATM   30  N   UNK N   1      32.453  13.686   9.025  0.00  0.00    -0.256 N 
HETATM   31  O   UNK N   1      32.580  12.750   8.130  0.00  0.00    -0.242 OA
ATOM     32  HN  UNK N   1      31.578  14.089   9.358  1.00  0.00     0.195 HD
HETATM   33  C   UNK N   1      33.845  12.470   7.928  0.00  0.00     0.075 A 
HETATM   34  C   UNK N   1      34.621  13.261   8.739  0.00  0.00     0.071 A 
HETATM   35  C   UNK N   1      34.348  11.479   6.943  0.00  0.00     0.079 C 
ENDBRANCH  26  29
ENDBRANCH  24  25
ENDBRANCH  23  24
ENDBRANCH   2  23
TORSDOF 7
ENDMDL
