MODEL 1
REMARK VINA RESULT:      -6.3      0.000      0.000
REMARK  4 active torsions:
REMARK  status: ('A' for Active; 'I' for Inactive)
REMARK    1  A    between atoms: S_1  and  N_5 
REMARK    2  A    between atoms: S_1  and  C_9 
REMARK    3  A    between atoms: N_5  and  C_10 
REMARK    4  A    between atoms: N_8  and  C_17 
ROOT
HETATM    1  S   UNK N   1      35.401  15.786  10.260  0.00  0.00     0.265 S 
HETATM    2  O   UNK N   1      35.176  16.902  11.289  0.00  0.00    -0.200 OA
HETATM    3  O   UNK N   1      36.937  15.750  10.278  0.00  0.00    -0.200 OA
ENDROOT
BRANCH   1   4
HETATM    4  N   UNK N   1      34.992  14.307  11.117  0.00  0.00    -0.245 N 
HETATM    5  H   UNK N   1      34.505  13.605  10.628  0.00  0.00     0.182 HD
BRANCH   4   6
HETATM    6  C   UNK N   1      35.324  14.070  12.472  0.00  0.00     0.238 A 
HETATM    7  O   UNK N   1      34.667  13.222  13.234  0.00  0.00    -0.282 OA
HETATM    8  C   UNK N   1      35.230  13.246  14.415  0.00  0.00     0.075 A 
HETATM    9  C   UNK N   1      36.257  14.160  14.374  0.00  0.00     0.038 A 
HETATM   10  C   UNK N   1      34.805  12.412  15.574  0.00  0.00     0.079 C 
HETATM   11  N   UNK N   1      36.331  14.681  13.132  0.00  0.00    -0.323 N 
HETATM   12  C   UNK N   1      37.153  14.542  15.501  0.00  0.00     0.071 C 
ATOM     13  HN  UNK N   1      36.991  15.372  12.777  1.00  0.00     0.169 HD
ENDBRANCH   4   6
ENDBRANCH   1   4
BRANCH   1  14
HETATM   14  C   UNK N   1      34.877  16.324   8.628  0.00  0.00     0.080 A 
HETATM   15  C   UNK N   1      34.289  17.589   8.497  0.00  0.00     0.027 A 
HETATM   16  C   UNK N   1      33.737  17.992   7.281  0.00  0.00     0.030 A 
HETATM   17  C   UNK N   1      33.757  17.127   6.187  0.00  0.00     0.025 A 
HETATM   18  C   UNK N   1      34.347  15.861   6.307  0.00  0.00     0.030 A 
HETATM   19  C   UNK N   1      34.901  15.455   7.530  0.00  0.00     0.027 A 
BRANCH  17  20
HETATM   20  N   UNK N   1      33.168  17.522   4.969  0.00  0.00    -0.399 N 
HETATM   21  H   UNK N   1      32.905  18.461   4.831  0.00  0.00     0.156 HD
HETATM   22  H   UNK N   1      33.018  16.859   4.257  0.00  0.00     0.156 HD
ENDBRANCH  17  20
ENDBRANCH   1  14
TORSDOF 4
ENDMDL
MODEL 2
REMARK VINA RESULT:      -6.1      3.526      8.481
REMARK  4 active torsions:
REMARK  status: ('A' for Active; 'I' for Inactive)
REMARK    1  A    between atoms: S_1  and  N_5 
REMARK    2  A    between atoms: S_1  and  C_9 
REMARK    3  A    between atoms: N_5  and  C_10 
REMARK    4  A    between atoms: N_8  and  C_17 
ROOT
HETATM    1  S   UNK N   1      35.814  12.195  14.609  0.00  0.00     0.265 S 
HETATM    2  O   UNK N   1      34.468  12.472  13.926  0.00  0.00    -0.200 OA
HETATM    3  O   UNK N   1      35.899  10.680  14.366  0.00  0.00    -0.200 OA
ENDROOT
BRANCH   1   4
HETATM    4  N   UNK N   1      37.015  12.812  13.484  0.00  0.00    -0.245 N 
HETATM    5  H   UNK N   1      37.958  12.572  13.632  0.00  0.00     0.182 HD
BRANCH   4   6
HETATM    6  C   UNK N   1      36.701  13.637  12.378  0.00  0.00     0.238 A 
HETATM    7  O   UNK N   1      36.902  13.271  11.131  0.00  0.00    -0.282 OA
HETATM    8  C   UNK N   1      36.505  14.257  10.368  0.00  0.00     0.075 A 
HETATM    9  C   UNK N   1      36.062  15.271  11.186  0.00  0.00     0.038 A 
HETATM   10  C   UNK N   1      36.539  14.245   8.878  0.00  0.00     0.079 C 
HETATM   11  N   UNK N   1      36.173  14.876  12.471  0.00  0.00    -0.323 N 
HETATM   12  C   UNK N   1      35.550  16.601  10.756  0.00  0.00     0.071 C 
ATOM     13  HN  UNK N   1      35.918  15.392  13.313  1.00  0.00     0.169 HD
ENDBRANCH   4   6
ENDBRANCH   1   4
BRANCH   1  14
HETATM   14  C   UNK N   1      35.685  12.467  16.380  0.00  0.00     0.080 A 
HETATM   15  C   UNK N   1      35.611  11.351  17.225  0.00  0.00     0.027 A 
HETATM   16  C   UNK N   1      35.365  11.509  18.589  0.00  0.00     0.030 A 
HETATM   17  C   UNK N   1      35.178  12.786  19.119  0.00  0.00     0.025 A 
HETATM   18  C   UNK N   1      35.256  13.909  18.283  0.00  0.00     0.030 A 
HETATM   19  C   UNK N   1      35.501  13.749  16.911  0.00  0.00     0.027 A 
BRANCH  17  20
HETATM   20  N   UNK N   1      34.895  12.943  20.491  0.00  0.00    -0.399 N 
HETATM   21  H   UNK N   1      34.757  12.150  21.058  0.00  0.00     0.156 HD
HETATM   22  H   UNK N   1      34.836  13.844  20.881  0.00  0.00     0.156 HD
ENDBRANCH  17  20
ENDBRANCH   1  14
TORSDOF 4
ENDMDL
MODEL 3
REMARK VINA RESULT:      -6.0      2.844      8.295
REMARK  4 active torsions:
REMARK  status: ('A' for Active; 'I' for Inactive)
REMARK    1  A    between atoms: S_1  and  N_5 
REMARK    2  A    between atoms: S_1  and  C_9 
REMARK    3  A    between atoms: N_5  and  C_10 
REMARK    4  A    between atoms: N_8  and  C_17 
ROOT
HETATM    1  S   UNK N   1      35.791  13.282  14.369  0.00  0.00     0.265 S 
HETATM    2  O   UNK N   1      34.601  12.779  13.541  0.00  0.00    -0.200 OA
HETATM    3  O   UNK N   1      36.841  12.250  13.930  0.00  0.00    -0.200 OA
ENDROOT
BRANCH   1   4
HETATM    4  N   UNK N   1      36.330  14.730  13.533  0.00  0.00    -0.245 N 
HETATM    5  H   UNK N   1      36.825  15.408  14.046  0.00  0.00     0.182 HD
BRANCH   4   6
HETATM    6  C   UNK N   1      36.091  14.976  12.160  0.00  0.00     0.238 A 
HETATM    7  O   UNK N   1      35.495  16.062  11.718  0.00  0.00    -0.282 OA
HETATM    8  C   UNK N   1      35.436  15.971  10.415  0.00  0.00     0.075 A 
HETATM    9  C   UNK N   1      36.001  14.770  10.051  0.00  0.00     0.038 A 
HETATM   10  C   UNK N   1      34.854  17.007   9.516  0.00  0.00     0.079 C 
HETATM   11  N   UNK N   1      36.433  14.136  11.160  0.00  0.00    -0.323 N 
HETATM   12  C   UNK N   1      36.122  14.227   8.669  0.00  0.00     0.071 C 
ATOM     13  HN  UNK N   1      36.906  13.234  11.226  1.00  0.00     0.169 HD
ENDBRANCH   4   6
ENDBRANCH   1   4
BRANCH   1  14
HETATM   14  C   UNK N   1      35.479  13.044  16.122  0.00  0.00     0.080 A 
HETATM   15  C   UNK N   1      35.420  14.173  16.950  0.00  0.00     0.027 A 
HETATM   16  C   UNK N   1      35.324  14.033  18.336  0.00  0.00     0.030 A 
HETATM   17  C   UNK N   1      35.299  12.760  18.906  0.00  0.00     0.025 A 
HETATM   18  C   UNK N   1      35.352  11.624  18.085  0.00  0.00     0.030 A 
HETATM   19  C   UNK N   1      35.451  11.766  16.692  0.00  0.00     0.027 A 
BRANCH  17  20
HETATM   20  N   UNK N   1      35.237  12.619  20.306  0.00  0.00    -0.399 N 
HETATM   21  H   UNK N   1      34.441  12.218  20.726  0.00  0.00     0.156 HD
HETATM   22  H   UNK N   1      35.989  12.920  20.865  0.00  0.00     0.156 HD
ENDBRANCH  17  20
ENDBRANCH   1  14
TORSDOF 4
ENDMDL
MODEL 4
REMARK VINA RESULT:      -6.0      2.907      3.544
REMARK  4 active torsions:
REMARK  status: ('A' for Active; 'I' for Inactive)
REMARK    1  A    between atoms: S_1  and  N_5 
REMARK    2  A    between atoms: S_1  and  C_9 
REMARK    3  A    between atoms: N_5  and  C_10 
REMARK    4  A    between atoms: N_8  and  C_17 
ROOT
HETATM    1  S   UNK N   1      34.049  17.393   8.414  0.00  0.00     0.265 S 
HETATM    2  O   UNK N   1      34.877  18.556   7.850  0.00  0.00    -0.200 OA
HETATM    3  O   UNK N   1      34.733  16.232   7.675  0.00  0.00    -0.200 OA
ENDROOT
BRANCH   1   4
HETATM    4  N   UNK N   1      34.644  17.181  10.054  0.00  0.00    -0.245 N 
HETATM    5  H   UNK N   1      34.598  17.948  10.669  0.00  0.00     0.182 HD
BRANCH   4   6
HETATM    6  C   UNK N   1      35.187  15.968  10.539  0.00  0.00     0.238 A 
HETATM    7  O   UNK N   1      34.608  15.247  11.475  0.00  0.00    -0.282 OA
HETATM    8  C   UNK N   1      35.366  14.201  11.683  0.00  0.00     0.075 A 
HETATM    9  C   UNK N   1      36.460  14.301  10.854  0.00  0.00     0.038 A 
HETATM   10  C   UNK N   1      35.063  13.112  12.655  0.00  0.00     0.079 C 
HETATM   11  N   UNK N   1      36.345  15.421  10.111  0.00  0.00    -0.323 N 
HETATM   12  C   UNK N   1      37.604  13.351  10.773  0.00  0.00     0.071 C 
ATOM     13  HN  UNK N   1      36.982  15.771   9.396  1.00  0.00     0.169 HD
ENDBRANCH   4   6
ENDBRANCH   1   4
BRANCH   1  14
HETATM   14  C   UNK N   1      32.351  17.495   7.836  0.00  0.00     0.080 A 
HETATM   15  C   UNK N   1      31.380  18.017   8.701  0.00  0.00     0.027 A 
HETATM   16  C   UNK N   1      30.029  17.984   8.354  0.00  0.00     0.030 A 
HETATM   17  C   UNK N   1      29.636  17.417   7.142  0.00  0.00     0.025 A 
HETATM   18  C   UNK N   1      30.601  16.897   6.268  0.00  0.00     0.030 A 
HETATM   19  C   UNK N   1      31.959  16.928   6.618  0.00  0.00     0.027 A 
BRANCH  17  20
HETATM   20  N   UNK N   1      28.269  17.352   6.808  0.00  0.00    -0.399 N 
HETATM   21  H   UNK N   1      27.739  16.558   7.051  0.00  0.00     0.156 HD
HETATM   22  H   UNK N   1      27.842  18.100   6.330  0.00  0.00     0.156 HD
ENDBRANCH  17  20
ENDBRANCH   1  14
TORSDOF 4
ENDMDL
MODEL 5
REMARK VINA RESULT:      -5.9     13.936     16.410
REMARK  4 active torsions:
REMARK  status: ('A' for Active; 'I' for Inactive)
REMARK    1  A    between atoms: S_1  and  N_5 
REMARK    2  A    between atoms: S_1  and  C_9 
REMARK    3  A    between atoms: N_5  and  C_10 
REMARK    4  A    between atoms: N_8  and  C_17 
ROOT
HETATM    1  S   UNK N   1      21.106  20.130   2.657  0.00  0.00     0.265 S 
HETATM    2  O   UNK N   1      21.090  21.348   1.723  0.00  0.00    -0.200 OA
HETATM    3  O   UNK N   1      20.313  20.720   3.833  0.00  0.00    -0.200 OA
ENDROOT
BRANCH   1   4
HETATM    4  N   UNK N   1      19.942  19.018   1.954  0.00  0.00    -0.245 N 
HETATM    5  H   UNK N   1      19.201  19.393   1.424  0.00  0.00     0.182 HD
BRANCH   4   6
HETATM    6  C   UNK N   1      20.009  17.613   2.107  0.00  0.00     0.238 A 
HETATM    7  O   UNK N   1      20.526  16.816   1.198  0.00  0.00    -0.282 OA
HETATM    8  C   UNK N   1      20.431  15.594   1.654  0.00  0.00     0.075 A 
HETATM    9  C   UNK N   1      19.813  15.648   2.882  0.00  0.00     0.038 A 
HETATM   10  C   UNK N   1      20.921  14.380   0.940  0.00  0.00     0.079 C 
HETATM   11  N   UNK N   1      19.552  16.937   3.183  0.00  0.00    -0.323 N 
HETATM   12  C   UNK N   1      19.465  14.493   3.755  0.00  0.00     0.071 C 
ATOM     13  HN  UNK N   1      19.114  17.311   4.025  1.00  0.00     0.169 HD
ENDBRANCH   4   6
ENDBRANCH   1   4
BRANCH   1  14
HETATM   14  C   UNK N   1      22.778  19.799   3.226  0.00  0.00     0.080 A 
HETATM   15  C   UNK N   1      23.812  20.637   2.787  0.00  0.00     0.027 A 
HETATM   16  C   UNK N   1      25.142  20.338   3.082  0.00  0.00     0.030 A 
HETATM   17  C   UNK N   1      25.451  19.188   3.810  0.00  0.00     0.025 A 
HETATM   18  C   UNK N   1      24.423  18.347   4.258  0.00  0.00     0.030 A 
HETATM   19  C   UNK N   1      23.086  18.647   3.958  0.00  0.00     0.027 A 
BRANCH  17  20
HETATM   20  N   UNK N   1      26.797  18.868   4.079  0.00  0.00    -0.399 N 
HETATM   21  H   UNK N   1      27.318  19.418   4.708  0.00  0.00     0.156 HD
HETATM   22  H   UNK N   1      27.216  18.094   3.637  0.00  0.00     0.156 HD
ENDBRANCH  17  20
ENDBRANCH   1  14
TORSDOF 4
ENDMDL
MODEL 6
REMARK VINA RESULT:      -5.8      1.626      2.034
REMARK  4 active torsions:
REMARK  status: ('A' for Active; 'I' for Inactive)
REMARK    1  A    between atoms: S_1  and  N_5 
REMARK    2  A    between atoms: S_1  and  C_9 
REMARK    3  A    between atoms: N_5  and  C_10 
REMARK    4  A    between atoms: N_8  and  C_17 
ROOT
HETATM    1  S   UNK N   1      34.665  16.193   9.694  0.00  0.00     0.265 S 
HETATM    2  O   UNK N   1      35.465  17.388  10.231  0.00  0.00    -0.200 OA
HETATM    3  O   UNK N   1      35.828  15.359   9.134  0.00  0.00    -0.200 OA
ENDROOT
BRANCH   1   4
HETATM    4  N   UNK N   1      34.219  15.280  11.128  0.00  0.00    -0.245 N 
HETATM    5  H   UNK N   1      33.297  15.360  11.464  0.00  0.00     0.182 HD
BRANCH   4   6
HETATM    6  C   UNK N   1      35.114  14.437  11.829  0.00  0.00     0.238 A 
HETATM    7  O   UNK N   1      35.293  14.504  13.130  0.00  0.00    -0.282 OA
HETATM    8  C   UNK N   1      36.177  13.593  13.448  0.00  0.00     0.075 A 
HETATM    9  C   UNK N   1      36.565  12.960  12.289  0.00  0.00     0.038 A 
HETATM   10  C   UNK N   1      36.652  13.318  14.833  0.00  0.00     0.079 C 
HETATM   11  N   UNK N   1      35.880  13.486  11.253  0.00  0.00    -0.323 N 
HETATM   12  C   UNK N   1      37.579  11.877  12.165  0.00  0.00     0.071 C 
ATOM     13  HN  UNK N   1      35.930  13.226  10.268  1.00  0.00     0.169 HD
ENDBRANCH   4   6
ENDBRANCH   1   4
BRANCH   1  14
HETATM   14  C   UNK N   1      33.631  16.701   8.316  0.00  0.00     0.080 A 
HETATM   15  C   UNK N   1      32.261  16.411   8.365  0.00  0.00     0.027 A 
HETATM   16  C   UNK N   1      31.444  16.654   7.259  0.00  0.00     0.030 A 
HETATM   17  C   UNK N   1      31.995  17.179   6.090  0.00  0.00     0.025 A 
HETATM   18  C   UNK N   1      33.364  17.477   6.034  0.00  0.00     0.030 A 
HETATM   19  C   UNK N   1      34.185  17.230   7.144  0.00  0.00     0.027 A 
BRANCH  17  20
HETATM   20  N   UNK N   1      31.176  17.392   4.963  0.00  0.00    -0.399 N 
HETATM   21  H   UNK N   1      30.764  16.626   4.502  0.00  0.00     0.156 HD
HETATM   22  H   UNK N   1      31.017  18.307   4.636  0.00  0.00     0.156 HD
ENDBRANCH  17  20
ENDBRANCH   1  14
TORSDOF 4
ENDMDL
MODEL 7
REMARK VINA RESULT:      -5.8      3.035      4.064
REMARK  4 active torsions:
REMARK  status: ('A' for Active; 'I' for Inactive)
REMARK    1  A    between atoms: S_1  and  N_5 
REMARK    2  A    between atoms: S_1  and  C_9 
REMARK    3  A    between atoms: N_5  and  C_10 
REMARK    4  A    between atoms: N_8  and  C_17 
ROOT
HETATM    1  S   UNK N   1      33.832  17.370   8.236  0.00  0.00     0.265 S 
HETATM    2  O   UNK N   1      34.561  18.478   7.464  0.00  0.00    -0.200 OA
HETATM    3  O   UNK N   1      34.418  16.148   7.511  0.00  0.00    -0.200 OA
ENDROOT
BRANCH   1   4
HETATM    4  N   UNK N   1      34.652  17.300   9.789  0.00  0.00    -0.245 N 
HETATM    5  H   UNK N   1      34.779  18.139  10.287  0.00  0.00     0.182 HD
BRANCH   4   6
HETATM    6  C   UNK N   1      35.141  16.102  10.363  0.00  0.00     0.238 A 
HETATM    7  O   UNK N   1      36.316  15.592  10.066  0.00  0.00    -0.282 OA
HETATM    8  C   UNK N   1      36.452  14.496  10.767  0.00  0.00     0.075 A 
HETATM    9  C   UNK N   1      35.304  14.323  11.506  0.00  0.00     0.038 A 
HETATM   10  C   UNK N   1      37.655  13.617  10.745  0.00  0.00     0.079 C 
HETATM   11  N   UNK N   1      34.468  15.353  11.262  0.00  0.00    -0.323 N 
HETATM   12  C   UNK N   1      34.999  13.191  12.424  0.00  0.00     0.071 C 
ATOM     13  HN  UNK N   1      33.545  15.524  11.662  1.00  0.00     0.169 HD
ENDBRANCH   4   6
ENDBRANCH   1   4
BRANCH   1  14
HETATM   14  C   UNK N   1      32.069  17.425   7.895  0.00  0.00     0.080 A 
HETATM   15  C   UNK N   1      31.612  16.952   6.658  0.00  0.00     0.027 A 
HETATM   16  C   UNK N   1      30.275  17.106   6.289  0.00  0.00     0.030 A 
HETATM   17  C   UNK N   1      29.385  17.747   7.152  0.00  0.00     0.025 A 
HETATM   18  C   UNK N   1      29.832  18.219   8.394  0.00  0.00     0.030 A 
HETATM   19  C   UNK N   1      31.177  18.066   8.763  0.00  0.00     0.027 A 
BRANCH  17  20
HETATM   20  N   UNK N   1      28.043  17.933   6.765  0.00  0.00    -0.399 N 
HETATM   21  H   UNK N   1      27.725  17.575   5.904  0.00  0.00     0.156 HD
HETATM   22  H   UNK N   1      27.424  18.422   7.354  0.00  0.00     0.156 HD
ENDBRANCH  17  20
ENDBRANCH   1  14
TORSDOF 4
ENDMDL
MODEL 8
REMARK VINA RESULT:      -5.8     18.072     20.374
REMARK  4 active torsions:
REMARK  status: ('A' for Active; 'I' for Inactive)
REMARK    1  A    between atoms: S_1  and  N_5 
REMARK    2  A    between atoms: S_1  and  C_9 
REMARK    3  A    between atoms: N_5  and  C_10 
REMARK    4  A    between atoms: N_8  and  C_17 
ROOT
HETATM    1  S   UNK N   1      26.008  23.823  -6.753  0.00  0.00     0.265 S 
HETATM    2  O   UNK N   1      25.164  24.048  -8.014  0.00  0.00    -0.200 OA
HETATM    3  O   UNK N   1      25.244  22.627  -6.164  0.00  0.00    -0.200 OA
ENDROOT
BRANCH   1   4
HETATM    4  N   UNK N   1      27.480  23.061  -7.338  0.00  0.00    -0.245 N 
HETATM    5  H   UNK N   1      27.616  22.996  -8.311  0.00  0.00     0.182 HD
BRANCH   4   6
HETATM    6  C   UNK N   1      28.481  22.534  -6.487  0.00  0.00     0.238 A 
HETATM    7  O   UNK N   1      28.767  23.051  -5.311  0.00  0.00    -0.282 OA
HETATM    8  C   UNK N   1      29.727  22.329  -4.794  0.00  0.00     0.075 A 
HETATM    9  C   UNK N   1      30.052  21.346  -5.701  0.00  0.00     0.038 A 
HETATM   10  C   UNK N   1      30.336  22.560  -3.453  0.00  0.00     0.079 C 
HETATM   11  N   UNK N   1      29.250  21.464  -6.779  0.00  0.00    -0.323 N 
HETATM   12  C   UNK N   1      31.114  20.313  -5.551  0.00  0.00     0.071 C 
ATOM     13  HN  UNK N   1      29.230  20.881  -7.617  1.00  0.00     0.169 HD
ENDBRANCH   4   6
ENDBRANCH   1   4
BRANCH   1  14
HETATM   14  C   UNK N   1      25.829  25.208  -5.623  0.00  0.00     0.080 A 
HETATM   15  C   UNK N   1      25.259  26.394  -6.104  0.00  0.00     0.027 A 
HETATM   16  C   UNK N   1      25.230  27.541  -5.310  0.00  0.00     0.030 A 
HETATM   17  C   UNK N   1      25.784  27.514  -4.030  0.00  0.00     0.025 A 
HETATM   18  C   UNK N   1      26.352  26.330  -3.538  0.00  0.00     0.030 A 
HETATM   19  C   UNK N   1      26.383  25.178  -4.338  0.00  0.00     0.027 A 
BRANCH  17  20
HETATM   20  N   UNK N   1      25.786  28.682  -3.241  0.00  0.00    -0.399 N 
HETATM   21  H   UNK N   1      25.681  28.616  -2.264  0.00  0.00     0.156 HD
HETATM   22  H   UNK N   1      25.892  29.563  -3.666  0.00  0.00     0.156 HD
ENDBRANCH  17  20
ENDBRANCH   1  14
TORSDOF 4
ENDMDL
MODEL 9
REMARK VINA RESULT:      -5.8      3.430      7.170
REMARK  4 active torsions:
REMARK  status: ('A' for Active; 'I' for Inactive)
REMARK    1  A    between atoms: S_1  and  N_5 
REMARK    2  A    between atoms: S_1  and  C_9 
REMARK    3  A    between atoms: N_5  and  C_10 
REMARK    4  A    between atoms: N_8  and  C_17 
ROOT
HETATM    1  S   UNK N   1      34.271  17.792   8.216  0.00  0.00     0.265 S 
HETATM    2  O   UNK N   1      34.637  17.576   6.741  0.00  0.00    -0.200 OA
HETATM    3  O   UNK N   1      35.006  19.121   8.453  0.00  0.00    -0.200 OA
ENDROOT
BRANCH   1   4
HETATM    4  N   UNK N   1      32.591  18.306   8.183  0.00  0.00    -0.245 N 
HETATM    5  H   UNK N   1      32.357  19.164   8.606  0.00  0.00     0.182 HD
BRANCH   4   6
HETATM    6  C   UNK N   1      31.554  17.554   7.582  0.00  0.00     0.238 A 
HETATM    7  O   UNK N   1      30.277  17.806   7.778  0.00  0.00    -0.282 OA
HETATM    8  C   UNK N   1      29.598  16.933   7.082  0.00  0.00     0.075 A 
HETATM    9  C   UNK N   1      30.497  16.103   6.452  0.00  0.00     0.038 A 
HETATM   10  C   UNK N   1      28.110  16.880   7.006  0.00  0.00     0.079 C 
HETATM   11  N   UNK N   1      31.748  16.502   6.758  0.00  0.00    -0.323 N 
HETATM   12  C   UNK N   1      30.174  14.940   5.579  0.00  0.00     0.071 C 
ATOM     13  HN  UNK N   1      32.632  16.104   6.441  1.00  0.00     0.169 HD
ENDBRANCH   4   6
ENDBRANCH   1   4
BRANCH   1  14
HETATM   14  C   UNK N   1      35.046  16.538   9.243  0.00  0.00     0.080 A 
HETATM   15  C   UNK N   1      35.164  15.238   8.736  0.00  0.00     0.027 A 
HETATM   16  C   UNK N   1      35.625  14.199   9.546  0.00  0.00     0.030 A 
HETATM   17  C   UNK N   1      35.961  14.451  10.876  0.00  0.00     0.025 A 
HETATM   18  C   UNK N   1      35.850  15.751  11.391  0.00  0.00     0.030 A 
HETATM   19  C   UNK N   1      35.384  16.794  10.577  0.00  0.00     0.027 A 
BRANCH  17  20
HETATM   20  N   UNK N   1      36.393  13.396  11.704  0.00  0.00    -0.399 N 
HETATM   21  H   UNK N   1      36.263  13.450  12.678  0.00  0.00     0.156 HD
HETATM   22  H   UNK N   1      36.825  12.605  11.308  0.00  0.00     0.156 HD
ENDBRANCH  17  20
ENDBRANCH   1  14
TORSDOF 4
ENDMDL
