REMARK  4 active torsions:
REMARK  status: ('A' for Active; 'I' for Inactive)
REMARK    1  A    between atoms: S_1  and  N_5 
REMARK    2  A    between atoms: S_1  and  C_9 
REMARK    3  A    between atoms: N_5  and  C_10 
REMARK    4  A    between atoms: N_8  and  C_17 
ROOT
HETATM    1  S   UNK N   1       1.403   0.470   0.276  0.00  0.00     0.265 S 
HETATM    2  O   UNK N   1       1.503   0.789   1.774  0.00  0.00    -0.200 OA
HETATM    3  O   UNK N   1      -0.117   0.613   0.102  0.00  0.00    -0.200 OA
ENDROOT
BRANCH   1   4
HETATM    4  N   UNK N   1       1.999   1.917  -0.524  0.00  0.00    -0.245 N 
HETATM    5  H   UNK N   1       1.397   2.388  -1.144  0.00  0.00     0.182 HD
BRANCH   4   6
HETATM    6  C   UNK N   1       3.298   2.442  -0.326  0.00  0.00     0.238 A 
HETATM    7  O   UNK N   1       3.564   3.730  -0.358  0.00  0.00    -0.282 OA
HETATM    8  C   UNK N   1       4.846   3.867  -0.138  0.00  0.00     0.075 A 
HETATM    9  C   UNK N   1       5.385   2.610   0.014  0.00  0.00     0.038 A 
HETATM   10  C   UNK N   1       5.561   5.173  -0.069  0.00  0.00     0.079 C 
HETATM   11  N   UNK N   1       4.399   1.696  -0.092  0.00  0.00    -0.323 N 
HETATM   12  C   UNK N   1       6.818   2.279   0.248  0.00  0.00     0.071 C 
ATOM     13  HN  UNK N   1       4.469   0.681  -0.014  1.00  0.00     0.169 HD
ENDBRANCH   4   6
ENDBRANCH   1   4
BRANCH   1  14
HETATM   14  C   UNK N   1       1.838  -1.246  -0.029  0.00  0.00     0.080 A 
HETATM   15  C   UNK N   1       0.826  -2.213   0.029  0.00  0.00     0.027 A 
HETATM   16  C   UNK N   1       1.136  -3.571  -0.057  0.00  0.00     0.030 A 
HETATM   17  C   UNK N   1       2.465  -3.974  -0.190  0.00  0.00     0.025 A 
HETATM   18  C   UNK N   1       3.484  -3.013  -0.254  0.00  0.00     0.030 A 
HETATM   19  C   UNK N   1       3.172  -1.648  -0.165  0.00  0.00     0.027 A 
BRANCH  17  20
HETATM   20  N   UNK N   1       2.781  -5.346  -0.242  0.00  0.00    -0.399 N 
HETATM   21  H   UNK N   1       2.060  -6.016  -0.278  0.00  0.00     0.156 HD
HETATM   22  H   UNK N   1       3.722  -5.635  -0.242  0.00  0.00     0.156 HD
ENDBRANCH  17  20
ENDBRANCH   1  14
TORSDOF 4
