MODEL 1
REMARK VINA RESULT:      -6.0      0.000      0.000
REMARK  8 active torsions:
REMARK  status: ('A' for Active; 'I' for Inactive)
REMARK    1  A    between atoms: O_1  and  C_9 
REMARK    2  A    between atoms: O_2  and  C_17 
REMARK    3  A    between atoms: O_3  and  C_18 
REMARK    4  A    between atoms: N_4  and  C_7 
REMARK    5  A    between atoms: N_4  and  C_8 
REMARK    6  A    between atoms: C_8  and  C_9 
REMARK    7  A    between atoms: C_9  and  C_13 
REMARK    8  A    between atoms: C_15  and  C_18 
ROOT
HETATM    1  N   UNK N   1      22.610  20.588   2.404  0.00  0.00    -0.357 N 
ATOM      2  HN  UNK N   1      23.046  21.395   1.959  1.00  0.00     0.166 HD
HETATM    3  C   UNK N   1      23.335  19.854   3.290  0.00  0.00     0.040 A 
HETATM    4  C   UNK N   1      22.742  18.747   3.916  0.00  0.00     0.030 A 
HETATM    5  C   UNK N   1      21.319  20.282   2.092  0.00  0.00     0.066 A 
HETATM    6  C   UNK N   1      21.426  18.405   3.605  0.00  0.00     0.040 A 
HETATM    7  C   UNK N   1      20.705  19.177   2.695  0.00  0.00     0.090 A 
ENDROOT
BRANCH   3   8
HETATM    8  C   UNK N   1      24.729  20.300   3.645  0.00  0.00     0.185 C 
BRANCH   8   9
HETATM    9  O   UNK N   1      25.396  20.767   2.511  0.00  0.00    -0.388 OA
HETATM   10  H   UNK N   1      25.368  20.333   1.644  0.00  0.00     0.210 HD
ENDBRANCH   8   9
BRANCH   8  11
HETATM   11  C   UNK N   1      25.560  19.222   4.316  0.00  0.00     0.152 C 
BRANCH  11  12
HETATM   12  N   UNK N   1      25.818  19.608   5.702  0.00  0.00    -0.411 N 
HETATM   13  H   UNK N   1      25.132  19.535   6.454  0.00  0.00     0.154 HD
BRANCH  12  14
HETATM   14  C   UNK N   1      27.182  20.112   5.878  0.00  0.00     0.014 C 
HETATM   15  C   UNK N   1      27.784  19.440   7.094  0.00  0.00     0.037 C 
HETATM   16  C   UNK N   1      27.198  21.615   6.116  0.00  0.00     0.037 C 
HETATM   17  C   UNK N   1      28.039  19.767   4.672  0.00  0.00     0.037 C 
ENDBRANCH  12  14
ENDBRANCH  11  12
ENDBRANCH   8  11
ENDBRANCH   3   8
BRANCH   5  18
HETATM   18  C   UNK N   1      20.565  21.138   1.122  0.00  0.00     0.224 C 
BRANCH  18  19
HETATM   19  O   UNK N   1      20.513  20.539  -0.139  0.00  0.00    -0.395 OA
HETATM   20  H   UNK N   1      21.218  20.705  -0.785  0.00  0.00     0.209 HD
ENDBRANCH  18  19
ENDBRANCH   5  18
BRANCH   7  21
HETATM   21  O   UNK N   1      19.428  18.858   2.412  0.00  0.00    -0.359 OA
HETATM   22  H   UNK N   1      19.086  19.006   1.552  0.00  0.00     0.217 HD
ENDBRANCH   7  21
TORSDOF 8
ENDMDL
MODEL 2
REMARK VINA RESULT:      -5.8      1.575      2.146
REMARK  8 active torsions:
REMARK  status: ('A' for Active; 'I' for Inactive)
REMARK    1  A    between atoms: O_1  and  C_9 
REMARK    2  A    between atoms: O_2  and  C_17 
REMARK    3  A    between atoms: O_3  and  C_18 
REMARK    4  A    between atoms: N_4  and  C_7 
REMARK    5  A    between atoms: N_4  and  C_8 
REMARK    6  A    between atoms: C_8  and  C_9 
REMARK    7  A    between atoms: C_9  and  C_13 
REMARK    8  A    between atoms: C_15  and  C_18 
ROOT
HETATM    1  N   UNK N   1      22.051  19.213   2.950  0.00  0.00    -0.357 N 
ATOM      2  HN  UNK N   1      22.829  19.827   2.713  1.00  0.00     0.166 HD
HETATM    3  C   UNK N   1      22.267  18.181   3.809  0.00  0.00     0.040 A 
HETATM    4  C   UNK N   1      21.201  17.334   4.152  0.00  0.00     0.030 A 
HETATM    5  C   UNK N   1      20.829  19.454   2.397  0.00  0.00     0.066 A 
HETATM    6  C   UNK N   1      19.943  17.552   3.590  0.00  0.00     0.040 A 
HETATM    7  C   UNK N   1      19.749  18.619   2.713  0.00  0.00     0.090 A 
ENDROOT
BRANCH   3   8
HETATM    8  C   UNK N   1      23.624  18.025   4.443  0.00  0.00     0.185 C 
BRANCH   8   9
HETATM    9  O   UNK N   1      23.498  17.702   5.796  0.00  0.00    -0.388 OA
HETATM   10  H   UNK N   1      22.725  17.923   6.339  0.00  0.00     0.210 HD
ENDBRANCH   8   9
BRANCH   8  11
HETATM   11  C   UNK N   1      24.509  19.248   4.293  0.00  0.00     0.152 C 
BRANCH  11  12
HETATM   12  N   UNK N   1      25.438  19.310   5.420  0.00  0.00    -0.411 N 
HETATM   13  H   UNK N   1      25.235  18.942   6.350  0.00  0.00     0.154 HD
BRANCH  12  14
HETATM   14  C   UNK N   1      26.694  19.966   5.050  0.00  0.00     0.014 C 
HETATM   15  C   UNK N   1      26.606  20.378   3.596  0.00  0.00     0.037 C 
HETATM   16  C   UNK N   1      27.883  19.028   5.202  0.00  0.00     0.037 C 
HETATM   17  C   UNK N   1      26.910  21.217   5.885  0.00  0.00     0.037 C 
ENDBRANCH  12  14
ENDBRANCH  11  12
ENDBRANCH   8  11
ENDBRANCH   3   8
BRANCH   5  18
HETATM   18  C   UNK N   1      20.647  20.616   1.470  0.00  0.00     0.224 C 
BRANCH  18  19
HETATM   19  O   UNK N   1      20.588  20.192   0.141  0.00  0.00    -0.395 OA
HETATM   20  H   UNK N   1      20.898  19.305  -0.101  0.00  0.00     0.209 HD
ENDBRANCH  18  19
ENDBRANCH   5  18
BRANCH   7  21
HETATM   21  O   UNK N   1      18.529  18.841   2.189  0.00  0.00    -0.359 OA
HETATM   22  H   UNK N   1      17.858  19.236   2.711  0.00  0.00     0.217 HD
ENDBRANCH   7  21
TORSDOF 8
ENDMDL
MODEL 3
REMARK VINA RESULT:      -5.5      7.760     11.495
REMARK  8 active torsions:
REMARK  status: ('A' for Active; 'I' for Inactive)
REMARK    1  A    between atoms: O_1  and  C_9 
REMARK    2  A    between atoms: O_2  and  C_17 
REMARK    3  A    between atoms: O_3  and  C_18 
REMARK    4  A    between atoms: N_4  and  C_7 
REMARK    5  A    between atoms: N_4  and  C_8 
REMARK    6  A    between atoms: C_8  and  C_9 
REMARK    7  A    between atoms: C_9  and  C_13 
REMARK    8  A    between atoms: C_15  and  C_18 
ROOT
HETATM    1  N   UNK N   1      32.938  15.763   8.025  0.00  0.00    -0.357 N 
ATOM      2  HN  UNK N   1      32.436  14.882   7.929  1.00  0.00     0.166 HD
HETATM    3  C   UNK N   1      32.690  16.761   7.135  0.00  0.00     0.040 A 
HETATM    4  C   UNK N   1      33.368  17.983   7.263  0.00  0.00     0.030 A 
HETATM    5  C   UNK N   1      33.834  15.903   9.042  0.00  0.00     0.066 A 
HETATM    6  C   UNK N   1      34.300  18.148   8.288  0.00  0.00     0.040 A 
HETATM    7  C   UNK N   1      34.533  17.108   9.188  0.00  0.00     0.090 A 
ENDROOT
BRANCH   3   8
HETATM    8  C   UNK N   1      31.627  16.562   6.086  0.00  0.00     0.185 C 
BRANCH   8   9
HETATM    9  O   UNK N   1      32.114  16.913   4.825  0.00  0.00    -0.388 OA
HETATM   10  H   UNK N   1      33.039  17.144   4.642  0.00  0.00     0.210 HD
ENDBRANCH   8   9
BRANCH   8  11
HETATM   11  C   UNK N   1      30.346  17.325   6.367  0.00  0.00     0.152 C 
BRANCH  11  12
HETATM   12  N   UNK N   1      29.795  16.881   7.646  0.00  0.00    -0.411 N 
HETATM   13  H   UNK N   1      29.849  15.923   7.992  0.00  0.00     0.154 HD
BRANCH  12  14
HETATM   14  C   UNK N   1      29.154  17.982   8.369  0.00  0.00     0.014 C 
HETATM   15  C   UNK N   1      28.118  17.397   9.306  0.00  0.00     0.037 C 
HETATM   16  C   UNK N   1      28.443  18.937   7.421  0.00  0.00     0.037 C 
HETATM   17  C   UNK N   1      30.174  18.740   9.202  0.00  0.00     0.037 C 
ENDBRANCH  12  14
ENDBRANCH  11  12
ENDBRANCH   8  11
ENDBRANCH   3   8
BRANCH   5  18
HETATM   18  C   UNK N   1      34.053  14.774  10.002  0.00  0.00     0.224 C 
BRANCH  18  19
HETATM   19  O   UNK N   1      33.476  15.054  11.243  0.00  0.00    -0.395 OA
HETATM   20  H   UNK N   1      33.626  15.913  11.667  0.00  0.00     0.209 HD
ENDBRANCH  18  19
ENDBRANCH   5  18
BRANCH   7  21
HETATM   21  O   UNK N   1      35.417  17.277  10.189  0.00  0.00    -0.359 OA
HETATM   22  H   UNK N   1      35.497  16.625  10.859  0.00  0.00     0.217 HD
ENDBRANCH   7  21
TORSDOF 8
ENDMDL
MODEL 4
REMARK VINA RESULT:      -5.5      1.475      2.574
REMARK  8 active torsions:
REMARK  status: ('A' for Active; 'I' for Inactive)
REMARK    1  A    between atoms: O_1  and  C_9 
REMARK    2  A    between atoms: O_2  and  C_17 
REMARK    3  A    between atoms: O_3  and  C_18 
REMARK    4  A    between atoms: N_4  and  C_7 
REMARK    5  A    between atoms: N_4  and  C_8 
REMARK    6  A    between atoms: C_8  and  C_9 
REMARK    7  A    between atoms: C_9  and  C_13 
REMARK    8  A    between atoms: C_15  and  C_18 
ROOT
HETATM    1  N   UNK N   1      21.936  18.570   3.477  0.00  0.00    -0.357 N 
ATOM      2  HN  UNK N   1      22.598  17.933   3.919  1.00  0.00     0.166 HD
HETATM    3  C   UNK N   1      22.352  19.820   3.140  0.00  0.00     0.040 A 
HETATM    4  C   UNK N   1      21.453  20.703   2.523  0.00  0.00     0.030 A 
HETATM    5  C   UNK N   1      20.664  18.140   3.243  0.00  0.00     0.066 A 
HETATM    6  C   UNK N   1      20.142  20.292   2.282  0.00  0.00     0.040 A 
HETATM    7  C   UNK N   1      19.743  19.003   2.636  0.00  0.00     0.090 A 
ENDROOT
BRANCH   3   8
HETATM    8  C   UNK N   1      23.795  20.197   3.357  0.00  0.00     0.185 C 
BRANCH   8   9
HETATM    9  O   UNK N   1      24.322  20.789   2.208  0.00  0.00    -0.388 OA
HETATM   10  H   UNK N   1      23.786  21.151   1.485  0.00  0.00     0.210 HD
ENDBRANCH   8   9
BRANCH   8  11
HETATM   11  C   UNK N   1      24.671  19.032   3.777  0.00  0.00     0.152 C 
BRANCH  11  12
HETATM   12  N   UNK N   1      25.140  19.254   5.144  0.00  0.00    -0.411 N 
HETATM   13  H   UNK N   1      24.524  19.382   5.947  0.00  0.00     0.154 HD
BRANCH  12  14
HETATM   14  C   UNK N   1      26.603  19.268   5.217  0.00  0.00     0.014 C 
HETATM   15  C   UNK N   1      27.017  20.282   6.263  0.00  0.00     0.037 C 
HETATM   16  C   UNK N   1      27.227  19.678   3.891  0.00  0.00     0.037 C 
HETATM   17  C   UNK N   1      27.130  17.907   5.641  0.00  0.00     0.037 C 
ENDBRANCH  12  14
ENDBRANCH  11  12
ENDBRANCH   8  11
ENDBRANCH   3   8
BRANCH   5  18
HETATM   18  C   UNK N   1      20.268  16.746   3.620  0.00  0.00     0.224 C 
BRANCH  18  19
HETATM   19  O   UNK N   1      19.027  16.734   4.261  0.00  0.00    -0.395 OA
HETATM   20  H   UNK N   1      18.647  17.560   4.599  0.00  0.00     0.209 HD
ENDBRANCH  18  19
ENDBRANCH   5  18
BRANCH   7  21
HETATM   21  O   UNK N   1      18.484  18.601   2.384  0.00  0.00    -0.359 OA
HETATM   22  H   UNK N   1      18.181  17.773   2.706  0.00  0.00     0.217 HD
ENDBRANCH   7  21
TORSDOF 8
ENDMDL
MODEL 5
REMARK VINA RESULT:      -5.4     11.338     14.244
REMARK  8 active torsions:
REMARK  status: ('A' for Active; 'I' for Inactive)
REMARK    1  A    between atoms: O_1  and  C_9 
REMARK    2  A    between atoms: O_2  and  C_17 
REMARK    3  A    between atoms: O_3  and  C_18 
REMARK    4  A    between atoms: N_4  and  C_7 
REMARK    5  A    between atoms: N_4  and  C_8 
REMARK    6  A    between atoms: C_8  and  C_9 
REMARK    7  A    between atoms: C_9  and  C_13 
REMARK    8  A    between atoms: C_15  and  C_18 
ROOT
HETATM    1  N   UNK N   1      34.771  17.031   9.575  0.00  0.00    -0.357 N 
ATOM      2  HN  UNK N   1      35.486  17.757   9.623  1.00  0.00     0.166 HD
HETATM    3  C   UNK N   1      34.845  15.978  10.431  0.00  0.00     0.040 A 
HETATM    4  C   UNK N   1      33.861  14.978  10.381  0.00  0.00     0.030 A 
HETATM    5  C   UNK N   1      33.773  17.152   8.655  0.00  0.00     0.066 A 
HETATM    6  C   UNK N   1      32.835  15.070   9.440  0.00  0.00     0.040 A 
HETATM    7  C   UNK N   1      32.782  16.163   8.576  0.00  0.00     0.090 A 
ENDROOT
BRANCH   3   8
HETATM    8  C   UNK N   1      35.932  15.954  11.474  0.00  0.00     0.185 C 
BRANCH   8   9
HETATM    9  O   UNK N   1      37.182  15.802  10.872  0.00  0.00    -0.388 OA
HETATM   10  H   UNK N   1      37.924  15.318  11.269  0.00  0.00     0.210 HD
ENDBRANCH   8   9
BRANCH   8  11
HETATM   11  C   UNK N   1      35.740  14.879  12.528  0.00  0.00     0.152 C 
BRANCH  11  12
HETATM   12  N   UNK N   1      36.893  13.981  12.512  0.00  0.00    -0.411 N 
HETATM   13  H   UNK N   1      37.779  14.195  12.055  0.00  0.00     0.154 HD
BRANCH  12  14
HETATM   14  C   UNK N   1      36.618  12.736  13.234  0.00  0.00     0.014 C 
HETATM   15  C   UNK N   1      36.809  12.993  14.714  0.00  0.00     0.037 C 
HETATM   16  C   UNK N   1      37.575  11.626  12.822  0.00  0.00     0.037 C 
HETATM   17  C   UNK N   1      35.182  12.295  13.010  0.00  0.00     0.037 C 
ENDBRANCH  12  14
ENDBRANCH  11  12
ENDBRANCH   8  11
ENDBRANCH   3   8
BRANCH   5  18
HETATM   18  C   UNK N   1      33.734  18.344   7.749  0.00  0.00     0.224 C 
BRANCH  18  19
HETATM   19  O   UNK N   1      34.178  18.013   6.467  0.00  0.00    -0.395 OA
HETATM   20  H   UNK N   1      34.349  18.712   5.817  0.00  0.00     0.209 HD
ENDBRANCH  18  19
ENDBRANCH   5  18
BRANCH   7  21
HETATM   21  O   UNK N   1      31.780  16.262   7.683  0.00  0.00    -0.359 OA
HETATM   22  H   UNK N   1      31.195  16.995   7.713  0.00  0.00     0.217 HD
ENDBRANCH   7  21
TORSDOF 8
ENDMDL
MODEL 6
REMARK VINA RESULT:      -5.4      5.219      9.473
REMARK  8 active torsions:
REMARK  status: ('A' for Active; 'I' for Inactive)
REMARK    1  A    between atoms: O_1  and  C_9 
REMARK    2  A    between atoms: O_2  and  C_17 
REMARK    3  A    between atoms: O_3  and  C_18 
REMARK    4  A    between atoms: N_4  and  C_7 
REMARK    5  A    between atoms: N_4  and  C_8 
REMARK    6  A    between atoms: C_8  and  C_9 
REMARK    7  A    between atoms: C_9  and  C_13 
REMARK    8  A    between atoms: C_15  and  C_18 
ROOT
HETATM    1  N   UNK N   1      31.014  16.918   6.319  0.00  0.00    -0.357 N 
ATOM      2  HN  UNK N   1      30.245  16.610   6.912  1.00  0.00     0.166 HD
HETATM    3  C   UNK N   1      30.755  17.245   5.024  0.00  0.00     0.040 A 
HETATM    4  C   UNK N   1      31.804  17.679   4.200  0.00  0.00     0.030 A 
HETATM    5  C   UNK N   1      32.268  16.989   6.849  0.00  0.00     0.066 A 
HETATM    6  C   UNK N   1      33.099  17.749   4.714  0.00  0.00     0.040 A 
HETATM    7  C   UNK N   1      33.336  17.410   6.046  0.00  0.00     0.090 A 
ENDROOT
BRANCH   3   8
HETATM    8  C   UNK N   1      29.332  17.219   4.532  0.00  0.00     0.185 C 
BRANCH   8   9
HETATM    9  O   UNK N   1      29.297  17.295   3.138  0.00  0.00    -0.388 OA
HETATM   10  H   UNK N   1      30.014  17.653   2.592  0.00  0.00     0.210 HD
ENDBRANCH   8   9
BRANCH   8  11
HETATM   11  C   UNK N   1      28.464  18.314   5.123  0.00  0.00     0.152 C 
BRANCH  11  12
HETATM   12  N   UNK N   1      28.123  19.274   4.075  0.00  0.00    -0.411 N 
HETATM   13  H   UNK N   1      28.693  19.444   3.247  0.00  0.00     0.154 HD
BRANCH  12  14
HETATM   14  C   UNK N   1      26.861  19.961   4.361  0.00  0.00     0.014 C 
HETATM   15  C   UNK N   1      25.873  18.941   4.887  0.00  0.00     0.037 C 
HETATM   16  C   UNK N   1      26.267  20.588   3.108  0.00  0.00     0.037 C 
HETATM   17  C   UNK N   1      27.061  21.023   5.429  0.00  0.00     0.037 C 
ENDBRANCH  12  14
ENDBRANCH  11  12
ENDBRANCH   8  11
ENDBRANCH   3   8
BRANCH   5  18
HETATM   18  C   UNK N   1      32.490  16.632   8.286  0.00  0.00     0.224 C 
BRANCH  18  19
HETATM   19  O   UNK N   1      33.027  17.710   8.993  0.00  0.00    -0.395 OA
HETATM   20  H   UNK N   1      33.167  17.642   9.950  0.00  0.00     0.209 HD
ENDBRANCH  18  19
ENDBRANCH   5  18
BRANCH   7  21
HETATM   21  O   UNK N   1      34.582  17.499   6.547  0.00  0.00    -0.359 OA
HETATM   22  H   UNK N   1      34.740  17.305   7.451  0.00  0.00     0.217 HD
ENDBRANCH   7  21
TORSDOF 8
ENDMDL
MODEL 7
REMARK VINA RESULT:      -5.4      7.602      9.651
REMARK  8 active torsions:
REMARK  status: ('A' for Active; 'I' for Inactive)
REMARK    1  A    between atoms: O_1  and  C_9 
REMARK    2  A    between atoms: O_2  and  C_17 
REMARK    3  A    between atoms: O_3  and  C_18 
REMARK    4  A    between atoms: N_4  and  C_7 
REMARK    5  A    between atoms: N_4  and  C_8 
REMARK    6  A    between atoms: C_8  and  C_9 
REMARK    7  A    between atoms: C_9  and  C_13 
REMARK    8  A    between atoms: C_15  and  C_18 
ROOT
HETATM    1  N   UNK N   1      22.594  13.898   9.486  0.00  0.00    -0.357 N 
ATOM      2  HN  UNK N   1      23.192  14.473   8.894  1.00  0.00     0.166 HD
HETATM    3  C   UNK N   1      21.260  14.159   9.524  0.00  0.00     0.040 A 
HETATM    4  C   UNK N   1      20.426  13.368  10.328  0.00  0.00     0.030 A 
HETATM    5  C   UNK N   1      23.159  12.892  10.213  0.00  0.00     0.066 A 
HETATM    6  C   UNK N   1      20.979  12.340  11.092  0.00  0.00     0.040 A 
HETATM    7  C   UNK N   1      22.350  12.093  11.032  0.00  0.00     0.090 A 
ENDROOT
BRANCH   3   8
HETATM    8  C   UNK N   1      20.697  15.235   8.632  0.00  0.00     0.185 C 
BRANCH   8   9
HETATM    9  O   UNK N   1      19.324  15.372   8.841  0.00  0.00    -0.388 OA
HETATM   10  H   UNK N   1      18.688  15.609   8.147  0.00  0.00     0.210 HD
ENDBRANCH   8   9
BRANCH   8  11
HETATM   11  C   UNK N   1      20.968  15.005   7.157  0.00  0.00     0.152 C 
BRANCH  11  12
HETATM   12  N   UNK N   1      22.008  15.930   6.711  0.00  0.00    -0.411 N 
HETATM   13  H   UNK N   1      22.961  15.939   7.075  0.00  0.00     0.154 HD
BRANCH  12  14
HETATM   14  C   UNK N   1      21.513  16.842   5.677  0.00  0.00     0.014 C 
HETATM   15  C   UNK N   1      21.393  18.225   6.280  0.00  0.00     0.037 C 
HETATM   16  C   UNK N   1      20.138  16.426   5.175  0.00  0.00     0.037 C 
HETATM   17  C   UNK N   1      22.490  16.914   4.515  0.00  0.00     0.037 C 
ENDBRANCH  12  14
ENDBRANCH  11  12
ENDBRANCH   8  11
ENDBRANCH   3   8
BRANCH   5  18
HETATM   18  C   UNK N   1      24.632  12.641  10.117  0.00  0.00     0.224 C 
BRANCH  18  19
HETATM   19  O   UNK N   1      25.219  12.622  11.384  0.00  0.00    -0.395 OA
HETATM   20  H   UNK N   1      25.855  11.926  11.615  0.00  0.00     0.209 HD
ENDBRANCH  18  19
ENDBRANCH   5  18
BRANCH   7  21
HETATM   21  O   UNK N   1      22.880  11.086  11.752  0.00  0.00    -0.359 OA
HETATM   22  H   UNK N   1      22.790  10.200  11.459  0.00  0.00     0.217 HD
ENDBRANCH   7  21
TORSDOF 8
ENDMDL
MODEL 8
REMARK VINA RESULT:      -5.3      8.234     10.407
REMARK  8 active torsions:
REMARK  status: ('A' for Active; 'I' for Inactive)
REMARK    1  A    between atoms: O_1  and  C_9 
REMARK    2  A    between atoms: O_2  and  C_17 
REMARK    3  A    between atoms: O_3  and  C_18 
REMARK    4  A    between atoms: N_4  and  C_7 
REMARK    5  A    between atoms: N_4  and  C_8 
REMARK    6  A    between atoms: C_8  and  C_9 
REMARK    7  A    between atoms: C_9  and  C_13 
REMARK    8  A    between atoms: C_15  and  C_18 
ROOT
HETATM    1  N   UNK N   1      31.278  17.851   8.877  0.00  0.00    -0.357 N 
ATOM      2  HN  UNK N   1      31.561  18.179   9.799  1.00  0.00     0.166 HD
HETATM    3  C   UNK N   1      32.217  17.750   7.899  0.00  0.00     0.040 A 
HETATM    4  C   UNK N   1      31.842  17.290   6.627  0.00  0.00     0.030 A 
HETATM    5  C   UNK N   1      29.971  17.527   8.665  0.00  0.00     0.066 A 
HETATM    6  C   UNK N   1      30.508  16.963   6.380  0.00  0.00     0.040 A 
HETATM    7  C   UNK N   1      29.566  17.074   7.402  0.00  0.00     0.090 A 
ENDROOT
BRANCH   3   8
HETATM    8  C   UNK N   1      33.656  18.048   8.229  0.00  0.00     0.185 C 
BRANCH   8   9
HETATM    9  O   UNK N   1      34.420  18.121   7.063  0.00  0.00    -0.388 OA
HETATM   10  H   UNK N   1      34.751  17.348   6.578  0.00  0.00     0.210 HD
ENDBRANCH   8   9
BRANCH   8  11
HETATM   11  C   UNK N   1      34.280  17.049   9.185  0.00  0.00     0.152 C 
BRANCH  11  12
HETATM   12  N   UNK N   1      34.506  15.788   8.480  0.00  0.00    -0.411 N 
HETATM   13  H   UNK N   1      34.935  15.716   7.558  0.00  0.00     0.154 HD
BRANCH  12  14
HETATM   14  C   UNK N   1      34.038  14.641   9.263  0.00  0.00     0.014 C 
HETATM   15  C   UNK N   1      34.950  13.467   8.978  0.00  0.00     0.037 C 
HETATM   16  C   UNK N   1      32.621  14.240   8.877  0.00  0.00     0.037 C 
HETATM   17  C   UNK N   1      34.105  14.945  10.750  0.00  0.00     0.037 C 
ENDBRANCH  12  14
ENDBRANCH  11  12
ENDBRANCH   8  11
ENDBRANCH   3   8
BRANCH   5  18
HETATM   18  C   UNK N   1      28.984  17.642   9.786  0.00  0.00     0.224 C 
BRANCH  18  19
HETATM   19  O   UNK N   1      27.806  18.256   9.354  0.00  0.00    -0.395 OA
HETATM   20  H   UNK N   1      27.582  19.148   9.662  0.00  0.00     0.209 HD
ENDBRANCH  18  19
ENDBRANCH   5  18
BRANCH   7  21
HETATM   21  O   UNK N   1      28.284  16.738   7.169  0.00  0.00    -0.359 OA
HETATM   22  H   UNK N   1      27.854  16.112   7.720  0.00  0.00     0.217 HD
ENDBRANCH   7  21
TORSDOF 8
ENDMDL
MODEL 9
REMARK VINA RESULT:      -5.3      3.670      6.811
REMARK  8 active torsions:
REMARK  status: ('A' for Active; 'I' for Inactive)
REMARK    1  A    between atoms: O_1  and  C_9 
REMARK    2  A    between atoms: O_2  and  C_17 
REMARK    3  A    between atoms: O_3  and  C_18 
REMARK    4  A    between atoms: N_4  and  C_7 
REMARK    5  A    between atoms: N_4  and  C_8 
REMARK    6  A    between atoms: C_8  and  C_9 
REMARK    7  A    between atoms: C_9  and  C_13 
REMARK    8  A    between atoms: C_15  and  C_18 
ROOT
HETATM    1  N   UNK N   1      20.026  18.919   2.385  0.00  0.00    -0.357 N 
ATOM      2  HN  UNK N   1      19.154  18.860   1.860  1.00  0.00     0.166 HD
HETATM    3  C   UNK N   1      20.339  17.921   3.254  0.00  0.00     0.040 A 
HETATM    4  C   UNK N   1      21.541  17.985   3.974  0.00  0.00     0.030 A 
HETATM    5  C   UNK N   1      20.840  19.994   2.189  0.00  0.00     0.066 A 
HETATM    6  C   UNK N   1      22.387  19.082   3.802  0.00  0.00     0.040 A 
HETATM    7  C   UNK N   1      22.043  20.090   2.902  0.00  0.00     0.090 A 
ENDROOT
BRANCH   3   8
HETATM    8  C   UNK N   1      19.429  16.725   3.357  0.00  0.00     0.185 C 
BRANCH   8   9
HETATM    9  O   UNK N   1      18.818  16.683   4.611  0.00  0.00    -0.388 OA
HETATM   10  H   UNK N   1      18.317  17.418   5.000  0.00  0.00     0.210 HD
ENDBRANCH   8   9
BRANCH   8  11
HETATM   11  C   UNK N   1      20.126  15.405   3.086  0.00  0.00     0.152 C 
BRANCH  11  12
HETATM   12  N   UNK N   1      19.239  14.545   2.305  0.00  0.00    -0.411 N 
HETATM   13  H   UNK N   1      18.380  14.130   2.666  0.00  0.00     0.154 HD
BRANCH  12  14
HETATM   14  C   UNK N   1      19.736  14.353   0.941  0.00  0.00     0.014 C 
HETATM   15  C   UNK N   1      19.071  15.375   0.043  0.00  0.00     0.037 C 
HETATM   16  C   UNK N   1      19.395  12.968   0.409  0.00  0.00     0.037 C 
HETATM   17  C   UNK N   1      21.238  14.576   0.883  0.00  0.00     0.037 C 
ENDBRANCH  12  14
ENDBRANCH  11  12
ENDBRANCH   8  11
ENDBRANCH   3   8
BRANCH   5  18
HETATM   18  C   UNK N   1      20.451  21.054   1.206  0.00  0.00     0.224 C 
BRANCH  18  19
HETATM   19  O   UNK N   1      21.127  20.887  -0.004  0.00  0.00    -0.395 OA
HETATM   20  H   UNK N   1      21.217  20.002  -0.393  0.00  0.00     0.209 HD
ENDBRANCH  18  19
ENDBRANCH   5  18
BRANCH   7  21
HETATM   21  O   UNK N   1      22.870  21.136   2.721  0.00  0.00    -0.359 OA
HETATM   22  H   UNK N   1      23.789  21.041   2.880  0.00  0.00     0.217 HD
ENDBRANCH   7  21
TORSDOF 8
ENDMDL
