MODEL 1
REMARK VINA RESULT:      -6.5      0.000      0.000
REMARK  11 active torsions:
REMARK  status: ('A' for Active; 'I' for Inactive)
REMARK    1  A    between atoms: O_1  and  C_11 
REMARK    2  A    between atoms: O_1  and  C_17 
REMARK    3  A    between atoms: O_2  and  C_7 
REMARK    4  A    between atoms: O_3  and  C_14 
REMARK    5  A    between atoms: O_4  and  C_16 
REMARK    6  A    between atoms: N_5  and  C_6 
REMARK    7  A    between atoms: N_5  and  C_8 
REMARK    8  A    between atoms: C_6  and  C_7 
REMARK    9  A    between atoms: C_7  and  C_11 
REMARK   10  A    between atoms: C_8  and  C_9 
REMARK   11  A    between atoms: C_9  and  C_10 
ROOT
HETATM    1  N   UNK N   1      28.234  18.948   5.980  0.00  0.00    -0.418 N 
HETATM    2  H   UNK N   1      28.845  19.748   6.144  0.00  0.00     0.153 HD
ENDROOT
BRANCH   1   3
HETATM    3  C   UNK N   1      27.705  18.049   6.993  0.00  0.00     0.147 C 
BRANCH   3   4
HETATM    4  C   UNK N   1      28.358  18.352   8.329  0.00  0.00     0.159 C 
BRANCH   4   5
HETATM    5  O   UNK N   1      27.426  18.262   9.364  0.00  0.00    -0.392 OA
HETATM    6  H   UNK N   1      27.368  17.498   9.958  0.00  0.00     0.210 HD
ENDBRANCH   4   5
BRANCH   4   7
HETATM    7  C   UNK N   1      29.537  17.428   8.568  0.00  0.00     0.209 C 
BRANCH   7   8
HETATM    8  O   UNK N   1      29.973  16.869   7.387  0.00  0.00    -0.349 OA
BRANCH   8   9
HETATM    9  C   UNK N   1      31.223  17.056   6.909  0.00  0.00     0.069 A 
HETATM   10  C   UNK N   1      32.205  17.565   7.763  0.00  0.00     0.043 A 
HETATM   11  C   UNK N   1      33.497  17.806   7.288  0.00  0.00    -0.059 A 
HETATM   12  C   UNK N   1      33.817  17.527   5.956  0.00  0.00     0.007 A 
HETATM   13  C   UNK N   1      34.525  18.377   8.197  0.00  0.00     0.048 C 
HETATM   14  C   UNK N   1      32.845  17.006   5.098  0.00  0.00     0.003 A 
HETATM   15  C   UNK N   1      31.550  16.776   5.568  0.00  0.00     0.037 A 
ENDBRANCH   8   9
ENDBRANCH   7   8
ENDBRANCH   4   7
ENDBRANCH   3   4
ENDBRANCH   1   3
BRANCH   1  16
HETATM   16  C   UNK N   1      27.733  18.500   4.688  0.00  0.00     0.118 C 
BRANCH  16  17
HETATM   17  C   UNK N   1      27.320  19.707   3.865  0.00  0.00     0.058 C 
BRANCH  17  18
HETATM   18  C   UNK N   1      25.840  19.727   3.713  0.00  0.00    -0.054 A 
HETATM   19  C   UNK N   1      25.085  18.743   4.342  0.00  0.00     0.046 A 
HETATM   20  C   UNK N   1      23.688  18.699   4.193  0.00  0.00     0.102 A 
HETATM   21  C   UNK N   1      23.046  19.685   3.393  0.00  0.00     0.101 A 
HETATM   22  C   UNK N   1      23.824  20.675   2.778  0.00  0.00     0.040 A 
HETATM   23  C   UNK N   1      25.212  20.697   2.929  0.00  0.00     0.010 A 
BRANCH  20  24
HETATM   24  O   UNK N   1      22.968  17.724   4.800  0.00  0.00    -0.353 OA
HETATM   25  C   UNK N   1      22.199  17.936   5.924  0.00  0.00     0.210 C 
ENDBRANCH  20  24
BRANCH  21  26
HETATM   26  O   UNK N   1      21.703  19.721   3.183  0.00  0.00    -0.353 OA
HETATM   27  C   UNK N   1      21.045  20.609   2.365  0.00  0.00     0.210 C 
ENDBRANCH  21  26
ENDBRANCH  17  18
ENDBRANCH  16  17
ENDBRANCH   1  16
TORSDOF 11
ENDMDL
MODEL 2
REMARK VINA RESULT:      -6.2      6.115      8.559
REMARK  11 active torsions:
REMARK  status: ('A' for Active; 'I' for Inactive)
REMARK    1  A    between atoms: O_1  and  C_11 
REMARK    2  A    between atoms: O_1  and  C_17 
REMARK    3  A    between atoms: O_2  and  C_7 
REMARK    4  A    between atoms: O_3  and  C_14 
REMARK    5  A    between atoms: O_4  and  C_16 
REMARK    6  A    between atoms: N_5  and  C_6 
REMARK    7  A    between atoms: N_5  and  C_8 
REMARK    8  A    between atoms: C_6  and  C_7 
REMARK    9  A    between atoms: C_7  and  C_11 
REMARK   10  A    between atoms: C_8  and  C_9 
REMARK   11  A    between atoms: C_9  and  C_10 
ROOT
HETATM    1  N   UNK N   1      19.473  16.060   6.268  0.00  0.00    -0.418 N 
HETATM    2  H   UNK N   1      18.468  15.890   6.239  0.00  0.00     0.153 HD
ENDROOT
BRANCH   1   3
HETATM    3  C   UNK N   1      20.232  16.514   7.422  0.00  0.00     0.147 C 
BRANCH   3   4
HETATM    4  C   UNK N   1      19.403  16.329   8.679  0.00  0.00     0.159 C 
BRANCH   4   5
HETATM    5  O   UNK N   1      18.041  16.439   8.390  0.00  0.00    -0.392 OA
HETATM    6  H   UNK N   1      17.654  16.150   7.549  0.00  0.00     0.210 HD
ENDBRANCH   4   5
BRANCH   4   7
HETATM    7  C   UNK N   1      19.721  15.000   9.337  0.00  0.00     0.209 C 
BRANCH   7   8
HETATM    8  O   UNK N   1      20.257  14.115   8.427  0.00  0.00    -0.349 OA
BRANCH   8   9
HETATM    9  C   UNK N   1      21.211  13.218   8.758  0.00  0.00     0.069 A 
HETATM   10  C   UNK N   1      21.554  13.060  10.104  0.00  0.00     0.043 A 
HETATM   11  C   UNK N   1      22.564  12.168  10.474  0.00  0.00    -0.059 A 
HETATM   12  C   UNK N   1      23.229  11.418   9.500  0.00  0.00     0.007 A 
HETATM   13  C   UNK N   1      22.943  12.032  11.905  0.00  0.00     0.048 C 
HETATM   14  C   UNK N   1      22.883  11.559   8.153  0.00  0.00     0.003 A 
HETATM   15  C   UNK N   1      21.883  12.460   7.780  0.00  0.00     0.037 A 
ENDBRANCH   8   9
ENDBRANCH   7   8
ENDBRANCH   4   7
ENDBRANCH   3   4
ENDBRANCH   1   3
BRANCH   1  16
HETATM   16  C   UNK N   1      20.406  15.891   5.164  0.00  0.00     0.118 C 
BRANCH  16  17
HETATM   17  C   UNK N   1      20.042  16.853   4.048  0.00  0.00     0.058 C 
BRANCH  17  18
HETATM   18  C   UNK N   1      21.125  17.858   3.879  0.00  0.00    -0.054 A 
HETATM   19  C   UNK N   1      20.926  18.923   3.006  0.00  0.00     0.046 A 
HETATM   20  C   UNK N   1      21.936  19.875   2.784  0.00  0.00     0.102 A 
HETATM   21  C   UNK N   1      23.172  19.744   3.475  0.00  0.00     0.101 A 
HETATM   22  C   UNK N   1      23.349  18.672   4.359  0.00  0.00     0.040 A 
HETATM   23  C   UNK N   1      22.337  17.730   4.559  0.00  0.00     0.010 A 
BRANCH  20  24
HETATM   24  O   UNK N   1      21.730  20.897   1.919  0.00  0.00    -0.353 OA
HETATM   25  C   UNK N   1      20.588  21.032   1.160  0.00  0.00     0.210 C 
ENDBRANCH  20  24
BRANCH  21  26
HETATM   26  O   UNK N   1      24.211  20.609   3.321  0.00  0.00    -0.353 OA
HETATM   27  C   UNK N   1      25.424  20.308   2.749  0.00  0.00     0.210 C 
ENDBRANCH  21  26
ENDBRANCH  17  18
ENDBRANCH  16  17
ENDBRANCH   1  16
TORSDOF 11
ENDMDL
MODEL 3
REMARK VINA RESULT:      -6.1     12.236     14.658
REMARK  11 active torsions:
REMARK  status: ('A' for Active; 'I' for Inactive)
REMARK    1  A    between atoms: O_1  and  C_11 
REMARK    2  A    between atoms: O_1  and  C_17 
REMARK    3  A    between atoms: O_2  and  C_7 
REMARK    4  A    between atoms: O_3  and  C_14 
REMARK    5  A    between atoms: O_4  and  C_16 
REMARK    6  A    between atoms: N_5  and  C_6 
REMARK    7  A    between atoms: N_5  and  C_8 
REMARK    8  A    between atoms: C_6  and  C_7 
REMARK    9  A    between atoms: C_7  and  C_11 
REMARK   10  A    between atoms: C_8  and  C_9 
REMARK   11  A    between atoms: C_9  and  C_10 
ROOT
HETATM    1  N   UNK N   1      26.334  24.470  -9.678  0.00  0.00    -0.418 N 
HETATM    2  H   UNK N   1      25.864  24.703 -10.553  0.00  0.00     0.153 HD
ENDROOT
BRANCH   1   3
HETATM    3  C   UNK N   1      26.629  23.130  -9.195  0.00  0.00     0.147 C 
BRANCH   3   4
HETATM    4  C   UNK N   1      25.382  22.530  -8.574  0.00  0.00     0.159 C 
BRANCH   4   5
HETATM    5  O   UNK N   1      24.923  21.452  -9.336  0.00  0.00    -0.392 OA
HETATM    6  H   UNK N   1      25.466  21.011 -10.007  0.00  0.00     0.210 HD
ENDBRANCH   4   5
BRANCH   4   7
HETATM    7  C   UNK N   1      25.646  22.116  -7.139  0.00  0.00     0.209 C 
BRANCH   7   8
HETATM    8  O   UNK N   1      25.448  23.173  -6.278  0.00  0.00    -0.349 OA
BRANCH   8   9
HETATM    9  C   UNK N   1      26.406  23.613  -5.432  0.00  0.00     0.069 A 
HETATM   10  C   UNK N   1      27.748  23.449  -5.785  0.00  0.00     0.043 A 
HETATM   11  C   UNK N   1      28.762  23.858  -4.914  0.00  0.00    -0.059 A 
HETATM   12  C   UNK N   1      28.437  24.447  -3.688  0.00  0.00     0.007 A 
HETATM   13  C   UNK N   1      30.185  23.650  -5.285  0.00  0.00     0.048 C 
HETATM   14  C   UNK N   1      27.097  24.627  -3.333  0.00  0.00     0.003 A 
HETATM   15  C   UNK N   1      26.083  24.207  -4.197  0.00  0.00     0.037 A 
ENDBRANCH   8   9
ENDBRANCH   7   8
ENDBRANCH   4   7
ENDBRANCH   3   4
ENDBRANCH   1   3
BRANCH   1  16
HETATM   16  C   UNK N   1      26.831  25.416  -8.690  0.00  0.00     0.118 C 
BRANCH  16  17
HETATM   17  C   UNK N   1      25.661  26.171  -8.086  0.00  0.00     0.058 C 
BRANCH  17  18
HETATM   18  C   UNK N   1      26.097  26.859  -6.841  0.00  0.00    -0.054 A 
HETATM   19  C   UNK N   1      27.454  27.087  -6.637  0.00  0.00     0.046 A 
HETATM   20  C   UNK N   1      27.916  27.697  -5.458  0.00  0.00     0.102 A 
HETATM   21  C   UNK N   1      26.972  28.092  -4.469  0.00  0.00     0.101 A 
HETATM   22  C   UNK N   1      25.609  27.864  -4.699  0.00  0.00     0.040 A 
HETATM   23  C   UNK N   1      25.170  27.249  -5.873  0.00  0.00     0.010 A 
BRANCH  20  24
HETATM   24  O   UNK N   1      29.243  27.897  -5.268  0.00  0.00    -0.353 OA
HETATM   25  C   UNK N   1      30.218  27.286  -6.026  0.00  0.00     0.210 C 
ENDBRANCH  20  24
BRANCH  21  26
HETATM   26  O   UNK N   1      27.321  28.681  -3.294  0.00  0.00    -0.353 OA
HETATM   27  C   UNK N   1      27.042  29.979  -2.936  0.00  0.00     0.210 C 
ENDBRANCH  21  26
ENDBRANCH  17  18
ENDBRANCH  16  17
ENDBRANCH   1  16
TORSDOF 11
ENDMDL
MODEL 4
REMARK VINA RESULT:      -6.1      3.643     10.069
REMARK  11 active torsions:
REMARK  status: ('A' for Active; 'I' for Inactive)
REMARK    1  A    between atoms: O_1  and  C_11 
REMARK    2  A    between atoms: O_1  and  C_17 
REMARK    3  A    between atoms: O_2  and  C_7 
REMARK    4  A    between atoms: O_3  and  C_14 
REMARK    5  A    between atoms: O_4  and  C_16 
REMARK    6  A    between atoms: N_5  and  C_6 
REMARK    7  A    between atoms: N_5  and  C_8 
REMARK    8  A    between atoms: C_6  and  C_7 
REMARK    9  A    between atoms: C_7  and  C_11 
REMARK   10  A    between atoms: C_8  and  C_9 
REMARK   11  A    between atoms: C_9  and  C_10 
ROOT
HETATM    1  N   UNK N   1      31.598  17.888   8.780  0.00  0.00    -0.418 N 
HETATM    2  H   UNK N   1      31.541  18.874   9.035  0.00  0.00     0.153 HD
ENDROOT
BRANCH   1   3
HETATM    3  C   UNK N   1      30.658  16.848   9.166  0.00  0.00     0.147 C 
BRANCH   3   4
HETATM    4  C   UNK N   1      29.434  17.481   9.801  0.00  0.00     0.159 C 
BRANCH   4   5
HETATM    5  O   UNK N   1      29.751  18.727  10.346  0.00  0.00    -0.392 OA
HETATM    6  H   UNK N   1      29.223  19.150  11.040  0.00  0.00     0.210 HD
ENDBRANCH   4   5
BRANCH   4   7
HETATM    7  C   UNK N   1      28.307  17.593   8.791  0.00  0.00     0.209 C 
BRANCH   7   8
HETATM    8  O   UNK N   1      28.797  17.606   7.504  0.00  0.00    -0.349 OA
BRANCH   8   9
HETATM    9  C   UNK N   1      28.338  18.453   6.558  0.00  0.00     0.069 A 
HETATM   10  C   UNK N   1      27.744  19.654   6.956  0.00  0.00     0.043 A 
HETATM   11  C   UNK N   1      27.224  20.534   6.001  0.00  0.00    -0.059 A 
HETATM   12  C   UNK N   1      27.309  20.222   4.641  0.00  0.00     0.007 A 
HETATM   13  C   UNK N   1      26.566  21.793   6.437  0.00  0.00     0.048 C 
HETATM   14  C   UNK N   1      27.913  19.030   4.234  0.00  0.00     0.003 A 
HETATM   15  C   UNK N   1      28.421  18.144   5.187  0.00  0.00     0.037 A 
ENDBRANCH   8   9
ENDBRANCH   7   8
ENDBRANCH   4   7
ENDBRANCH   3   4
ENDBRANCH   1   3
BRANCH   1  16
HETATM   16  C   UNK N   1      32.633  17.269   7.966  0.00  0.00     0.118 C 
BRANCH  16  17
HETATM   17  C   UNK N   1      33.997  17.647   8.515  0.00  0.00     0.058 C 
BRANCH  17  18
HETATM   18  C   UNK N   1      34.477  16.585   9.440  0.00  0.00    -0.054 A 
HETATM   19  C   UNK N   1      34.086  15.269   9.215  0.00  0.00     0.046 A 
HETATM   20  C   UNK N   1      34.482  14.239  10.086  0.00  0.00     0.102 A 
HETATM   21  C   UNK N   1      35.302  14.556  11.204  0.00  0.00     0.101 A 
HETATM   22  C   UNK N   1      35.695  15.886  11.406  0.00  0.00     0.040 A 
HETATM   23  C   UNK N   1      35.284  16.897  10.535  0.00  0.00     0.010 A 
BRANCH  20  24
HETATM   24  O   UNK N   1      34.079  12.965   9.862  0.00  0.00    -0.353 OA
HETATM   25  C   UNK N   1      34.527  12.202   8.804  0.00  0.00     0.210 C 
ENDBRANCH  20  24
BRANCH  21  26
HETATM   26  O   UNK N   1      35.730  13.632  12.106  0.00  0.00    -0.353 OA
HETATM   27  C   UNK N   1      35.986  13.870  13.435  0.00  0.00     0.210 C 
ENDBRANCH  21  26
ENDBRANCH  17  18
ENDBRANCH  16  17
ENDBRANCH   1  16
TORSDOF 11
ENDMDL
MODEL 5
REMARK VINA RESULT:      -6.1      6.268      9.149
REMARK  11 active torsions:
REMARK  status: ('A' for Active; 'I' for Inactive)
REMARK    1  A    between atoms: O_1  and  C_11 
REMARK    2  A    between atoms: O_1  and  C_17 
REMARK    3  A    between atoms: O_2  and  C_7 
REMARK    4  A    between atoms: O_3  and  C_14 
REMARK    5  A    between atoms: O_4  and  C_16 
REMARK    6  A    between atoms: N_5  and  C_6 
REMARK    7  A    between atoms: N_5  and  C_8 
REMARK    8  A    between atoms: C_6  and  C_7 
REMARK    9  A    between atoms: C_7  and  C_11 
REMARK   10  A    between atoms: C_8  and  C_9 
REMARK   11  A    between atoms: C_9  and  C_10 
ROOT
HETATM    1  N   UNK N   1      35.038  17.201  10.144  0.00  0.00    -0.418 N 
HETATM    2  H   UNK N   1      34.945  18.079  10.654  0.00  0.00     0.153 HD
ENDROOT
BRANCH   1   3
HETATM    3  C   UNK N   1      35.692  15.995  10.625  0.00  0.00     0.147 C 
BRANCH   3   4
HETATM    4  C   UNK N   1      34.928  15.445  11.815  0.00  0.00     0.159 C 
BRANCH   4   5
HETATM    5  O   UNK N   1      33.745  14.831  11.399  0.00  0.00    -0.392 OA
HETATM    6  H   UNK N   1      33.728  14.059  10.811  0.00  0.00     0.210 HD
ENDBRANCH   4   5
BRANCH   4   7
HETATM    7  C   UNK N   1      35.796  14.488  12.610  0.00  0.00     0.209 C 
BRANCH   7   8
HETATM    8  O   UNK N   1      35.050  13.815  13.553  0.00  0.00    -0.349 OA
BRANCH   8   9
HETATM    9  C   UNK N   1      35.570  12.849  14.340  0.00  0.00     0.069 A 
HETATM   10  C   UNK N   1      35.147  12.757  15.669  0.00  0.00     0.043 A 
HETATM   11  C   UNK N   1      35.696  11.793  16.519  0.00  0.00    -0.059 A 
HETATM   12  C   UNK N   1      36.663  10.905  16.040  0.00  0.00     0.007 A 
HETATM   13  C   UNK N   1      35.261  11.725  17.939  0.00  0.00     0.048 C 
HETATM   14  C   UNK N   1      37.084  10.981  14.710  0.00  0.00     0.003 A 
HETATM   15  C   UNK N   1      36.546  11.952  13.862  0.00  0.00     0.037 A 
ENDBRANCH   8   9
ENDBRANCH   7   8
ENDBRANCH   4   7
ENDBRANCH   3   4
ENDBRANCH   1   3
BRANCH   1  16
HETATM   16  C   UNK N   1      34.540  16.929   8.803  0.00  0.00     0.118 C 
BRANCH  16  17
HETATM   17  C   UNK N   1      33.770  18.136   8.300  0.00  0.00     0.058 C 
BRANCH  17  18
HETATM   18  C   UNK N   1      32.401  17.723   7.890  0.00  0.00    -0.054 A 
HETATM   19  C   UNK N   1      32.236  17.036   6.691  0.00  0.00     0.046 A 
HETATM   20  C   UNK N   1      30.957  16.661   6.244  0.00  0.00     0.102 A 
HETATM   21  C   UNK N   1      29.824  16.985   7.040  0.00  0.00     0.101 A 
HETATM   22  C   UNK N   1      30.013  17.666   8.249  0.00  0.00     0.040 A 
HETATM   23  C   UNK N   1      31.290  18.039   8.673  0.00  0.00     0.010 A 
BRANCH  20  24
HETATM   24  O   UNK N   1      30.812  16.006   5.066  0.00  0.00    -0.353 OA
HETATM   25  C   UNK N   1      30.966  16.610   3.837  0.00  0.00     0.210 C 
ENDBRANCH  20  24
BRANCH  21  26
HETATM   26  O   UNK N   1      28.547  16.672   6.688  0.00  0.00    -0.353 OA
HETATM   27  C   UNK N   1      27.656  17.520   6.076  0.00  0.00     0.210 C 
ENDBRANCH  21  26
ENDBRANCH  17  18
ENDBRANCH  16  17
ENDBRANCH   1  16
TORSDOF 11
ENDMDL
MODEL 6
REMARK VINA RESULT:      -6.1      4.841      8.030
REMARK  11 active torsions:
REMARK  status: ('A' for Active; 'I' for Inactive)
REMARK    1  A    between atoms: O_1  and  C_11 
REMARK    2  A    between atoms: O_1  and  C_17 
REMARK    3  A    between atoms: O_2  and  C_7 
REMARK    4  A    between atoms: O_3  and  C_14 
REMARK    5  A    between atoms: O_4  and  C_16 
REMARK    6  A    between atoms: N_5  and  C_6 
REMARK    7  A    between atoms: N_5  and  C_8 
REMARK    8  A    between atoms: C_6  and  C_7 
REMARK    9  A    between atoms: C_7  and  C_11 
REMARK   10  A    between atoms: C_8  and  C_9 
REMARK   11  A    between atoms: C_9  and  C_10 
ROOT
HETATM    1  N   UNK N   1      19.136  18.184   2.180  0.00  0.00    -0.418 N 
HETATM    2  H   UNK N   1      18.199  17.850   1.954  0.00  0.00     0.153 HD
ENDROOT
BRANCH   1   3
HETATM    3  C   UNK N   1      19.483  19.519   2.638  0.00  0.00     0.147 C 
BRANCH   3   4
HETATM    4  C   UNK N   1      20.631  20.058   1.805  0.00  0.00     0.159 C 
BRANCH   4   5
HETATM    5  O   UNK N   1      20.149  20.737   0.684  0.00  0.00    -0.392 OA
HETATM    6  H   UNK N   1      19.758  21.624   0.731  0.00  0.00     0.210 HD
ENDBRANCH   4   5
BRANCH   4   7
HETATM    7  C   UNK N   1      21.528  20.947   2.645  0.00  0.00     0.209 C 
BRANCH   7   8
HETATM    8  O   UNK N   1      22.853  20.763   2.314  0.00  0.00    -0.349 OA
BRANCH   8   9
HETATM    9  C   UNK N   1      23.709  20.066   3.092  0.00  0.00     0.069 A 
HETATM   10  C   UNK N   1      25.063  20.412   3.087  0.00  0.00     0.043 A 
HETATM   11  C   UNK N   1      25.980  19.685   3.852  0.00  0.00    -0.059 A 
HETATM   12  C   UNK N   1      25.543  18.615   4.638  0.00  0.00     0.007 A 
HETATM   13  C   UNK N   1      27.422  20.042   3.815  0.00  0.00     0.048 C 
HETATM   14  C   UNK N   1      24.189  18.269   4.659  0.00  0.00     0.003 A 
HETATM   15  C   UNK N   1      23.274  18.987   3.885  0.00  0.00     0.037 A 
ENDBRANCH   8   9
ENDBRANCH   7   8
ENDBRANCH   4   7
ENDBRANCH   3   4
ENDBRANCH   1   3
BRANCH   1  16
HETATM   16  C   UNK N   1      20.366  17.408   2.104  0.00  0.00     0.118 C 
BRANCH  16  17
HETATM   17  C   UNK N   1      20.114  16.014   2.648  0.00  0.00     0.058 C 
BRANCH  17  18
HETATM   18  C   UNK N   1      20.987  15.770   3.827  0.00  0.00    -0.054 A 
HETATM   19  C   UNK N   1      20.729  16.457   5.009  0.00  0.00     0.046 A 
HETATM   20  C   UNK N   1      21.552  16.289   6.137  0.00  0.00     0.102 A 
HETATM   21  C   UNK N   1      22.656  15.394   6.060  0.00  0.00     0.101 A 
HETATM   22  C   UNK N   1      22.891  14.704   4.864  0.00  0.00     0.040 A 
HETATM   23  C   UNK N   1      22.068  14.891   3.752  0.00  0.00     0.010 A 
BRANCH  20  24
HETATM   24  O   UNK N   1      21.296  16.977   7.276  0.00  0.00    -0.353 OA
HETATM   25  C   UNK N   1      20.294  16.637   8.160  0.00  0.00     0.210 C 
ENDBRANCH  20  24
BRANCH  21  26
HETATM   26  O   UNK N   1      23.512  15.171   7.093  0.00  0.00    -0.353 OA
HETATM   27  C   UNK N   1      24.442  14.161   7.157  0.00  0.00     0.210 C 
ENDBRANCH  21  26
ENDBRANCH  17  18
ENDBRANCH  16  17
ENDBRANCH   1  16
TORSDOF 11
ENDMDL
MODEL 7
REMARK VINA RESULT:      -6.1      6.259      9.305
REMARK  11 active torsions:
REMARK  status: ('A' for Active; 'I' for Inactive)
REMARK    1  A    between atoms: O_1  and  C_11 
REMARK    2  A    between atoms: O_1  and  C_17 
REMARK    3  A    between atoms: O_2  and  C_7 
REMARK    4  A    between atoms: O_3  and  C_14 
REMARK    5  A    between atoms: O_4  and  C_16 
REMARK    6  A    between atoms: N_5  and  C_6 
REMARK    7  A    between atoms: N_5  and  C_8 
REMARK    8  A    between atoms: C_6  and  C_7 
REMARK    9  A    between atoms: C_7  and  C_11 
REMARK   10  A    between atoms: C_8  and  C_9 
REMARK   11  A    between atoms: C_9  and  C_10 
ROOT
HETATM    1  N   UNK N   1      34.916  15.776   9.338  0.00  0.00    -0.418 N 
HETATM    2  H   UNK N   1      34.547  15.267   8.535  0.00  0.00     0.153 HD
ENDROOT
BRANCH   1   3
HETATM    3  C   UNK N   1      35.724  15.215  10.410  0.00  0.00     0.147 C 
BRANCH   3   4
HETATM    4  C   UNK N   1      34.825  14.809  11.562  0.00  0.00     0.159 C 
BRANCH   4   5
HETATM    5  O   UNK N   1      33.575  14.402  11.092  0.00  0.00    -0.392 OA
HETATM    6  H   UNK N   1      33.165  13.560  11.342  0.00  0.00     0.210 HD
ENDBRANCH   4   5
BRANCH   4   7
HETATM    7  C   UNK N   1      35.481  13.723  12.394  0.00  0.00     0.209 C 
BRANCH   7   8
HETATM    8  O   UNK N   1      34.534  12.939  13.015  0.00  0.00    -0.349 OA
BRANCH   8   9
HETATM    9  C   UNK N   1      34.763  12.313  14.190  0.00  0.00     0.069 A 
HETATM   10  C   UNK N   1      34.812  13.072  15.363  0.00  0.00     0.043 A 
HETATM   11  C   UNK N   1      35.085  12.458  16.589  0.00  0.00    -0.059 A 
HETATM   12  C   UNK N   1      35.299  11.078  16.650  0.00  0.00     0.007 A 
HETATM   13  C   UNK N   1      35.166  13.279  17.825  0.00  0.00     0.048 C 
HETATM   14  C   UNK N   1      35.240  10.310  15.484  0.00  0.00     0.003 A 
HETATM   15  C   UNK N   1      34.980  10.923  14.256  0.00  0.00     0.037 A 
ENDBRANCH   8   9
ENDBRANCH   7   8
ENDBRANCH   4   7
ENDBRANCH   3   4
ENDBRANCH   1   3
BRANCH   1  16
HETATM   16  C   UNK N   1      34.732  17.192   9.618  0.00  0.00     0.118 C 
BRANCH  16  17
HETATM   17  C   UNK N   1      34.681  17.960   8.310  0.00  0.00     0.058 C 
BRANCH  17  18
HETATM   18  C   UNK N   1      33.378  17.717   7.636  0.00  0.00    -0.054 A 
HETATM   19  C   UNK N   1      32.205  17.834   8.375  0.00  0.00     0.046 A 
HETATM   20  C   UNK N   1      30.953  17.575   7.790  0.00  0.00     0.102 A 
HETATM   21  C   UNK N   1      30.895  17.197   6.420  0.00  0.00     0.101 A 
HETATM   22  C   UNK N   1      32.086  17.096   5.690  0.00  0.00     0.040 A 
HETATM   23  C   UNK N   1      33.322  17.348   6.291  0.00  0.00     0.010 A 
BRANCH  20  24
HETATM   24  O   UNK N   1      29.822  17.679   8.529  0.00  0.00    -0.353 OA
HETATM   25  C   UNK N   1      29.691  18.535   9.601  0.00  0.00     0.210 C 
ENDBRANCH  20  24
BRANCH  21  26
HETATM   26  O   UNK N   1      29.734  16.918   5.769  0.00  0.00    -0.353 OA
HETATM   27  C   UNK N   1      29.467  17.207   4.452  0.00  0.00     0.210 C 
ENDBRANCH  21  26
ENDBRANCH  17  18
ENDBRANCH  16  17
ENDBRANCH   1  16
TORSDOF 11
ENDMDL
MODEL 8
REMARK VINA RESULT:      -6.0     11.555     14.522
REMARK  11 active torsions:
REMARK  status: ('A' for Active; 'I' for Inactive)
REMARK    1  A    between atoms: O_1  and  C_11 
REMARK    2  A    between atoms: O_1  and  C_17 
REMARK    3  A    between atoms: O_2  and  C_7 
REMARK    4  A    between atoms: O_3  and  C_14 
REMARK    5  A    between atoms: O_4  and  C_16 
REMARK    6  A    between atoms: N_5  and  C_6 
REMARK    7  A    between atoms: N_5  and  C_8 
REMARK    8  A    between atoms: C_6  and  C_7 
REMARK    9  A    between atoms: C_7  and  C_11 
REMARK   10  A    between atoms: C_8  and  C_9 
REMARK   11  A    between atoms: C_9  and  C_10 
ROOT
HETATM    1  N   UNK N   1      28.137  30.245  -2.531  0.00  0.00    -0.418 N 
HETATM    2  H   UNK N   1      27.784  31.184  -2.712  0.00  0.00     0.153 HD
ENDROOT
BRANCH   1   3
HETATM    3  C   UNK N   1      29.507  29.894  -2.192  0.00  0.00     0.147 C 
BRANCH   3   4
HETATM    4  C   UNK N   1      30.464  30.746  -3.003  0.00  0.00     0.159 C 
BRANCH   4   5
HETATM    5  O   UNK N   1      31.606  31.048  -2.259  0.00  0.00    -0.392 OA
HETATM    6  H   UNK N   1      31.592  31.619  -1.476  0.00  0.00     0.210 HD
ENDBRANCH   4   5
BRANCH   4   7
HETATM    7  C   UNK N   1      30.821  30.055  -4.305  0.00  0.00     0.209 C 
BRANCH   7   8
HETATM    8  O   UNK N   1      29.695  29.822  -5.064  0.00  0.00    -0.349 OA
BRANCH   8   9
HETATM    9  C   UNK N   1      29.429  28.622  -5.624  0.00  0.00     0.069 A 
HETATM   10  C   UNK N   1      28.770  28.581  -6.856  0.00  0.00     0.043 A 
HETATM   11  C   UNK N   1      28.445  27.354  -7.441  0.00  0.00    -0.059 A 
HETATM   12  C   UNK N   1      28.789  26.159  -6.802  0.00  0.00     0.007 A 
HETATM   13  C   UNK N   1      27.717  27.322  -8.736  0.00  0.00     0.048 C 
HETATM   14  C   UNK N   1      29.459  26.190  -5.576  0.00  0.00     0.003 A 
HETATM   15  C   UNK N   1      29.773  27.416  -4.984  0.00  0.00     0.037 A 
ENDBRANCH   8   9
ENDBRANCH   7   8
ENDBRANCH   4   7
ENDBRANCH   3   4
ENDBRANCH   1   3
BRANCH   1  16
HETATM   16  C   UNK N   1      27.361  29.014  -2.564  0.00  0.00     0.118 C 
BRANCH  16  17
HETATM   17  C   UNK N   1      26.328  29.102  -3.673  0.00  0.00     0.058 C 
BRANCH  17  18
HETATM   18  C   UNK N   1      26.036  27.740  -4.196  0.00  0.00    -0.054 A 
HETATM   19  C   UNK N   1      26.433  26.634  -3.452  0.00  0.00     0.046 A 
HETATM   20  C   UNK N   1      26.214  25.328  -3.926  0.00  0.00     0.102 A 
HETATM   21  C   UNK N   1      25.568  25.147  -5.180  0.00  0.00     0.101 A 
HETATM   22  C   UNK N   1      25.165  26.274  -5.908  0.00  0.00     0.040 A 
HETATM   23  C   UNK N   1      25.399  27.564  -5.425  0.00  0.00     0.010 A 
BRANCH  20  24
HETATM   24  O   UNK N   1      26.622  24.261  -3.196  0.00  0.00    -0.353 OA
HETATM   25  C   UNK N   1      27.934  23.845  -3.127  0.00  0.00     0.210 C 
ENDBRANCH  20  24
BRANCH  21  26
HETATM   26  O   UNK N   1      25.319  23.926  -5.725  0.00  0.00    -0.353 OA
HETATM   27  C   UNK N   1      26.196  23.202  -6.498  0.00  0.00     0.210 C 
ENDBRANCH  21  26
ENDBRANCH  17  18
ENDBRANCH  16  17
ENDBRANCH   1  16
TORSDOF 11
ENDMDL
MODEL 9
REMARK VINA RESULT:      -6.0     10.544     14.486
REMARK  11 active torsions:
REMARK  status: ('A' for Active; 'I' for Inactive)
REMARK    1  A    between atoms: O_1  and  C_11 
REMARK    2  A    between atoms: O_1  and  C_17 
REMARK    3  A    between atoms: O_2  and  C_7 
REMARK    4  A    between atoms: O_3  and  C_14 
REMARK    5  A    between atoms: O_4  and  C_16 
REMARK    6  A    between atoms: N_5  and  C_6 
REMARK    7  A    between atoms: N_5  and  C_8 
REMARK    8  A    between atoms: C_6  and  C_7 
REMARK    9  A    between atoms: C_7  and  C_11 
REMARK   10  A    between atoms: C_8  and  C_9 
REMARK   11  A    between atoms: C_9  and  C_10 
ROOT
HETATM    1  N   UNK N   1      27.152  22.213  -8.027  0.00  0.00    -0.418 N 
HETATM    2  H   UNK N   1      26.507  21.861  -7.320  0.00  0.00     0.153 HD
ENDROOT
BRANCH   1   3
HETATM    3  C   UNK N   1      26.786  22.898  -9.256  0.00  0.00     0.147 C 
BRANCH   3   4
HETATM    4  C   UNK N   1      25.493  23.662  -9.045  0.00  0.00     0.159 C 
BRANCH   4   5
HETATM    5  O   UNK N   1      24.461  22.792  -8.686  0.00  0.00    -0.392 OA
HETATM    6  H   UNK N   1      24.322  22.483  -7.777  0.00  0.00     0.210 HD
ENDBRANCH   4   5
BRANCH   4   7
HETATM    7  C   UNK N   1      25.681  24.751  -8.006  0.00  0.00     0.209 C 
BRANCH   7   8
HETATM    8  O   UNK N   1      25.332  24.301  -6.752  0.00  0.00    -0.349 OA
BRANCH   8   9
HETATM    9  C   UNK N   1      25.731  24.918  -5.618  0.00  0.00     0.069 A 
HETATM   10  C   UNK N   1      25.488  26.287  -5.471  0.00  0.00     0.043 A 
HETATM   11  C   UNK N   1      25.924  26.962  -4.327  0.00  0.00    -0.059 A 
HETATM   12  C   UNK N   1      26.595  26.267  -3.317  0.00  0.00     0.007 A 
HETATM   13  C   UNK N   1      25.689  28.423  -4.195  0.00  0.00     0.048 C 
HETATM   14  C   UNK N   1      26.831  24.895  -3.449  0.00  0.00     0.003 A 
HETATM   15  C   UNK N   1      26.407  24.222  -4.598  0.00  0.00     0.037 A 
ENDBRANCH   8   9
ENDBRANCH   7   8
ENDBRANCH   4   7
ENDBRANCH   3   4
ENDBRANCH   1   3
BRANCH   1  16
HETATM   16  C   UNK N   1      28.605  22.121  -7.988  0.00  0.00     0.118 C 
BRANCH  16  17
HETATM   17  C   UNK N   1      29.007  20.758  -7.455  0.00  0.00     0.058 C 
BRANCH  17  18
HETATM   18  C   UNK N   1      29.931  20.922  -6.301  0.00  0.00    -0.054 A 
HETATM   19  C   UNK N   1      29.682  21.933  -5.378  0.00  0.00     0.046 A 
HETATM   20  C   UNK N   1      30.551  22.151  -4.295  0.00  0.00     0.102 A 
HETATM   21  C   UNK N   1      31.692  21.316  -4.144  0.00  0.00     0.101 A 
HETATM   22  C   UNK N   1      31.918  20.296  -5.077  0.00  0.00     0.040 A 
HETATM   23  C   UNK N   1      31.049  20.100  -6.153  0.00  0.00     0.010 A 
BRANCH  20  24
HETATM   24  O   UNK N   1      30.302  23.150  -3.413  0.00  0.00    -0.353 OA
HETATM   25  C   UNK N   1      29.646  22.960  -2.216  0.00  0.00     0.210 C 
ENDBRANCH  20  24
BRANCH  21  26
HETATM   26  O   UNK N   1      32.593  21.454  -3.134  0.00  0.00    -0.353 OA
HETATM   27  C   UNK N   1      33.786  20.779  -3.030  0.00  0.00     0.210 C 
ENDBRANCH  21  26
ENDBRANCH  17  18
ENDBRANCH  16  17
ENDBRANCH   1  16
TORSDOF 11
ENDMDL
