MODEL 1
REMARK VINA RESULT:      -5.2      0.000      0.000
REMARK  6 active torsions:
REMARK  status: ('A' for Active; 'I' for Inactive)
REMARK    1  A    between atoms: C_7  and  O_2 
REMARK    2  A    between atoms: C_8  and  O_3 
REMARK    3  A    between atoms: O_4  and  C_11 
REMARK    4  A    between atoms: O_5  and  C_12 
REMARK    5  A    between atoms: C_9  and  N_6 
REMARK    6  A    between atoms: C_10  and  C_12 
ROOT
HETATM    1  O   UNK N   1      21.834  19.840   3.858  0.00  0.00    -0.349 OA
HETATM    2  C   UNK N   1      19.983  18.782   1.970  0.00  0.00     0.176 C 
HETATM    3  C   UNK N   1      20.508  17.966   3.150  0.00  0.00     0.180 C 
HETATM    4  C   UNK N   1      20.946  19.921   1.636  0.00  0.00     0.161 C 
HETATM    5  C   UNK N   1      20.854  18.928   4.296  0.00  0.00     0.179 C 
HETATM    6  C   UNK N   1      21.218  20.697   2.929  0.00  0.00     0.282 C 
ENDROOT
BRANCH   4   7
HETATM    7  N   UNK N   1      20.346  20.793   0.640  0.00  0.00    -0.420 N 
HETATM    8  H   UNK N   1      20.474  21.803   0.582  0.00  0.00     0.150 HD
HETATM    9  H   UNK N   1      19.746  20.358  -0.061  0.00  0.00     0.150 HD
ENDBRANCH   4   7
BRANCH   2  10
HETATM   10  O   UNK N   1      19.803  17.957   0.856  0.00  0.00    -0.391 OA
HETATM   11  H   UNK N   1      19.019  17.410   0.692  0.00  0.00     0.210 HD
ENDBRANCH   2  10
BRANCH   6  12
HETATM   12  O   UNK N   1      22.059  21.780   2.673  0.00  0.00    -0.369 OA
HETATM   13  H   UNK N   1      22.523  22.249   3.384  0.00  0.00     0.212 HD
ENDBRANCH   6  12
BRANCH   3  14
HETATM   14  O   UNK N   1      19.529  17.056   3.558  0.00  0.00    -0.390 OA
HETATM   15  H   UNK N   1      18.575  17.228   3.590  0.00  0.00     0.210 HD
ENDBRANCH   3  14
BRANCH   5  16
HETATM   16  C   UNK N   1      21.392  18.148   5.487  0.00  0.00     0.198 C 
BRANCH  16  17
HETATM   17  O   UNK N   1      21.087  18.813   6.674  0.00  0.00    -0.398 OA
HETATM   18  H   UNK N   1      21.753  19.245   7.231  0.00  0.00     0.209 HD
ENDBRANCH  16  17
ENDBRANCH   5  16
TORSDOF 6
ENDMDL
MODEL 2
REMARK VINA RESULT:      -5.0     16.262     17.753
REMARK  6 active torsions:
REMARK  status: ('A' for Active; 'I' for Inactive)
REMARK    1  A    between atoms: C_7  and  O_2 
REMARK    2  A    between atoms: C_8  and  O_3 
REMARK    3  A    between atoms: O_4  and  C_11 
REMARK    4  A    between atoms: O_5  and  C_12 
REMARK    5  A    between atoms: C_9  and  N_6 
REMARK    6  A    between atoms: C_10  and  C_12 
ROOT
HETATM    1  O   UNK N   1      36.600  15.580  10.220  0.00  0.00    -0.349 OA
HETATM    2  C   UNK N   1      35.042  13.659  11.632  0.00  0.00     0.176 C 
HETATM    3  C   UNK N   1      34.498  15.034  11.248  0.00  0.00     0.180 C 
HETATM    4  C   UNK N   1      36.570  13.681  11.678  0.00  0.00     0.161 C 
HETATM    5  C   UNK N   1      35.215  15.506   9.974  0.00  0.00     0.179 C 
HETATM    6  C   UNK N   1      37.069  14.260  10.350  0.00  0.00     0.282 C 
ENDROOT
BRANCH   4   7
HETATM    7  N   UNK N   1      37.074  12.330  11.861  0.00  0.00    -0.420 N 
HETATM    8  H   UNK N   1      36.500  11.498  12.002  0.00  0.00     0.150 HD
HETATM    9  H   UNK N   1      38.085  12.202  11.845  0.00  0.00     0.150 HD
ENDBRANCH   4   7
BRANCH   2  10
HETATM   10  O   UNK N   1      34.526  13.265  12.870  0.00  0.00    -0.391 OA
HETATM   11  H   UNK N   1      33.636  13.477  13.192  0.00  0.00     0.210 HD
ENDBRANCH   2  10
BRANCH   6  12
HETATM   12  O   UNK N   1      38.464  14.262  10.319  0.00  0.00    -0.369 OA
HETATM   13  H   UNK N   1      38.963  13.720   9.689  0.00  0.00     0.212 HD
ENDBRANCH   6  12
BRANCH   3  14
HETATM   14  O   UNK N   1      33.122  14.944  11.027  0.00  0.00    -0.390 OA
HETATM   15  H   UNK N   1      32.491  15.678  11.082  0.00  0.00     0.210 HD
ENDBRANCH   3  14
BRANCH   5  16
HETATM   16  C   UNK N   1      34.705  16.882   9.569  0.00  0.00     0.198 C 
BRANCH  16  17
HETATM   17  O   UNK N   1      35.577  17.870  10.023  0.00  0.00    -0.398 OA
HETATM   18  H   UNK N   1      35.951  17.883  10.917  0.00  0.00     0.209 HD
ENDBRANCH  16  17
ENDBRANCH   5  16
TORSDOF 6
ENDMDL
MODEL 3
REMARK VINA RESULT:      -4.8     22.462     23.402
REMARK  6 active torsions:
REMARK  status: ('A' for Active; 'I' for Inactive)
REMARK    1  A    between atoms: C_7  and  O_2 
REMARK    2  A    between atoms: C_8  and  O_3 
REMARK    3  A    between atoms: O_4  and  C_11 
REMARK    4  A    between atoms: O_5  and  C_12 
REMARK    5  A    between atoms: C_9  and  N_6 
REMARK    6  A    between atoms: C_10  and  C_12 
ROOT
HETATM    1  O   UNK N   1      43.278  20.366   2.461  0.00  0.00    -0.349 OA
HETATM    2  C   UNK N   1      43.755  23.033   3.341  0.00  0.00     0.176 C 
HETATM    3  C   UNK N   1      44.526  21.836   3.896  0.00  0.00     0.180 C 
HETATM    4  C   UNK N   1      42.420  22.583   2.749  0.00  0.00     0.161 C 
HETATM    5  C   UNK N   1      44.588  20.748   2.813  0.00  0.00     0.179 C 
HETATM    6  C   UNK N   1      42.705  21.445   1.764  0.00  0.00     0.282 C 
ENDROOT
BRANCH   4   7
HETATM    7  N   UNK N   1      41.788  23.698   2.064  0.00  0.00    -0.420 N 
HETATM    8  H   UNK N   1      41.707  24.648   2.427  0.00  0.00     0.150 HD
HETATM    9  H   UNK N   1      41.392  23.517   1.142  0.00  0.00     0.150 HD
ENDBRANCH   4   7
BRANCH   2  10
HETATM   10  O   UNK N   1      43.545  23.979   4.347  0.00  0.00    -0.391 OA
HETATM   11  H   UNK N   1      43.135  24.848   4.215  0.00  0.00     0.210 HD
ENDBRANCH   2  10
BRANCH   6  12
HETATM   12  O   UNK N   1      41.521  21.024   1.158  0.00  0.00    -0.369 OA
HETATM   13  H   UNK N   1      40.652  21.209   1.547  0.00  0.00     0.212 HD
ENDBRANCH   6  12
BRANCH   3  14
HETATM   14  O   UNK N   1      45.814  22.239   4.255  0.00  0.00    -0.390 OA
HETATM   15  H   UNK N   1      46.344  21.862   4.975  0.00  0.00     0.210 HD
ENDBRANCH   3  14
BRANCH   5  16
HETATM   16  C   UNK N   1      45.340  19.534   3.337  0.00  0.00     0.198 C 
BRANCH  16  17
HETATM   17  O   UNK N   1      46.706  19.807   3.404  0.00  0.00    -0.398 OA
HETATM   18  H   UNK N   1      47.253  19.986   2.624  0.00  0.00     0.209 HD
ENDBRANCH  16  17
ENDBRANCH   5  16
TORSDOF 6
ENDMDL
MODEL 4
REMARK VINA RESULT:      -4.8     21.655     22.516
REMARK  6 active torsions:
REMARK  status: ('A' for Active; 'I' for Inactive)
REMARK    1  A    between atoms: C_7  and  O_2 
REMARK    2  A    between atoms: C_8  and  O_3 
REMARK    3  A    between atoms: O_4  and  C_11 
REMARK    4  A    between atoms: O_5  and  C_12 
REMARK    5  A    between atoms: C_9  and  N_6 
REMARK    6  A    between atoms: C_10  and  C_12 
ROOT
HETATM    1  O   UNK N   1      43.826  20.968   3.498  0.00  0.00    -0.349 OA
HETATM    2  C   UNK N   1      42.712  23.361   2.425  0.00  0.00     0.176 C 
HETATM    3  C   UNK N   1      42.033  22.000   2.275  0.00  0.00     0.180 C 
HETATM    4  C   UNK N   1      44.209  23.186   2.682  0.00  0.00     0.161 C 
HETATM    5  C   UNK N   1      42.425  21.121   3.473  0.00  0.00     0.179 C 
HETATM    6  C   UNK N   1      44.372  22.214   3.855  0.00  0.00     0.282 C 
ENDROOT
BRANCH   4   7
HETATM    7  N   UNK N   1      44.803  24.473   3.005  0.00  0.00    -0.420 N 
HETATM    8  H   UNK N   1      44.552  25.057   3.803  0.00  0.00     0.150 HD
HETATM    9  H   UNK N   1      45.532  24.821   2.383  0.00  0.00     0.150 HD
ENDBRANCH   4   7
BRANCH   2  10
HETATM   10  O   UNK N   1      42.503  24.132   1.279  0.00  0.00    -0.391 OA
HETATM   11  H   UNK N   1      42.245  25.067   1.280  0.00  0.00     0.210 HD
ENDBRANCH   2  10
BRANCH   6  12
HETATM   12  O   UNK N   1      45.724  22.053   4.162  0.00  0.00    -0.369 OA
HETATM   13  H   UNK N   1      46.425  22.376   3.575  0.00  0.00     0.212 HD
ENDBRANCH   6  12
BRANCH   3  14
HETATM   14  O   UNK N   1      40.648  22.175   2.233  0.00  0.00    -0.390 OA
HETATM   15  H   UNK N   1      40.084  22.045   1.454  0.00  0.00     0.210 HD
ENDBRANCH   3  14
BRANCH   5  16
HETATM   16  C   UNK N   1      41.774  19.752   3.349  0.00  0.00     0.198 C 
BRANCH  16  17
HETATM   17  O   UNK N   1      40.582  19.720   4.072  0.00  0.00    -0.398 OA
HETATM   18  H   UNK N   1      40.264  20.461   4.610  0.00  0.00     0.209 HD
ENDBRANCH  16  17
ENDBRANCH   5  16
TORSDOF 6
ENDMDL
MODEL 5
REMARK VINA RESULT:      -4.8      2.356      3.840
REMARK  6 active torsions:
REMARK  status: ('A' for Active; 'I' for Inactive)
REMARK    1  A    between atoms: C_7  and  O_2 
REMARK    2  A    between atoms: C_8  and  O_3 
REMARK    3  A    between atoms: O_4  and  C_11 
REMARK    4  A    between atoms: O_5  and  C_12 
REMARK    5  A    between atoms: C_9  and  N_6 
REMARK    6  A    between atoms: C_10  and  C_12 
ROOT
HETATM    1  O   UNK N   1      21.774  19.507   3.428  0.00  0.00    -0.349 OA
HETATM    2  C   UNK N   1      20.020  17.269   3.603  0.00  0.00     0.176 C 
HETATM    3  C   UNK N   1      19.678  18.518   2.793  0.00  0.00     0.180 C 
HETATM    4  C   UNK N   1      21.056  17.596   4.679  0.00  0.00     0.161 C 
HETATM    5  C   UNK N   1      20.986  19.165   2.311  0.00  0.00     0.179 C 
HETATM    6  C   UNK N   1      22.231  18.304   3.997  0.00  0.00     0.282 C 
ENDROOT
BRANCH   4   7
HETATM    7  N   UNK N   1      21.506  16.368   5.313  0.00  0.00    -0.420 N 
HETATM    8  H   UNK N   1      21.800  16.277   6.286  0.00  0.00     0.150 HD
HETATM    9  H   UNK N   1      21.528  15.525   4.739  0.00  0.00     0.150 HD
ENDBRANCH   4   7
BRANCH   2  10
HETATM   10  O   UNK N   1      18.865  16.742   4.186  0.00  0.00    -0.391 OA
HETATM   11  H   UNK N   1      18.313  17.203   4.837  0.00  0.00     0.210 HD
ENDBRANCH   2  10
BRANCH   6  12
HETATM   12  O   UNK N   1      23.230  18.587   4.929  0.00  0.00    -0.369 OA
HETATM   13  H   UNK N   1      23.025  18.946   5.807  0.00  0.00     0.212 HD
ENDBRANCH   6  12
BRANCH   3  14
HETATM   14  O   UNK N   1      18.882  18.161   1.702  0.00  0.00    -0.390 OA
HETATM   15  H   UNK N   1      17.921  18.279   1.640  0.00  0.00     0.210 HD
ENDBRANCH   3  14
BRANCH   5  16
HETATM   16  C   UNK N   1      20.681  20.422   1.509  0.00  0.00     0.198 C 
BRANCH  16  17
HETATM   17  O   UNK N   1      20.642  20.124   0.147  0.00  0.00    -0.398 OA
HETATM   18  H   UNK N   1      20.883  19.258  -0.217  0.00  0.00     0.209 HD
ENDBRANCH  16  17
ENDBRANCH   5  16
TORSDOF 6
ENDMDL
MODEL 6
REMARK VINA RESULT:      -4.7     12.871     14.026
REMARK  6 active torsions:
REMARK  status: ('A' for Active; 'I' for Inactive)
REMARK    1  A    between atoms: C_7  and  O_2 
REMARK    2  A    between atoms: C_8  and  O_3 
REMARK    3  A    between atoms: O_4  and  C_11 
REMARK    4  A    between atoms: O_5  and  C_12 
REMARK    5  A    between atoms: C_9  and  N_6 
REMARK    6  A    between atoms: C_10  and  C_12 
ROOT
HETATM    1  O   UNK N   1      33.858  18.254   6.963  0.00  0.00    -0.349 OA
HETATM    2  C   UNK N   1      33.327  16.010   8.634  0.00  0.00     0.176 C 
HETATM    3  C   UNK N   1      32.599  16.237   7.310  0.00  0.00     0.180 C 
HETATM    4  C   UNK N   1      33.888  17.327   9.170  0.00  0.00     0.161 C 
HETATM    5  C   UNK N   1      33.527  17.021   6.369  0.00  0.00     0.179 C 
HETATM    6  C   UNK N   1      34.707  17.976   8.050  0.00  0.00     0.282 C 
ENDROOT
BRANCH   4   7
HETATM    7  N   UNK N   1      34.730  17.065  10.325  0.00  0.00    -0.420 N 
HETATM    8  H   UNK N   1      35.527  17.631  10.618  0.00  0.00     0.150 HD
HETATM    9  H   UNK N   1      34.505  16.248  10.892  0.00  0.00     0.150 HD
ENDBRANCH   4   7
BRANCH   2  10
HETATM   10  O   UNK N   1      32.459  15.437   9.568  0.00  0.00    -0.391 OA
HETATM   11  H   UNK N   1      32.655  14.646  10.094  0.00  0.00     0.210 HD
ENDBRANCH   2  10
BRANCH   6  12
HETATM   12  O   UNK N   1      35.282  19.165   8.500  0.00  0.00    -0.369 OA
HETATM   13  H   UNK N   1      35.417  19.344   9.444  0.00  0.00     0.212 HD
ENDBRANCH   6  12
BRANCH   3  14
HETATM   14  O   UNK N   1      32.263  15.005   6.746  0.00  0.00    -0.390 OA
HETATM   15  H   UNK N   1      32.872  14.264   6.601  0.00  0.00     0.210 HD
ENDBRANCH   3  14
BRANCH   5  16
HETATM   16  C   UNK N   1      32.828  17.276   5.041  0.00  0.00     0.198 C 
BRANCH  16  17
HETATM   17  O   UNK N   1      31.452  17.392   5.238  0.00  0.00    -0.398 OA
HETATM   18  H   UNK N   1      30.822  16.683   5.037  0.00  0.00     0.209 HD
ENDBRANCH  16  17
ENDBRANCH   5  16
TORSDOF 6
ENDMDL
MODEL 7
REMARK VINA RESULT:      -4.7     13.605     15.130
REMARK  6 active torsions:
REMARK  status: ('A' for Active; 'I' for Inactive)
REMARK    1  A    between atoms: C_7  and  O_2 
REMARK    2  A    between atoms: C_8  and  O_3 
REMARK    3  A    between atoms: O_4  and  C_11 
REMARK    4  A    between atoms: O_5  and  C_12 
REMARK    5  A    between atoms: C_9  and  N_6 
REMARK    6  A    between atoms: C_10  and  C_12 
ROOT
HETATM    1  O   UNK N   1      32.858  15.587   7.853  0.00  0.00    -0.349 OA
HETATM    2  C   UNK N   1      34.527  16.704   9.874  0.00  0.00     0.176 C 
HETATM    3  C   UNK N   1      34.466  17.269   8.455  0.00  0.00     0.180 C 
HETATM    4  C   UNK N   1      34.071  15.245   9.889  0.00  0.00     0.161 C 
HETATM    5  C   UNK N   1      33.075  16.979   7.871  0.00  0.00     0.179 C 
HETATM    6  C   UNK N   1      32.710  15.173   9.189  0.00  0.00     0.282 C 
ENDROOT
BRANCH   4   7
HETATM    7  N   UNK N   1      33.959  14.783  11.262  0.00  0.00    -0.420 N 
HETATM    8  H   UNK N   1      34.578  14.109  11.714  0.00  0.00     0.150 HD
HETATM    9  H   UNK N   1      33.198  15.164  11.823  0.00  0.00     0.150 HD
ENDBRANCH   4   7
BRANCH   2  10
HETATM   10  O   UNK N   1      35.825  16.812  10.379  0.00  0.00    -0.391 OA
HETATM   11  H   UNK N   1      36.402  16.061  10.591  0.00  0.00     0.210 HD
ENDBRANCH   2  10
BRANCH   6  12
HETATM   12  O   UNK N   1      32.224  13.865   9.215  0.00  0.00    -0.369 OA
HETATM   13  H   UNK N   1      31.769  13.473   8.453  0.00  0.00     0.212 HD
ENDBRANCH   6  12
BRANCH   3  14
HETATM   14  O   UNK N   1      34.701  18.645   8.492  0.00  0.00    -0.390 OA
HETATM   15  H   UNK N   1      34.577  19.260   7.753  0.00  0.00     0.210 HD
ENDBRANCH   3  14
BRANCH   5  16
HETATM   16  C   UNK N   1      32.983  17.519   6.451  0.00  0.00     0.198 C 
BRANCH  16  17
HETATM   17  O   UNK N   1      34.260  17.690   5.919  0.00  0.00    -0.398 OA
HETATM   18  H   UNK N   1      34.821  16.954   5.629  0.00  0.00     0.209 HD
ENDBRANCH  16  17
ENDBRANCH   5  16
TORSDOF 6
ENDMDL
MODEL 8
REMARK VINA RESULT:      -4.5      9.042     10.526
REMARK  6 active torsions:
REMARK  status: ('A' for Active; 'I' for Inactive)
REMARK    1  A    between atoms: C_7  and  O_2 
REMARK    2  A    between atoms: C_8  and  O_3 
REMARK    3  A    between atoms: O_4  and  C_11 
REMARK    4  A    between atoms: O_5  and  C_12 
REMARK    5  A    between atoms: C_9  and  N_6 
REMARK    6  A    between atoms: C_10  and  C_12 
ROOT
HETATM    1  O   UNK N   1      30.696  17.454   7.084  0.00  0.00    -0.349 OA
HETATM    2  C   UNK N   1      28.296  17.519   8.617  0.00  0.00     0.176 C 
HETATM    3  C   UNK N   1      28.329  17.865   7.129  0.00  0.00     0.180 C 
HETATM    4  C   UNK N   1      29.682  17.698   9.239  0.00  0.00     0.161 C 
HETATM    5  C   UNK N   1      29.481  17.090   6.471  0.00  0.00     0.179 C 
HETATM    6  C   UNK N   1      30.683  16.915   8.383  0.00  0.00     0.282 C 
ENDROOT
BRANCH   4   7
HETATM    7  N   UNK N   1      29.675  17.191  10.601  0.00  0.00    -0.420 N 
HETATM    8  H   UNK N   1      30.411  17.338  11.292  0.00  0.00     0.150 HD
HETATM    9  H   UNK N   1      28.866  16.642  10.892  0.00  0.00     0.150 HD
ENDBRANCH   4   7
BRANCH   2  10
HETATM   10  O   UNK N   1      27.362  18.321   9.277  0.00  0.00    -0.391 OA
HETATM   11  H   UNK N   1      27.132  18.246  10.217  0.00  0.00     0.210 HD
ENDBRANCH   2  10
BRANCH   6  12
HETATM   12  O   UNK N   1      31.962  17.007   8.933  0.00  0.00    -0.369 OA
HETATM   13  H   UNK N   1      32.705  17.387   8.440  0.00  0.00     0.212 HD
ENDBRANCH   6  12
BRANCH   3  14
HETATM   14  O   UNK N   1      27.110  17.514   6.544  0.00  0.00    -0.390 OA
HETATM   15  H   UNK N   1      26.351  18.105   6.419  0.00  0.00     0.210 HD
ENDBRANCH   3  14
BRANCH   5  16
HETATM   16  C   UNK N   1      29.550  17.421   4.987  0.00  0.00     0.198 C 
BRANCH  16  17
HETATM   17  O   UNK N   1      29.009  18.684   4.751  0.00  0.00    -0.398 OA
HETATM   18  H   UNK N   1      28.157  18.976   5.112  0.00  0.00     0.209 HD
ENDBRANCH  16  17
ENDBRANCH   5  16
TORSDOF 6
ENDMDL
MODEL 9
REMARK VINA RESULT:      -4.5      9.011     10.454
REMARK  6 active torsions:
REMARK  status: ('A' for Active; 'I' for Inactive)
REMARK    1  A    between atoms: C_7  and  O_2 
REMARK    2  A    between atoms: C_8  and  O_3 
REMARK    3  A    between atoms: O_4  and  C_11 
REMARK    4  A    between atoms: O_5  and  C_12 
REMARK    5  A    between atoms: C_9  and  N_6 
REMARK    6  A    between atoms: C_10  and  C_12 
ROOT
HETATM    1  O   UNK N   1      30.308  16.702   6.918  0.00  0.00    -0.349 OA
HETATM    2  C   UNK N   1      28.439  18.253   8.407  0.00  0.00     0.176 C 
HETATM    3  C   UNK N   1      29.670  17.615   9.048  0.00  0.00     0.180 C 
HETATM    4  C   UNK N   1      28.067  17.522   7.117  0.00  0.00     0.161 C 
HETATM    5  C   UNK N   1      30.772  17.498   7.984  0.00  0.00     0.179 C 
HETATM    6  C   UNK N   1      29.324  17.446   6.243  0.00  0.00     0.282 C 
ENDROOT
BRANCH   4   7
HETATM    7  N   UNK N   1      27.015  18.251   6.427  0.00  0.00    -0.420 N 
HETATM    8  H   UNK N   1      26.655  18.034   5.498  0.00  0.00     0.150 HD
HETATM    9  H   UNK N   1      26.601  19.046   6.914  0.00  0.00     0.150 HD
ENDBRANCH   4   7
BRANCH   2  10
HETATM   10  O   UNK N   1      27.366  18.234   9.301  0.00  0.00    -0.391 OA
HETATM   11  H   UNK N   1      27.048  19.002   9.802  0.00  0.00     0.210 HD
ENDBRANCH   2  10
BRANCH   6  12
HETATM   12  O   UNK N   1      29.029  16.826   5.029  0.00  0.00    -0.369 OA
HETATM   13  H   UNK N   1      28.988  15.861   4.943  0.00  0.00     0.212 HD
ENDBRANCH   6  12
BRANCH   3  14
HETATM   14  O   UNK N   1      30.104  18.408  10.112  0.00  0.00    -0.390 OA
HETATM   15  H   UNK N   1      30.186  19.374  10.101  0.00  0.00     0.210 HD
ENDBRANCH   3  14
BRANCH   5  16
HETATM   16  C   UNK N   1      32.012  16.854   8.587  0.00  0.00     0.198 C 
BRANCH  16  17
HETATM   17  O   UNK N   1      31.645  15.922   9.557  0.00  0.00    -0.398 OA
HETATM   18  H   UNK N   1      32.141  15.107   9.730  0.00  0.00     0.209 HD
ENDBRANCH  16  17
ENDBRANCH   5  16
TORSDOF 6
ENDMDL
