MODEL 1
REMARK VINA RESULT:      -6.7      0.000      0.000
REMARK  5 active torsions:
REMARK  status: ('A' for Active; 'I' for Inactive)
REMARK    1  A    between atoms: S_1  and  N_6 
REMARK    2  A    between atoms: S_1  and  C_10 
REMARK    3  A    between atoms: N_5  and  C_12 
REMARK    4  A    between atoms: N_6  and  C_11 
REMARK    5  A    between atoms: N_9  and  C_20 
ROOT
HETATM    1  S   UNK N   1      35.851  12.605  14.409  0.00  0.00     0.264 S 
HETATM    2  O   UNK N   1      36.278  11.191  13.994  0.00  0.00    -0.200 OA
HETATM    3  O   UNK N   1      34.470  12.676  13.740  0.00  0.00    -0.200 OA
ENDROOT
BRANCH   1   4
HETATM    4  N   UNK N   1      36.858  13.650  13.414  0.00  0.00    -0.266 N 
HETATM    5  H   UNK N   1      37.757  13.885  13.737  0.00  0.00     0.180 HD
BRANCH   4   6
HETATM    6  C   UNK N   1      36.426  14.164  12.169  0.00  0.00     0.119 A 
HETATM    7  N   UNK N   1      36.068  15.470  12.077  0.00  0.00    -0.294 N 
HETATM    8  C   UNK N   1      35.605  15.999  10.900  0.00  0.00     0.327 A 
ATOM      9  HN  UNK N   1      36.144  16.069  12.899  1.00  0.00     0.172 HD
HETATM   10  O   UNK N   1      35.265  17.169  10.861  0.00  0.00    -0.246 OA
HETATM   11  N   UNK N   1      35.526  15.207   9.771  0.00  0.00    -0.310 N 
HETATM   12  C   UNK N   1      35.889  13.894   9.846  0.00  0.00     0.099 A 
HETATM   13  C   UNK N   1      36.331  13.345  11.047  0.00  0.00     0.066 A 
BRANCH  11  14
HETATM   14  C   UNK N   1      35.053  15.796   8.509  0.00  0.00     0.128 C 
HETATM   15  C   UNK N   1      33.598  15.470   8.182  0.00  0.00     0.027 C 
ENDBRANCH  11  14
ENDBRANCH   4   6
ENDBRANCH   1   4
BRANCH   1  16
HETATM   16  C   UNK N   1      35.719  12.702  16.194  0.00  0.00     0.080 A 
HETATM   17  C   UNK N   1      35.598  11.541  16.966  0.00  0.00     0.027 A 
HETATM   18  C   UNK N   1      35.361  11.635  18.341  0.00  0.00     0.030 A 
HETATM   19  C   UNK N   1      35.230  12.890  18.945  0.00  0.00     0.025 A 
HETATM   20  C   UNK N   1      35.353  14.050  18.177  0.00  0.00     0.030 A 
HETATM   21  C   UNK N   1      35.591  13.956  16.803  0.00  0.00     0.027 A 
BRANCH  19  22
HETATM   22  N   UNK N   1      34.957  12.984  20.324  0.00  0.00    -0.399 N 
HETATM   23  H   UNK N   1      34.670  13.843  20.712  0.00  0.00     0.156 HD
HETATM   24  H   UNK N   1      35.054  12.192  20.900  0.00  0.00     0.156 HD
ENDBRANCH  19  22
ENDBRANCH   1  16
TORSDOF 5
ENDMDL
MODEL 2
REMARK VINA RESULT:      -6.7     10.641     14.136
REMARK  5 active torsions:
REMARK  status: ('A' for Active; 'I' for Inactive)
REMARK    1  A    between atoms: S_1  and  N_6 
REMARK    2  A    between atoms: S_1  and  C_10 
REMARK    3  A    between atoms: N_5  and  C_12 
REMARK    4  A    between atoms: N_6  and  C_11 
REMARK    5  A    between atoms: N_9  and  C_20 
ROOT
HETATM    1  S   UNK N   1      27.193  18.867   5.670  0.00  0.00     0.264 S 
HETATM    2  O   UNK N   1      26.741  20.274   6.082  0.00  0.00    -0.200 OA
HETATM    3  O   UNK N   1      27.719  19.157   4.255  0.00  0.00    -0.200 OA
ENDROOT
BRANCH   1   4
HETATM    4  N   UNK N   1      25.682  18.011   5.394  0.00  0.00    -0.266 N 
HETATM    5  H   UNK N   1      25.585  17.097   5.747  0.00  0.00     0.180 HD
BRANCH   4   6
HETATM    6  C   UNK N   1      24.599  18.584   4.685  0.00  0.00     0.119 A 
HETATM    7  N   UNK N   1      24.841  19.578   3.793  0.00  0.00    -0.294 N 
HETATM    8  C   UNK N   1      23.817  20.188   3.115  0.00  0.00     0.327 A 
ATOM      9  HN  UNK N   1      25.801  19.876   3.623  1.00  0.00     0.172 HD
HETATM   10  O   UNK N   1      24.067  21.097   2.343  0.00  0.00    -0.246 OA
HETATM   11  N   UNK N   1      22.515  19.772   3.312  0.00  0.00    -0.310 N 
HETATM   12  C   UNK N   1      22.257  18.769   4.200  0.00  0.00     0.099 A 
HETATM   13  C   UNK N   1      23.290  18.168   4.913  0.00  0.00     0.066 A 
BRANCH  11  14
HETATM   14  C   UNK N   1      21.430  20.419   2.557  0.00  0.00     0.128 C 
HETATM   15  C   UNK N   1      20.094  19.687   2.645  0.00  0.00     0.027 C 
ENDBRANCH  11  14
ENDBRANCH   4   6
ENDBRANCH   1   4
BRANCH   1  16
HETATM   16  C   UNK N   1      28.508  18.308   6.754  0.00  0.00     0.080 A 
HETATM   17  C   UNK N   1      28.624  18.811   8.054  0.00  0.00     0.027 A 
HETATM   18  C   UNK N   1      29.729  18.470   8.841  0.00  0.00     0.030 A 
HETATM   19  C   UNK N   1      30.726  17.636   8.325  0.00  0.00     0.025 A 
HETATM   20  C   UNK N   1      30.611  17.130   7.028  0.00  0.00     0.030 A 
HETATM   21  C   UNK N   1      29.506  17.470   6.242  0.00  0.00     0.027 A 
BRANCH  19  22
HETATM   22  N   UNK N   1      31.855  17.320   9.106  0.00  0.00    -0.399 N 
HETATM   23  H   UNK N   1      32.338  16.475   8.954  0.00  0.00     0.156 HD
HETATM   24  H   UNK N   1      32.162  17.943   9.803  0.00  0.00     0.156 HD
ENDBRANCH  19  22
ENDBRANCH   1  16
TORSDOF 5
ENDMDL
MODEL 3
REMARK VINA RESULT:      -6.6      4.635      8.812
REMARK  5 active torsions:
REMARK  status: ('A' for Active; 'I' for Inactive)
REMARK    1  A    between atoms: S_1  and  N_6 
REMARK    2  A    between atoms: S_1  and  C_10 
REMARK    3  A    between atoms: N_5  and  C_12 
REMARK    4  A    between atoms: N_6  and  C_11 
REMARK    5  A    between atoms: N_9  and  C_20 
ROOT
HETATM    1  S   UNK N   1      32.909  16.735   6.415  0.00  0.00     0.264 S 
HETATM    2  O   UNK N   1      32.668  16.452   4.926  0.00  0.00    -0.200 OA
HETATM    3  O   UNK N   1      33.997  17.815   6.310  0.00  0.00    -0.200 OA
ENDROOT
BRANCH   1   4
HETATM    4  N   UNK N   1      33.776  15.310   6.972  0.00  0.00    -0.266 N 
HETATM    5  H   UNK N   1      33.900  14.559   6.349  0.00  0.00     0.180 HD
BRANCH   4   6
HETATM    6  C   UNK N   1      34.303  15.202   8.281  0.00  0.00     0.119 A 
HETATM    7  N   UNK N   1      34.721  16.322   8.924  0.00  0.00    -0.294 N 
HETATM    8  C   UNK N   1      35.275  16.257  10.177  0.00  0.00     0.327 A 
ATOM      9  HN  UNK N   1      34.622  17.228   8.468  1.00  0.00     0.172 HD
HETATM   10  O   UNK N   1      35.666  17.279  10.713  0.00  0.00    -0.246 OA
HETATM   11  N   UNK N   1      35.386  15.040  10.820  0.00  0.00    -0.310 N 
HETATM   12  C   UNK N   1      34.964  13.906  10.189  0.00  0.00     0.099 A 
HETATM   13  C   UNK N   1      34.429  13.964   8.905  0.00  0.00     0.066 A 
BRANCH  11  14
HETATM   14  C   UNK N   1      35.958  14.990  12.174  0.00  0.00     0.128 C 
HETATM   15  C   UNK N   1      35.534  13.765  12.980  0.00  0.00     0.027 C 
ENDBRANCH  11  14
ENDBRANCH   4   6
ENDBRANCH   1   4
BRANCH   1  16
HETATM   16  C   UNK N   1      31.413  17.385   7.161  0.00  0.00     0.080 A 
HETATM   17  C   UNK N   1      31.435  17.924   8.453  0.00  0.00     0.027 A 
HETATM   18  C   UNK N   1      30.241  18.303   9.074  0.00  0.00     0.030 A 
HETATM   19  C   UNK N   1      29.022  18.132   8.411  0.00  0.00     0.025 A 
HETATM   20  C   UNK N   1      28.998  17.597   7.121  0.00  0.00     0.030 A 
HETATM   21  C   UNK N   1      30.191  17.219   6.500  0.00  0.00     0.027 A 
BRANCH  19  22
HETATM   22  N   UNK N   1      27.816  18.482   9.049  0.00  0.00    -0.399 N 
HETATM   23  H   UNK N   1      27.039  18.767   8.515  0.00  0.00     0.156 HD
HETATM   24  H   UNK N   1      27.749  18.443  10.031  0.00  0.00     0.156 HD
ENDBRANCH  19  22
ENDBRANCH   1  16
TORSDOF 5
ENDMDL
MODEL 4
REMARK VINA RESULT:      -6.5     13.717     15.254
REMARK  5 active torsions:
REMARK  status: ('A' for Active; 'I' for Inactive)
REMARK    1  A    between atoms: S_1  and  N_6 
REMARK    2  A    between atoms: S_1  and  C_10 
REMARK    3  A    between atoms: N_5  and  C_12 
REMARK    4  A    between atoms: N_6  and  C_11 
REMARK    5  A    between atoms: N_9  and  C_20 
ROOT
HETATM    1  S   UNK N   1      21.316  13.332   7.661  0.00  0.00     0.264 S 
HETATM    2  O   UNK N   1      20.669  12.185   6.873  0.00  0.00    -0.200 OA
HETATM    3  O   UNK N   1      20.113  14.279   7.792  0.00  0.00    -0.200 OA
ENDROOT
BRANCH   1   4
HETATM    4  N   UNK N   1      22.349  14.118   6.475  0.00  0.00    -0.266 N 
HETATM    5  H   UNK N   1      23.183  13.671   6.205  0.00  0.00     0.180 HD
BRANCH   4   6
HETATM    6  C   UNK N   1      22.028  15.368   5.894  0.00  0.00     0.119 A 
HETATM    7  N   UNK N   1      21.828  16.443   6.698  0.00  0.00    -0.294 N 
HETATM    8  C   UNK N   1      21.475  17.663   6.179  0.00  0.00     0.327 A 
ATOM      9  HN  UNK N   1      21.941  16.343   7.706  1.00  0.00     0.172 HD
HETATM   10  O   UNK N   1      21.275  18.599   6.932  0.00  0.00    -0.246 OA
HETATM   11  N   UNK N   1      21.350  17.821   4.813  0.00  0.00    -0.310 N 
HETATM   12  C   UNK N   1      21.555  16.751   3.991  0.00  0.00     0.099 A 
HETATM   13  C   UNK N   1      21.883  15.504   4.516  0.00  0.00     0.066 A 
BRANCH  11  14
HETATM   14  C   UNK N   1      20.997  19.142   4.270  0.00  0.00     0.128 C 
HETATM   15  C   UNK N   1      21.992  19.674   3.243  0.00  0.00     0.027 C 
ENDBRANCH  11  14
ENDBRANCH   4   6
ENDBRANCH   1   4
BRANCH   1  16
HETATM   16  C   UNK N   1      21.859  12.739   9.265  0.00  0.00     0.080 A 
HETATM   17  C   UNK N   1      20.955  12.625  10.327  0.00  0.00     0.027 A 
HETATM   18  C   UNK N   1      21.415  12.292  11.605  0.00  0.00     0.030 A 
HETATM   19  C   UNK N   1      22.781  12.085  11.826  0.00  0.00     0.025 A 
HETATM   20  C   UNK N   1      23.684  12.196  10.766  0.00  0.00     0.030 A 
HETATM   21  C   UNK N   1      23.224  12.528   9.489  0.00  0.00     0.027 A 
BRANCH  19  22
HETATM   22  N   UNK N   1      23.248  11.782  13.120  0.00  0.00    -0.399 N 
HETATM   23  H   UNK N   1      23.977  12.312  13.517  0.00  0.00     0.156 HD
HETATM   24  H   UNK N   1      22.847  11.040  13.627  0.00  0.00     0.156 HD
ENDBRANCH  19  22
ENDBRANCH   1  16
TORSDOF 5
ENDMDL
MODEL 5
REMARK VINA RESULT:      -6.5      1.836      2.497
REMARK  5 active torsions:
REMARK  status: ('A' for Active; 'I' for Inactive)
REMARK    1  A    between atoms: S_1  and  N_6 
REMARK    2  A    between atoms: S_1  and  C_10 
REMARK    3  A    between atoms: N_5  and  C_12 
REMARK    4  A    between atoms: N_6  and  C_11 
REMARK    5  A    between atoms: N_9  and  C_20 
ROOT
HETATM    1  S   UNK N   1      35.736  12.896  12.546  0.00  0.00     0.264 S 
HETATM    2  O   UNK N   1      36.975  13.537  11.905  0.00  0.00    -0.200 OA
HETATM    3  O   UNK N   1      36.091  11.410  12.388  0.00  0.00    -0.200 OA
ENDROOT
BRANCH   1   4
HETATM    4  N   UNK N   1      34.470  13.160  11.354  0.00  0.00    -0.266 N 
HETATM    5  H   UNK N   1      33.747  12.497  11.278  0.00  0.00     0.180 HD
BRANCH   4   6
HETATM    6  C   UNK N   1      34.451  14.288  10.499  0.00  0.00     0.119 A 
HETATM    7  N   UNK N   1      35.085  15.425  10.884  0.00  0.00    -0.294 N 
HETATM    8  C   UNK N   1      35.057  16.553  10.105  0.00  0.00     0.327 A 
ATOM      9  HN  UNK N   1      35.592  15.440  11.769  1.00  0.00     0.172 HD
HETATM   10  O   UNK N   1      35.613  17.565  10.495  0.00  0.00    -0.246 OA
HETATM   11  N   UNK N   1      34.401  16.535   8.889  0.00  0.00    -0.310 N 
HETATM   12  C   UNK N   1      33.766  15.398   8.486  0.00  0.00     0.099 A 
HETATM   13  C   UNK N   1      33.766  14.260   9.287  0.00  0.00     0.066 A 
BRANCH  11  14
HETATM   14  C   UNK N   1      34.403  17.745   8.053  0.00  0.00     0.128 C 
HETATM   15  C   UNK N   1      33.503  17.649   6.824  0.00  0.00     0.027 C 
ENDBRANCH  11  14
ENDBRANCH   4   6
ENDBRANCH   1   4
BRANCH   1  16
HETATM   16  C   UNK N   1      35.634  13.364  14.274  0.00  0.00     0.080 A 
HETATM   17  C   UNK N   1      36.624  14.162  14.858  0.00  0.00     0.027 A 
HETATM   18  C   UNK N   1      36.605  14.408  16.234  0.00  0.00     0.030 A 
HETATM   19  C   UNK N   1      35.604  13.845  17.032  0.00  0.00     0.025 A 
HETATM   20  C   UNK N   1      34.613  13.049  16.451  0.00  0.00     0.030 A 
HETATM   21  C   UNK N   1      34.632  12.805  15.075  0.00  0.00     0.027 A 
BRANCH  19  22
HETATM   22  N   UNK N   1      35.603  14.064  18.423  0.00  0.00    -0.399 N 
HETATM   23  H   UNK N   1      36.426  14.357  18.877  0.00  0.00     0.156 HD
HETATM   24  H   UNK N   1      34.778  13.924  18.943  0.00  0.00     0.156 HD
ENDBRANCH  19  22
ENDBRANCH   1  16
TORSDOF 5
ENDMDL
MODEL 6
REMARK VINA RESULT:      -6.4      4.561      9.610
REMARK  5 active torsions:
REMARK  status: ('A' for Active; 'I' for Inactive)
REMARK    1  A    between atoms: S_1  and  N_6 
REMARK    2  A    between atoms: S_1  and  C_10 
REMARK    3  A    between atoms: N_5  and  C_12 
REMARK    4  A    between atoms: N_6  and  C_11 
REMARK    5  A    between atoms: N_9  and  C_20 
ROOT
HETATM    1  S   UNK N   1      34.016  17.325   7.627  0.00  0.00     0.264 S 
HETATM    2  O   UNK N   1      35.108  16.320   7.233  0.00  0.00    -0.200 OA
HETATM    3  O   UNK N   1      34.841  18.621   7.651  0.00  0.00    -0.200 OA
ENDROOT
BRANCH   1   4
HETATM    4  N   UNK N   1      33.726  16.975   9.326  0.00  0.00    -0.266 N 
HETATM    5  H   UNK N   1      33.047  17.500   9.807  0.00  0.00     0.180 HD
BRANCH   4   6
HETATM    6  C   UNK N   1      34.430  15.968  10.028  0.00  0.00     0.119 A 
HETATM    7  N   UNK N   1      34.209  14.665   9.722  0.00  0.00    -0.294 N 
HETATM    8  C   UNK N   1      34.840  13.657  10.405  0.00  0.00     0.327 A 
ATOM      9  HN  UNK N   1      33.561  14.430   8.970  1.00  0.00     0.172 HD
HETATM   10  O   UNK N   1      34.595  12.497  10.123  0.00  0.00    -0.246 OA
HETATM   11  N   UNK N   1      35.743  13.962  11.404  0.00  0.00    -0.310 N 
HETATM   12  C   UNK N   1      35.982  15.268  11.719  0.00  0.00     0.099 A 
HETATM   13  C   UNK N   1      35.321  16.293  11.048  0.00  0.00     0.066 A 
BRANCH  11  14
HETATM   14  C   UNK N   1      36.432  12.870  12.110  0.00  0.00     0.128 C 
HETATM   15  C   UNK N   1      37.778  12.491  11.500  0.00  0.00     0.027 C 
ENDBRANCH  11  14
ENDBRANCH   4   6
ENDBRANCH   1   4
BRANCH   1  16
HETATM   16  C   UNK N   1      32.751  17.378   6.358  0.00  0.00     0.080 A 
HETATM   17  C   UNK N   1      31.418  17.084   6.665  0.00  0.00     0.027 A 
HETATM   18  C   UNK N   1      30.466  16.998   5.644  0.00  0.00     0.030 A 
HETATM   19  C   UNK N   1      30.847  17.192   4.313  0.00  0.00     0.025 A 
HETATM   20  C   UNK N   1      32.177  17.488   4.004  0.00  0.00     0.030 A 
HETATM   21  C   UNK N   1      33.128  17.576   5.024  0.00  0.00     0.027 A 
BRANCH  19  22
HETATM   22  N   UNK N   1      29.896  17.072   3.281  0.00  0.00    -0.399 N 
HETATM   23  H   UNK N   1      30.190  16.924   2.353  0.00  0.00     0.156 HD
HETATM   24  H   UNK N   1      28.935  17.135   3.488  0.00  0.00     0.156 HD
ENDBRANCH  19  22
ENDBRANCH   1  16
TORSDOF 5
ENDMDL
MODEL 7
REMARK VINA RESULT:      -6.4     14.827     16.047
REMARK  5 active torsions:
REMARK  status: ('A' for Active; 'I' for Inactive)
REMARK    1  A    between atoms: S_1  and  N_6 
REMARK    2  A    between atoms: S_1  and  C_10 
REMARK    3  A    between atoms: N_5  and  C_12 
REMARK    4  A    between atoms: N_6  and  C_11 
REMARK    5  A    between atoms: N_9  and  C_20 
ROOT
HETATM    1  S   UNK N   1      20.594  15.973   7.129  0.00  0.00     0.264 S 
HETATM    2  O   UNK N   1      19.060  15.986   7.149  0.00  0.00    -0.200 OA
HETATM    3  O   UNK N   1      20.881  17.397   7.629  0.00  0.00    -0.200 OA
ENDROOT
BRANCH   1   4
HETATM    4  N   UNK N   1      20.986  16.037   5.416  0.00  0.00    -0.266 N 
HETATM    5  H   UNK N   1      20.733  15.277   4.845  0.00  0.00     0.180 HD
BRANCH   4   6
HETATM    6  C   UNK N   1      21.652  17.139   4.827  0.00  0.00     0.119 A 
HETATM    7  N   UNK N   1      20.947  18.260   4.531  0.00  0.00    -0.294 N 
HETATM    8  C   UNK N   1      21.544  19.335   3.923  0.00  0.00     0.327 A 
ATOM      9  HN  UNK N   1      19.955  18.305   4.764  1.00  0.00     0.172 HD
HETATM   10  O   UNK N   1      20.875  20.314   3.645  0.00  0.00    -0.246 OA
HETATM   11  N   UNK N   1      22.893  19.300   3.631  0.00  0.00    -0.310 N 
HETATM   12  C   UNK N   1      23.617  18.182   3.930  0.00  0.00     0.099 A 
HETATM   13  C   UNK N   1      23.008  17.078   4.519  0.00  0.00     0.066 A 
BRANCH  11  14
HETATM   14  C   UNK N   1      23.525  20.471   3.003  0.00  0.00     0.128 C 
HETATM   15  C   UNK N   1      25.039  20.351   2.853  0.00  0.00     0.027 C 
ENDBRANCH  11  14
ENDBRANCH   4   6
ENDBRANCH   1   4
BRANCH   1  16
HETATM   16  C   UNK N   1      21.207  14.740   8.279  0.00  0.00     0.080 A 
HETATM   17  C   UNK N   1      22.369  14.014   7.994  0.00  0.00     0.027 A 
HETATM   18  C   UNK N   1      22.762  12.965   8.831  0.00  0.00     0.030 A 
HETATM   19  C   UNK N   1      21.987  12.631   9.946  0.00  0.00     0.025 A 
HETATM   20  C   UNK N   1      20.828  13.356  10.234  0.00  0.00     0.030 A 
HETATM   21  C   UNK N   1      20.436  14.405   9.398  0.00  0.00     0.027 A 
BRANCH  19  22
HETATM   22  N   UNK N   1      22.364  11.552  10.771  0.00  0.00    -0.399 N 
HETATM   23  H   UNK N   1      22.318  11.641  11.750  0.00  0.00     0.156 HD
HETATM   24  H   UNK N   1      22.673  10.709  10.367  0.00  0.00     0.156 HD
ENDBRANCH  19  22
ENDBRANCH   1  16
TORSDOF 5
ENDMDL
MODEL 8
REMARK VINA RESULT:      -6.4      1.605      1.733
REMARK  5 active torsions:
REMARK  status: ('A' for Active; 'I' for Inactive)
REMARK    1  A    between atoms: S_1  and  N_6 
REMARK    2  A    between atoms: S_1  and  C_10 
REMARK    3  A    between atoms: N_5  and  C_12 
REMARK    4  A    between atoms: N_6  and  C_11 
REMARK    5  A    between atoms: N_9  and  C_20 
ROOT
HETATM    1  S   UNK N   1      35.777  12.249  14.555  0.00  0.00     0.264 S 
HETATM    2  O   UNK N   1      35.141  10.916  14.139  0.00  0.00    -0.200 OA
HETATM    3  O   UNK N   1      34.851  13.230  13.821  0.00  0.00    -0.200 OA
ENDROOT
BRANCH   1   4
HETATM    4  N   UNK N   1      37.271  12.301  13.628  0.00  0.00    -0.266 N 
HETATM    5  H   UNK N   1      38.118  12.095  14.085  0.00  0.00     0.180 HD
BRANCH   4   6
HETATM    6  C   UNK N   1      37.303  12.628  12.252  0.00  0.00     0.119 A 
HETATM    7  N   UNK N   1      37.098  13.913  11.869  0.00  0.00    -0.294 N 
HETATM    8  C   UNK N   1      37.081  14.266  10.544  0.00  0.00     0.327 A 
ATOM      9  HN  UNK N   1      36.955  14.631  12.579  1.00  0.00     0.172 HD
HETATM   10  O   UNK N   1      36.865  15.425  10.235  0.00  0.00    -0.246 OA
HETATM   11  N   UNK N   1      37.306  13.311   9.573  0.00  0.00    -0.310 N 
HETATM   12  C   UNK N   1      37.521  12.015   9.943  0.00  0.00     0.099 A 
HETATM   13  C   UNK N   1      37.509  11.647  11.285  0.00  0.00     0.066 A 
BRANCH  11  14
HETATM   14  C   UNK N   1      37.310  13.709   8.157  0.00  0.00     0.128 C 
HETATM   15  C   UNK N   1      36.013  13.389   7.420  0.00  0.00     0.027 C 
ENDBRANCH  11  14
ENDBRANCH   4   6
ENDBRANCH   1   4
BRANCH   1  16
HETATM   16  C   UNK N   1      35.664  12.449  16.334  0.00  0.00     0.080 A 
HETATM   17  C   UNK N   1      35.632  11.334  17.178  0.00  0.00     0.027 A 
HETATM   18  C   UNK N   1      35.408  11.498  18.548  0.00  0.00     0.030 A 
HETATM   19  C   UNK N   1      35.202  12.777  19.076  0.00  0.00     0.025 A 
HETATM   20  C   UNK N   1      35.236  13.893  18.235  0.00  0.00     0.030 A 
HETATM   21  C   UNK N   1      35.461  13.728  16.866  0.00  0.00     0.027 A 
BRANCH  19  22
HETATM   22  N   UNK N   1      34.943  12.940  20.451  0.00  0.00    -0.399 N 
HETATM   23  H   UNK N   1      34.022  13.090  20.765  0.00  0.00     0.156 HD
HETATM   24  H   UNK N   1      35.684  12.905  21.099  0.00  0.00     0.156 HD
ENDBRANCH  19  22
ENDBRANCH   1  16
TORSDOF 5
ENDMDL
MODEL 9
REMARK VINA RESULT:      -6.3      3.432      4.884
REMARK  5 active torsions:
REMARK  status: ('A' for Active; 'I' for Inactive)
REMARK    1  A    between atoms: S_1  and  N_6 
REMARK    2  A    between atoms: S_1  and  C_10 
REMARK    3  A    between atoms: N_5  and  C_12 
REMARK    4  A    between atoms: N_6  and  C_11 
REMARK    5  A    between atoms: N_9  and  C_20 
ROOT
HETATM    1  S   UNK N   1      35.777  15.132  10.690  0.00  0.00     0.264 S 
HETATM    2  O   UNK N   1      36.560  16.452  10.730  0.00  0.00    -0.200 OA
HETATM    3  O   UNK N   1      36.173  14.627   9.294  0.00  0.00    -0.200 OA
ENDROOT
BRANCH   1   4
HETATM    4  N   UNK N   1      34.107  15.648  10.497  0.00  0.00    -0.266 N 
HETATM    5  H   UNK N   1      33.525  15.673  11.291  0.00  0.00     0.180 HD
BRANCH   4   6
HETATM    6  C   UNK N   1      33.566  16.028   9.245  0.00  0.00     0.119 A 
HETATM    7  N   UNK N   1      34.290  16.828   8.424  0.00  0.00    -0.294 N 
HETATM    8  C   UNK N   1      33.788  17.253   7.220  0.00  0.00     0.327 A 
ATOM      9  HN  UNK N   1      35.226  17.120   8.706  1.00  0.00     0.172 HD
HETATM   10  O   UNK N   1      34.455  17.995   6.520  0.00  0.00    -0.246 OA
HETATM   11  N   UNK N   1      32.535  16.839   6.812  0.00  0.00    -0.310 N 
HETATM   12  C   UNK N   1      31.798  16.028   7.624  0.00  0.00     0.099 A 
HETATM   13  C   UNK N   1      32.292  15.620   8.860  0.00  0.00     0.066 A 
BRANCH  11  14
HETATM   14  C   UNK N   1      32.021  17.282   5.507  0.00  0.00     0.128 C 
HETATM   15  C   UNK N   1      30.801  16.500   5.025  0.00  0.00     0.027 C 
ENDBRANCH  11  14
ENDBRANCH   4   6
ENDBRANCH   1   4
BRANCH   1  16
HETATM   16  C   UNK N   1      36.371  14.033  11.976  0.00  0.00     0.080 A 
HETATM   17  C   UNK N   1      37.027  12.841  11.650  0.00  0.00     0.027 A 
HETATM   18  C   UNK N   1      37.365  11.929  12.656  0.00  0.00     0.030 A 
HETATM   19  C   UNK N   1      37.036  12.202  13.988  0.00  0.00     0.025 A 
HETATM   20  C   UNK N   1      36.384  13.393  14.316  0.00  0.00     0.030 A 
HETATM   21  C   UNK N   1      36.047  14.304  13.311  0.00  0.00     0.027 A 
BRANCH  19  22
HETATM   22  N   UNK N   1      37.347  11.269  14.996  0.00  0.00    -0.399 N 
HETATM   23  H   UNK N   1      37.836  10.445  14.772  0.00  0.00     0.156 HD
HETATM   24  H   UNK N   1      37.074  11.442  15.927  0.00  0.00     0.156 HD
ENDBRANCH  19  22
ENDBRANCH   1  16
TORSDOF 5
ENDMDL
