MODEL 1
REMARK VINA RESULT:      -6.2      0.000      0.000
REMARK  6 active torsions:
REMARK  status: ('A' for Active; 'I' for Inactive)
REMARK    1  A    between atoms: S_1  and  N_6 
REMARK    2  A    between atoms: S_1  and  C_12 
REMARK    3  A    between atoms: O_4  and  C_16 
REMARK    4  A    between atoms: O_5  and  C_20 
REMARK    5  A    between atoms: N_6  and  C_13 
REMARK    6  A    between atoms: N_9  and  C_19 
ROOT
HETATM    1  N   UNK N   1      34.267  15.640   7.527  0.00  0.00    -0.263 N 
HETATM    2  H   UNK N   1      34.226  14.803   7.011  0.00  0.00     0.180 HD
ENDROOT
BRANCH   1   3
HETATM    3  S   UNK N   1      33.411  17.052   6.940  0.00  0.00     0.264 S 
HETATM    4  O   UNK N   1      33.460  16.915   5.411  0.00  0.00    -0.200 OA
HETATM    5  O   UNK N   1      34.420  18.192   7.146  0.00  0.00    -0.200 OA
BRANCH   3   6
HETATM    6  C   UNK N   1      31.779  17.531   7.490  0.00  0.00     0.080 A 
HETATM    7  C   UNK N   1      31.613  18.283   8.658  0.00  0.00     0.027 A 
HETATM    8  C   UNK N   1      30.326  18.556   9.135  0.00  0.00     0.030 A 
HETATM    9  C   UNK N   1      29.206  18.068   8.452  0.00  0.00     0.025 A 
HETATM   10  C   UNK N   1      29.373  17.318   7.285  0.00  0.00     0.030 A 
HETATM   11  C   UNK N   1      30.657  17.046   6.808  0.00  0.00     0.027 A 
BRANCH   9  12
HETATM   12  N   UNK N   1      27.912  18.320   8.946  0.00  0.00    -0.399 N 
HETATM   13  H   UNK N   1      27.128  18.178   8.370  0.00  0.00     0.156 HD
HETATM   14  H   UNK N   1      27.793  18.639   9.870  0.00  0.00     0.156 HD
ENDBRANCH   9  12
ENDBRANCH   3   6
ENDBRANCH   1   3
BRANCH   1  15
HETATM   15  C   UNK N   1      35.016  15.677   8.726  0.00  0.00     0.154 A 
HETATM   16  N   UNK N   1      34.801  16.656   9.642  0.00  0.00    -0.336 N 
HETATM   17  C   UNK N   1      35.506  16.693  10.801  0.00  0.00     0.184 A 
ATOM     18  HN  UNK N   1      34.098  17.371   9.456  1.00  0.00     0.168 HD
HETATM   19  N   UNK N   1      36.430  15.736  11.069  0.00  0.00    -0.331 N 
HETATM   20  C   UNK N   1      36.673  14.720  10.196  0.00  0.00     0.181 A 
ATOM     21  HN  UNK N   1      36.954  15.777  11.943  1.00  0.00     0.168 HD
HETATM   22  C   UNK N   1      35.956  14.668   8.976  0.00  0.00     0.164 A 
BRANCH  20  23
HETATM   23  O   UNK N   1      37.588  13.768  10.496  0.00  0.00    -0.339 OA
HETATM   24  C   UNK N   1      37.399  12.845  11.498  0.00  0.00     0.211 C 
ENDBRANCH  20  23
BRANCH  22  25
HETATM   25  O   UNK N   1      36.107  13.683   8.052  0.00  0.00    -0.349 OA
HETATM   26  C   UNK N   1      35.551  12.426   8.126  0.00  0.00     0.210 C 
ENDBRANCH  22  25
ENDBRANCH   1  15
TORSDOF 6
ENDMDL
MODEL 2
REMARK VINA RESULT:      -6.0      2.411      6.990
REMARK  6 active torsions:
REMARK  status: ('A' for Active; 'I' for Inactive)
REMARK    1  A    between atoms: S_1  and  N_6 
REMARK    2  A    between atoms: S_1  and  C_12 
REMARK    3  A    between atoms: O_4  and  C_16 
REMARK    4  A    between atoms: O_5  and  C_20 
REMARK    5  A    between atoms: N_6  and  C_13 
REMARK    6  A    between atoms: N_9  and  C_19 
ROOT
HETATM    1  N   UNK N   1      32.579  18.193   8.202  0.00  0.00    -0.263 N 
HETATM    2  H   UNK N   1      32.264  18.984   8.695  0.00  0.00     0.180 HD
ENDROOT
BRANCH   1   3
HETATM    3  S   UNK N   1      34.289  17.808   8.201  0.00  0.00     0.264 S 
HETATM    4  O   UNK N   1      34.980  19.158   8.444  0.00  0.00    -0.200 OA
HETATM    5  O   UNK N   1      34.607  17.600   6.712  0.00  0.00    -0.200 OA
BRANCH   3   6
HETATM    6  C   UNK N   1      35.023  16.521   9.201  0.00  0.00     0.080 A 
HETATM    7  C   UNK N   1      35.186  15.228   8.692  0.00  0.00     0.027 A 
HETATM    8  C   UNK N   1      35.661  14.206   9.521  0.00  0.00     0.030 A 
HETATM    9  C   UNK N   1      35.960  14.473  10.862  0.00  0.00     0.025 A 
HETATM   10  C   UNK N   1      35.798  15.764  11.370  0.00  0.00     0.030 A 
HETATM   11  C   UNK N   1      35.326  16.784  10.542  0.00  0.00     0.027 A 
BRANCH   9  12
HETATM   12  N   UNK N   1      36.412  13.438  11.704  0.00  0.00    -0.399 N 
HETATM   13  H   UNK N   1      36.424  13.566  12.679  0.00  0.00     0.156 HD
HETATM   14  H   UNK N   1      36.714  12.586  11.316  0.00  0.00     0.156 HD
ENDBRANCH   9  12
ENDBRANCH   3   6
ENDBRANCH   1   3
BRANCH   1  15
HETATM   15  C   UNK N   1      31.643  17.392   7.508  0.00  0.00     0.154 A 
HETATM   16  N   UNK N   1      32.062  16.375   6.713  0.00  0.00    -0.336 N 
HETATM   17  C   UNK N   1      31.171  15.593   6.053  0.00  0.00     0.184 A 
ATOM     18  HN  UNK N   1      33.062  16.197   6.611  1.00  0.00     0.168 HD
HETATM   19  N   UNK N   1      29.838  15.807   6.195  0.00  0.00    -0.331 N 
HETATM   20  C   UNK N   1      29.361  16.798   6.996  0.00  0.00     0.181 A 
ATOM     21  HN  UNK N   1      29.179  15.212   5.692  1.00  0.00     0.168 HD
HETATM   22  C   UNK N   1      30.274  17.633   7.685  0.00  0.00     0.164 A 
BRANCH  20  23
HETATM   23  O   UNK N   1      28.026  16.979   7.134  0.00  0.00    -0.339 OA
HETATM   24  C   UNK N   1      27.100  16.234   6.442  0.00  0.00     0.211 C 
ENDBRANCH  20  23
BRANCH  22  25
HETATM   25  O   UNK N   1      29.897  18.632   8.527  0.00  0.00    -0.349 OA
HETATM   26  C   UNK N   1      29.509  18.469   9.837  0.00  0.00     0.210 C 
ENDBRANCH  22  25
ENDBRANCH   1  15
TORSDOF 6
ENDMDL
MODEL 3
REMARK VINA RESULT:      -5.9      4.854      8.356
REMARK  6 active torsions:
REMARK  status: ('A' for Active; 'I' for Inactive)
REMARK    1  A    between atoms: S_1  and  N_6 
REMARK    2  A    between atoms: S_1  and  C_12 
REMARK    3  A    between atoms: O_4  and  C_16 
REMARK    4  A    between atoms: O_5  and  C_20 
REMARK    5  A    between atoms: N_6  and  C_13 
REMARK    6  A    between atoms: N_9  and  C_19 
ROOT
HETATM    1  N   UNK N   1      36.896  13.453  13.340  0.00  0.00    -0.263 N 
HETATM    2  H   UNK N   1      37.840  13.487  13.616  0.00  0.00     0.180 HD
ENDROOT
BRANCH   1   3
HETATM    3  S   UNK N   1      35.753  12.543  14.307  0.00  0.00     0.264 S 
HETATM    4  O   UNK N   1      35.927  11.092  13.834  0.00  0.00    -0.200 OA
HETATM    5  O   UNK N   1      34.397  12.880  13.667  0.00  0.00    -0.200 OA
BRANCH   3   6
HETATM    6  C   UNK N   1      35.661  12.630  16.091  0.00  0.00     0.080 A 
HETATM    7  C   UNK N   1      35.658  11.464  16.862  0.00  0.00     0.027 A 
HETATM    8  C   UNK N   1      35.475  11.544  18.248  0.00  0.00     0.030 A 
HETATM    9  C   UNK N   1      35.283  12.788  18.859  0.00  0.00     0.025 A 
HETATM   10  C   UNK N   1      35.287  13.953  18.088  0.00  0.00     0.030 A 
HETATM   11  C   UNK N   1      35.470  13.873  16.706  0.00  0.00     0.027 A 
BRANCH   9  12
HETATM   12  N   UNK N   1      35.072  12.866  20.249  0.00  0.00    -0.399 N 
HETATM   13  H   UNK N   1      34.440  13.525  20.615  0.00  0.00     0.156 HD
HETATM   14  H   UNK N   1      35.558  12.261  20.854  0.00  0.00     0.156 HD
ENDBRANCH   9  12
ENDBRANCH   3   6
ENDBRANCH   1   3
BRANCH   1  15
HETATM   15  C   UNK N   1      36.493  14.137  12.170  0.00  0.00     0.154 A 
HETATM   16  N   UNK N   1      36.138  15.447  12.228  0.00  0.00    -0.336 N 
HETATM   17  C   UNK N   1      35.762  16.116  11.109  0.00  0.00     0.184 A 
ATOM     18  HN  UNK N   1      36.155  15.933  13.125  1.00  0.00     0.168 HD
HETATM   19  N   UNK N   1      35.753  15.487   9.906  0.00  0.00    -0.331 N 
HETATM   20  C   UNK N   1      36.120  14.181   9.787  0.00  0.00     0.181 A 
ATOM     21  HN  UNK N   1      35.467  16.002   9.074  1.00  0.00     0.168 HD
HETATM   22  C   UNK N   1      36.504  13.461  10.944  0.00  0.00     0.164 A 
BRANCH  20  23
HETATM   23  O   UNK N   1      36.118  13.582   8.573  0.00  0.00    -0.339 OA
HETATM   24  C   UNK N   1      37.110  13.785   7.642  0.00  0.00     0.211 C 
ENDBRANCH  20  23
BRANCH  22  25
HETATM   25  O   UNK N   1      36.911  12.164  10.925  0.00  0.00    -0.349 OA
HETATM   26  C   UNK N   1      38.153  11.721  10.532  0.00  0.00     0.210 C 
ENDBRANCH  22  25
ENDBRANCH   1  15
TORSDOF 6
ENDMDL
MODEL 4
REMARK VINA RESULT:      -5.9      3.858      7.503
REMARK  6 active torsions:
REMARK  status: ('A' for Active; 'I' for Inactive)
REMARK    1  A    between atoms: S_1  and  N_6 
REMARK    2  A    between atoms: S_1  and  C_12 
REMARK    3  A    between atoms: O_4  and  C_16 
REMARK    4  A    between atoms: O_5  and  C_20 
REMARK    5  A    between atoms: N_6  and  C_13 
REMARK    6  A    between atoms: N_9  and  C_19 
ROOT
HETATM    1  N   UNK N   1      34.392  13.317  11.456  0.00  0.00    -0.263 N 
HETATM    2  H   UNK N   1      33.636  12.748  11.182  0.00  0.00     0.180 HD
ENDROOT
BRANCH   1   3
HETATM    3  S   UNK N   1      35.586  12.679  12.568  0.00  0.00     0.264 S 
HETATM    4  O   UNK N   1      36.932  12.992  11.899  0.00  0.00    -0.200 OA
HETATM    5  O   UNK N   1      35.511  11.161  12.340  0.00  0.00    -0.200 OA
BRANCH   3   6
HETATM    6  C   UNK N   1      35.630  13.064  14.314  0.00  0.00     0.080 A 
HETATM    7  C   UNK N   1      34.641  12.580  15.176  0.00  0.00     0.027 A 
HETATM    8  C   UNK N   1      34.627  12.979  16.517  0.00  0.00     0.030 A 
HETATM    9  C   UNK N   1      35.595  13.871  16.993  0.00  0.00     0.025 A 
HETATM   10  C   UNK N   1      36.584  14.353  16.132  0.00  0.00     0.030 A 
HETATM   11  C   UNK N   1      36.598  13.954  14.794  0.00  0.00     0.027 A 
BRANCH   9  12
HETATM   12  N   UNK N   1      35.566  14.294  18.336  0.00  0.00    -0.399 N 
HETATM   13  H   UNK N   1      35.979  13.740  19.036  0.00  0.00     0.156 HD
HETATM   14  H   UNK N   1      35.132  15.145  18.574  0.00  0.00     0.156 HD
ENDBRANCH   9  12
ENDBRANCH   3   6
ENDBRANCH   1   3
BRANCH   1  15
HETATM   15  C   UNK N   1      34.488  14.631  10.943  0.00  0.00     0.154 A 
HETATM   16  N   UNK N   1      35.351  15.523  11.494  0.00  0.00    -0.336 N 
HETATM   17  C   UNK N   1      35.460  16.783  11.002  0.00  0.00     0.184 A 
ATOM     18  HN  UNK N   1      35.925  15.240  12.289  1.00  0.00     0.168 HD
HETATM   19  N   UNK N   1      34.716  17.166   9.933  0.00  0.00    -0.331 N 
HETATM   20  C   UNK N   1      33.851  16.306   9.328  0.00  0.00     0.181 A 
ATOM     21  HN  UNK N   1      34.807  18.116   9.574  1.00  0.00     0.168 HD
HETATM   22  C   UNK N   1      33.713  14.991   9.833  0.00  0.00     0.164 A 
BRANCH  20  23
HETATM   23  O   UNK N   1      33.133  16.708   8.252  0.00  0.00    -0.339 OA
HETATM   24  C   UNK N   1      31.988  17.462   8.362  0.00  0.00     0.211 C 
ENDBRANCH  20  23
BRANCH  22  25
HETATM   25  O   UNK N   1      32.897  14.052   9.284  0.00  0.00    -0.349 OA
HETATM   26  C   UNK N   1      33.172  13.316   8.154  0.00  0.00     0.210 C 
ENDBRANCH  22  25
ENDBRANCH   1  15
TORSDOF 6
ENDMDL
MODEL 5
REMARK VINA RESULT:      -5.9      2.196      2.734
REMARK  6 active torsions:
REMARK  status: ('A' for Active; 'I' for Inactive)
REMARK    1  A    between atoms: S_1  and  N_6 
REMARK    2  A    between atoms: S_1  and  C_12 
REMARK    3  A    between atoms: O_4  and  C_16 
REMARK    4  A    between atoms: O_5  and  C_20 
REMARK    5  A    between atoms: N_6  and  C_13 
REMARK    6  A    between atoms: N_9  and  C_19 
ROOT
HETATM    1  N   UNK N   1      34.501  15.660   7.799  0.00  0.00    -0.263 N 
HETATM    2  H   UNK N   1      34.532  14.882   7.196  0.00  0.00     0.180 HD
ENDROOT
BRANCH   1   3
HETATM    3  S   UNK N   1      33.560  17.065   7.338  0.00  0.00     0.264 S 
HETATM    4  O   UNK N   1      34.588  18.204   7.271  0.00  0.00    -0.200 OA
HETATM    5  O   UNK N   1      32.819  17.438   8.631  0.00  0.00    -0.200 OA
BRANCH   3   6
HETATM    6  C   UNK N   1      32.458  17.110   5.931  0.00  0.00     0.080 A 
HETATM    7  C   UNK N   1      31.097  16.822   6.081  0.00  0.00     0.027 A 
HETATM    8  C   UNK N   1      30.269  16.754   4.955  0.00  0.00     0.030 A 
HETATM    9  C   UNK N   1      30.804  16.962   3.678  0.00  0.00     0.025 A 
HETATM   10  C   UNK N   1      32.162  17.251   3.528  0.00  0.00     0.030 A 
HETATM   11  C   UNK N   1      32.988  17.320   4.652  0.00  0.00     0.027 A 
BRANCH   9  12
HETATM   12  N   UNK N   1      29.976  16.868   2.543  0.00  0.00    -0.399 N 
HETATM   13  H   UNK N   1      30.374  16.737   1.652  0.00  0.00     0.156 HD
HETATM   14  H   UNK N   1      28.999  16.932   2.640  0.00  0.00     0.156 HD
ENDBRANCH   9  12
ENDBRANCH   3   6
ENDBRANCH   1   3
BRANCH   1  15
HETATM   15  C   UNK N   1      35.217  15.619   9.017  0.00  0.00     0.154 A 
HETATM   16  N   UNK N   1      35.007  16.563   9.970  0.00  0.00    -0.336 N 
HETATM   17  C   UNK N   1      35.681  16.526  11.148  0.00  0.00     0.184 A 
ATOM     18  HN  UNK N   1      34.334  17.310   9.798  1.00  0.00     0.168 HD
HETATM   19  N   UNK N   1      36.566  15.527  11.398  0.00  0.00    -0.331 N 
HETATM   20  C   UNK N   1      36.799  14.543  10.487  0.00  0.00     0.181 A 
ATOM     21  HN  UNK N   1      37.066  15.512  12.287  1.00  0.00     0.168 HD
HETATM   22  C   UNK N   1      36.116  14.569   9.247  0.00  0.00     0.164 A 
BRANCH  20  23
HETATM   23  O   UNK N   1      37.675  13.549  10.768  0.00  0.00    -0.339 OA
HETATM   24  C   UNK N   1      37.418  12.576  11.706  0.00  0.00     0.211 C 
ENDBRANCH  20  23
BRANCH  22  25
HETATM   25  O   UNK N   1      36.261  13.621   8.284  0.00  0.00    -0.349 OA
HETATM   26  C   UNK N   1      37.292  13.554   7.376  0.00  0.00     0.210 C 
ENDBRANCH  22  25
ENDBRANCH   1  15
TORSDOF 6
ENDMDL
MODEL 6
REMARK VINA RESULT:      -5.8      1.683      2.152
REMARK  6 active torsions:
REMARK  status: ('A' for Active; 'I' for Inactive)
REMARK    1  A    between atoms: S_1  and  N_6 
REMARK    2  A    between atoms: S_1  and  C_12 
REMARK    3  A    between atoms: O_4  and  C_16 
REMARK    4  A    between atoms: O_5  and  C_20 
REMARK    5  A    between atoms: N_6  and  C_13 
REMARK    6  A    between atoms: N_9  and  C_19 
ROOT
HETATM    1  N   UNK N   1      33.528  16.326   8.055  0.00  0.00    -0.263 N 
HETATM    2  H   UNK N   1      33.772  16.795   7.224  0.00  0.00     0.180 HD
ENDROOT
BRANCH   1   3
HETATM    3  S   UNK N   1      31.879  15.778   8.278  0.00  0.00     0.264 S 
HETATM    4  O   UNK N   1      31.912  15.007   9.606  0.00  0.00    -0.200 OA
HETATM    5  O   UNK N   1      31.754  14.611   7.286  0.00  0.00    -0.200 OA
BRANCH   3   6
HETATM    6  C   UNK N   1      30.450  16.849   8.192  0.00  0.00     0.080 A 
HETATM    7  C   UNK N   1      29.806  17.083   6.972  0.00  0.00     0.027 A 
HETATM    8  C   UNK N   1      28.759  18.008   6.901  0.00  0.00     0.030 A 
HETATM    9  C   UNK N   1      28.363  18.708   8.047  0.00  0.00     0.025 A 
HETATM   10  C   UNK N   1      29.005  18.473   9.265  0.00  0.00     0.030 A 
HETATM   11  C   UNK N   1      30.050  17.549   9.336  0.00  0.00     0.027 A 
BRANCH   9  12
HETATM   12  N   UNK N   1      27.327  19.659   7.971  0.00  0.00    -0.399 N 
HETATM   13  H   UNK N   1      26.943  19.900   7.097  0.00  0.00     0.156 HD
HETATM   14  H   UNK N   1      26.986  20.081   8.792  0.00  0.00     0.156 HD
ENDBRANCH   9  12
ENDBRANCH   3   6
ENDBRANCH   1   3
BRANCH   1  15
HETATM   15  C   UNK N   1      34.517  16.113   9.043  0.00  0.00     0.154 A 
HETATM   16  N   UNK N   1      34.555  16.889  10.157  0.00  0.00    -0.336 N 
HETATM   17  C   UNK N   1      35.492  16.684  11.117  0.00  0.00     0.184 A 
ATOM     18  HN  UNK N   1      33.869  17.635  10.273  1.00  0.00     0.168 HD
HETATM   19  N   UNK N   1      36.399  15.682  10.985  0.00  0.00    -0.331 N 
HETATM   20  C   UNK N   1      36.393  14.861   9.899  0.00  0.00     0.181 A 
ATOM     21  HN  UNK N   1      37.098  15.540  11.713  1.00  0.00     0.168 HD
HETATM   22  C   UNK N   1      35.432  15.064   8.880  0.00  0.00     0.164 A 
BRANCH  20  23
HETATM   23  O   UNK N   1      37.299  13.858   9.799  0.00  0.00    -0.339 OA
HETATM   24  C   UNK N   1      38.581  14.057   9.344  0.00  0.00     0.211 C 
ENDBRANCH  20  23
BRANCH  22  25
HETATM   25  O   UNK N   1      35.328  14.284   7.772  0.00  0.00    -0.349 OA
HETATM   26  C   UNK N   1      34.807  13.010   7.737  0.00  0.00     0.210 C 
ENDBRANCH  22  25
ENDBRANCH   1  15
TORSDOF 6
ENDMDL
MODEL 7
REMARK VINA RESULT:      -5.8      4.972      7.270
REMARK  6 active torsions:
REMARK  status: ('A' for Active; 'I' for Inactive)
REMARK    1  A    between atoms: S_1  and  N_6 
REMARK    2  A    between atoms: S_1  and  C_12 
REMARK    3  A    between atoms: O_4  and  C_16 
REMARK    4  A    between atoms: O_5  and  C_20 
REMARK    5  A    between atoms: N_6  and  C_13 
REMARK    6  A    between atoms: N_9  and  C_19 
ROOT
HETATM    1  N   UNK N   1      27.529  17.854   6.497  0.00  0.00    -0.263 N 
HETATM    2  H   UNK N   1      27.098  16.989   6.310  0.00  0.00     0.180 HD
ENDROOT
BRANCH   1   3
HETATM    3  S   UNK N   1      27.035  19.271   5.593  0.00  0.00     0.264 S 
HETATM    4  O   UNK N   1      28.251  19.604   4.716  0.00  0.00    -0.200 OA
HETATM    5  O   UNK N   1      27.124  20.404   6.628  0.00  0.00    -0.200 OA
BRANCH   3   6
HETATM    6  C   UNK N   1      25.517  19.378   4.654  0.00  0.00     0.080 A 
HETATM    7  C   UNK N   1      25.318  20.414   3.736  0.00  0.00     0.027 A 
HETATM    8  C   UNK N   1      24.083  20.548   3.090  0.00  0.00     0.030 A 
HETATM    9  C   UNK N   1      23.045  19.652   3.372  0.00  0.00     0.025 A 
HETATM   10  C   UNK N   1      23.244  18.617   4.287  0.00  0.00     0.030 A 
HETATM   11  C   UNK N   1      24.477  18.484   4.931  0.00  0.00     0.027 A 
BRANCH   9  12
HETATM   12  N   UNK N   1      21.794  19.802   2.742  0.00  0.00    -0.399 N 
HETATM   13  H   UNK N   1      21.295  19.009   2.443  0.00  0.00     0.156 HD
HETATM   14  H   UNK N   1      21.419  20.701   2.602  0.00  0.00     0.156 HD
ENDBRANCH   9  12
ENDBRANCH   3   6
ENDBRANCH   1   3
BRANCH   1  15
HETATM   15  C   UNK N   1      28.534  17.925   7.489  0.00  0.00     0.154 A 
HETATM   16  N   UNK N   1      28.268  18.479   8.699  0.00  0.00    -0.336 N 
HETATM   17  C   UNK N   1      29.223  18.540   9.662  0.00  0.00     0.184 A 
ATOM     18  HN  UNK N   1      27.338  18.854   8.887  1.00  0.00     0.168 HD
HETATM   19  N   UNK N   1      30.459  18.028   9.433  0.00  0.00    -0.331 N 
HETATM   20  C   UNK N   1      30.774  17.442   8.245  0.00  0.00     0.181 A 
ATOM     21  HN  UNK N   1      31.167  18.082  10.165  1.00  0.00     0.168 HD
HETATM   22  C   UNK N   1      29.796  17.378   7.223  0.00  0.00     0.164 A 
BRANCH  20  23
HETATM   23  O   UNK N   1      32.009  16.924   8.049  0.00  0.00    -0.339 OA
HETATM   24  C   UNK N   1      33.160  17.593   8.396  0.00  0.00     0.211 C 
ENDBRANCH  20  23
BRANCH  22  25
HETATM   25  O   UNK N   1      30.005  16.791   6.015  0.00  0.00    -0.349 OA
HETATM   26  C   UNK N   1      30.740  17.327   4.982  0.00  0.00     0.210 C 
ENDBRANCH  22  25
ENDBRANCH   1  15
TORSDOF 6
ENDMDL
MODEL 8
REMARK VINA RESULT:      -5.7     11.478     14.359
REMARK  6 active torsions:
REMARK  status: ('A' for Active; 'I' for Inactive)
REMARK    1  A    between atoms: S_1  and  N_6 
REMARK    2  A    between atoms: S_1  and  C_12 
REMARK    3  A    between atoms: O_4  and  C_16 
REMARK    4  A    between atoms: O_5  and  C_20 
REMARK    5  A    between atoms: N_6  and  C_13 
REMARK    6  A    between atoms: N_9  and  C_19 
ROOT
HETATM    1  N   UNK N   1      20.693  18.608   2.167  0.00  0.00    -0.263 N 
HETATM    2  H   UNK N   1      20.270  18.777   1.294  0.00  0.00     0.180 HD
ENDROOT
BRANCH   1   3
HETATM    3  S   UNK N   1      21.601  19.890   2.943  0.00  0.00     0.264 S 
HETATM    4  O   UNK N   1      20.803  20.200   4.218  0.00  0.00    -0.200 OA
HETATM    5  O   UNK N   1      21.260  21.129   2.098  0.00  0.00    -0.200 OA
BRANCH   3   6
HETATM    6  C   UNK N   1      23.354  19.808   3.284  0.00  0.00     0.080 A 
HETATM    7  C   UNK N   1      24.245  20.682   2.652  0.00  0.00     0.027 A 
HETATM    8  C   UNK N   1      25.623  20.533   2.845  0.00  0.00     0.030 A 
HETATM    9  C   UNK N   1      26.110  19.504   3.660  0.00  0.00     0.025 A 
HETATM   10  C   UNK N   1      25.220  18.634   4.292  0.00  0.00     0.030 A 
HETATM   11  C   UNK N   1      23.844  18.782   4.100  0.00  0.00     0.027 A 
BRANCH   9  12
HETATM   12  N   UNK N   1      27.498  19.339   3.834  0.00  0.00    -0.399 N 
HETATM   13  H   UNK N   1      27.842  18.570   4.343  0.00  0.00     0.156 HD
HETATM   14  H   UNK N   1      28.123  19.992   3.445  0.00  0.00     0.156 HD
ENDBRANCH   9  12
ENDBRANCH   3   6
ENDBRANCH   1   3
BRANCH   1  15
HETATM   15  C   UNK N   1      20.556  17.334   2.766  0.00  0.00     0.154 A 
HETATM   16  N   UNK N   1      20.522  17.210   4.117  0.00  0.00    -0.336 N 
HETATM   17  C   UNK N   1      20.378  15.994   4.702  0.00  0.00     0.184 A 
ATOM     18  HN  UNK N   1      20.605  18.043   4.701  1.00  0.00     0.168 HD
HETATM   19  N   UNK N   1      20.247  14.879   3.938  0.00  0.00    -0.331 N 
HETATM   20  C   UNK N   1      20.253  14.948   2.578  0.00  0.00     0.181 A 
ATOM     21  HN  UNK N   1      20.141  13.972   4.391  1.00  0.00     0.168 HD
HETATM   22  C   UNK N   1      20.413  16.206   1.948  0.00  0.00     0.164 A 
BRANCH  20  23
HETATM   23  O   UNK N   1      20.103  13.823   1.839  0.00  0.00    -0.339 OA
HETATM   24  C   UNK N   1      18.885  13.210   1.658  0.00  0.00     0.211 C 
ENDBRANCH  20  23
BRANCH  22  25
HETATM   25  O   UNK N   1      20.406  16.382   0.600  0.00  0.00    -0.349 OA
HETATM   26  C   UNK N   1      19.283  16.451  -0.191  0.00  0.00     0.210 C 
ENDBRANCH  22  25
ENDBRANCH   1  15
TORSDOF 6
ENDMDL
MODEL 9
REMARK VINA RESULT:      -5.7      3.326      4.187
REMARK  6 active torsions:
REMARK  status: ('A' for Active; 'I' for Inactive)
REMARK    1  A    between atoms: S_1  and  N_6 
REMARK    2  A    between atoms: S_1  and  C_12 
REMARK    3  A    between atoms: O_4  and  C_16 
REMARK    4  A    between atoms: O_5  and  C_20 
REMARK    5  A    between atoms: N_6  and  C_13 
REMARK    6  A    between atoms: N_9  and  C_19 
ROOT
HETATM    1  N   UNK N   1      36.475  14.907  10.283  0.00  0.00    -0.263 N 
HETATM    2  H   UNK N   1      37.157  14.774   9.586  0.00  0.00     0.180 HD
ENDROOT
BRANCH   1   3
HETATM    3  S   UNK N   1      35.081  15.911   9.938  0.00  0.00     0.264 S 
HETATM    4  O   UNK N   1      35.264  17.138  10.843  0.00  0.00    -0.200 OA
HETATM    5  O   UNK N   1      33.936  15.196  10.673  0.00  0.00    -0.200 OA
BRANCH   3   6
HETATM    6  C   UNK N   1      34.582  16.395   8.290  0.00  0.00     0.080 A 
HETATM    7  C   UNK N   1      33.793  17.533   8.090  0.00  0.00     0.027 A 
HETATM    8  C   UNK N   1      33.320  17.837   6.808  0.00  0.00     0.030 A 
HETATM    9  C   UNK N   1      33.626  16.998   5.731  0.00  0.00     0.025 A 
HETATM   10  C   UNK N   1      34.415  15.863   5.931  0.00  0.00     0.030 A 
HETATM   11  C   UNK N   1      34.888  15.560   7.210  0.00  0.00     0.027 A 
BRANCH   9  12
HETATM   12  N   UNK N   1      33.128  17.290   4.446  0.00  0.00    -0.399 N 
HETATM   13  H   UNK N   1      33.638  17.026   3.648  0.00  0.00     0.156 HD
HETATM   14  H   UNK N   1      32.267  17.758   4.347  0.00  0.00     0.156 HD
ENDBRANCH   9  12
ENDBRANCH   3   6
ENDBRANCH   1   3
BRANCH   1  15
HETATM   15  C   UNK N   1      36.643  14.286  11.542  0.00  0.00     0.154 A 
HETATM   16  N   UNK N   1      36.312  14.943  12.683  0.00  0.00    -0.336 N 
HETATM   17  C   UNK N   1      36.459  14.350  13.895  0.00  0.00     0.184 A 
ATOM     18  HN  UNK N   1      35.947  15.894  12.627  1.00  0.00     0.168 HD
HETATM   19  N   UNK N   1      36.924  13.078  13.983  0.00  0.00    -0.331 N 
HETATM   20  C   UNK N   1      37.252  12.366  12.870  0.00  0.00     0.181 A 
ATOM     21  HN  UNK N   1      37.030  12.646  14.901  1.00  0.00     0.168 HD
HETATM   22  C   UNK N   1      37.117  12.968  11.596  0.00  0.00     0.164 A 
BRANCH  20  23
HETATM   23  O   UNK N   1      37.698  11.092  12.985  0.00  0.00    -0.339 OA
HETATM   24  C   UNK N   1      38.062  10.538  14.190  0.00  0.00     0.211 C 
ENDBRANCH  20  23
BRANCH  22  25
HETATM   25  O   UNK N   1      37.393  12.333  10.427  0.00  0.00    -0.349 OA
HETATM   26  C   UNK N   1      38.644  12.180   9.875  0.00  0.00     0.210 C 
ENDBRANCH  22  25
ENDBRANCH   1  15
TORSDOF 6
ENDMDL
