REMARK  17 active torsions:
REMARK  status: ('A' for Active; 'I' for Inactive)
REMARK    1  A    between atoms: S_1  and  N_12 
REMARK    2  A    between atoms: S_1  and  C_23 
REMARK    3  A    between atoms: P_2  and  O_3 
REMARK    4  A    between atoms: P_2  and  O_8 
REMARK    5  A    between atoms: P_2  and  O_9 
REMARK    6  A    between atoms: C_15  and  O_3 
REMARK    7  A    between atoms: C_22  and  O_4 
REMARK    8  A    between atoms: O_4  and  C_27 
REMARK    9  A    between atoms: N_12  and  C_17 
REMARK   10  A    between atoms: N_12  and  C_18 
REMARK   11  A    between atoms: C_16  and  N_13 
REMARK       I    between atoms: N_13  and  C_27 
REMARK   12  A    between atoms: N_14  and  C_39 
REMARK   13  A    between atoms: C_15  and  C_16 
REMARK   14  A    between atoms: C_15  and  C_17 
REMARK   15  A    between atoms: C_16  and  C_19 
REMARK   16  A    between atoms: C_18  and  C_20 
REMARK   17  A    between atoms: C_19  and  C_21 
ROOT
HETATM    1  C   UNK N   1       3.722   1.502  -0.356  0.00  0.00     0.171 C 
ENDROOT
BRANCH   1   2
HETATM    2  O   UNK N   1       2.963   2.468  -1.072  0.00  0.00    -0.288 OA
BRANCH   2   3
HETATM    3  P   UNK N   1       2.435   3.729   0.038  0.00  0.00     0.391 P 
HETATM    4  O   UNK N   1       3.078   4.595  -1.080  0.00  0.00    -0.632 OA
BRANCH   3   5
HETATM    5  O   UNK N   1       1.164   4.856  -0.315  0.00  0.00    -0.307 OA
HETATM    6  H   UNK N   1       1.354   5.786  -0.513  0.00  0.00     0.222 HD
ENDBRANCH   3   5
BRANCH   3   7
HETATM    7  O   UNK N   1       1.053   2.938  -0.650  0.00  0.00    -0.307 OA
HETATM    8  H   UNK N   1       0.284   3.386  -1.035  0.00  0.00     0.222 HD
ENDBRANCH   3   7
ENDBRANCH   2   3
ENDBRANCH   1   2
BRANCH   1   9
HETATM    9  C   UNK N   1       5.197   1.884  -0.041  0.00  0.00     0.121 C 
BRANCH   9  10
HETATM   10  N   UNK N   1       5.376   3.298  -0.271  0.00  0.00    -0.329 N 
HETATM   11  C   UNK N   1       6.498   3.999  -0.019  0.00  0.00     0.361 C 
HETATM   12  O   UNK N   1       7.459   3.457   0.521  0.00  0.00    -0.238 OA
HETATM   13  H   UNK N   1       4.611   3.793  -0.644  0.00  0.00     0.165 HD
BRANCH  11  14
HETATM   14  O   UNK N   1       6.544   5.305  -0.391  0.00  0.00    -0.296 OA
BRANCH  14  15
HETATM   15  C   UNK N   1       7.661   6.082  -0.670  0.00  0.00     0.159 C 
HETATM   16  C   UNK N   1       8.923   5.297  -0.920  0.00  0.00     0.061 C 
HETATM   17  C   UNK N   1       9.747   5.551   0.326  0.00  0.00     0.170 C 
HETATM   18  O   UNK N   1       8.937   6.198   1.275  0.00  0.00    -0.389 OA
HETATM   19  C   UNK N   1       8.024   6.935   0.514  0.00  0.00     0.200 C 
ENDBRANCH  14  15
ENDBRANCH  11  14
ENDBRANCH   9  10
BRANCH   9  20
HETATM   20  C   UNK N   1       6.135   1.120  -0.989  0.00  0.00     0.066 C 
BRANCH  20  21
HETATM   21  C   UNK N   1       6.999   0.055  -0.365  0.00  0.00    -0.056 A 
HETATM   22  C   UNK N   1       7.102  -0.109   1.027  0.00  0.00     0.007 A 
HETATM   23  C   UNK N   1       7.869  -1.153   1.559  0.00  0.00     0.001 A 
HETATM   24  C   UNK N   1       8.551  -2.027   0.708  0.00  0.00     0.000 A 
HETATM   25  C   UNK N   1       8.475  -1.852  -0.676  0.00  0.00     0.001 A 
HETATM   26  C   UNK N   1       7.700  -0.817  -1.209  0.00  0.00     0.007 A 
ENDBRANCH  20  21
ENDBRANCH   9  20
ENDBRANCH   1   9
BRANCH   1  27
HETATM   27  C   UNK N   1       2.944   0.777   0.763  0.00  0.00     0.142 C 
BRANCH  27  28
HETATM   28  N   UNK N   1       2.369  -0.526   0.374  0.00  0.00    -0.204 NA
BRANCH  28  29
HETATM   29  S   UNK N   1       3.639  -1.698  -0.031  0.00  0.00     0.243 S 
HETATM   30  O   UNK N   1       4.336  -1.211  -1.310  0.00  0.00    -0.206 OA
HETATM   31  O   UNK N   1       4.702  -1.387   1.025  0.00  0.00    -0.206 OA
BRANCH  29  32
HETATM   32  C   UNK N   1       3.435  -3.468   0.023  0.00  0.00     0.074 A 
HETATM   33  C   UNK N   1       2.225  -4.079  -0.318  0.00  0.00     0.027 A 
HETATM   34  C   UNK N   1       2.121  -5.476  -0.283  0.00  0.00     0.030 A 
HETATM   35  C   UNK N   1       3.225  -6.254   0.087  0.00  0.00     0.025 A 
HETATM   36  C   UNK N   1       4.432  -5.640   0.423  0.00  0.00     0.030 A 
HETATM   37  C   UNK N   1       4.536  -4.251   0.389  0.00  0.00     0.027 A 
BRANCH  35  38
HETATM   38  N   UNK N   1       3.123  -7.658   0.122  0.00  0.00    -0.399 N 
HETATM   39  H   UNK N   1       2.237  -8.087   0.146  0.00  0.00     0.156 HD
HETATM   40  H   UNK N   1       3.937  -8.211   0.122  0.00  0.00     0.156 HD
ENDBRANCH  35  38
ENDBRANCH  29  32
ENDBRANCH  28  29
BRANCH  28  41
HETATM   41  C   UNK N   1       1.408  -0.426  -0.721  0.00  0.00     0.111 C 
BRANCH  41  42
HETATM   42  C   UNK N   1       0.004  -0.158  -0.187  0.00  0.00    -0.009 C 
HETATM   43  C   UNK N   1      -0.386  -1.175   0.872  0.00  0.00     0.011 C 
HETATM   44  C   UNK N   1      -0.987  -0.246  -1.329  0.00  0.00     0.011 C 
ENDBRANCH  41  42
ENDBRANCH  28  41
ENDBRANCH  27  28
ENDBRANCH   1  27
TORSDOF 17
