MODEL 1
REMARK VINA RESULT:      -7.1      0.000      0.000
REMARK  17 active torsions:
REMARK  status: ('A' for Active; 'I' for Inactive)
REMARK    1  A    between atoms: S_1  and  N_12 
REMARK    2  A    between atoms: S_1  and  C_23 
REMARK    3  A    between atoms: P_2  and  O_3 
REMARK    4  A    between atoms: P_2  and  O_8 
REMARK    5  A    between atoms: P_2  and  O_9 
REMARK    6  A    between atoms: C_15  and  O_3 
REMARK    7  A    between atoms: C_22  and  O_4 
REMARK    8  A    between atoms: O_4  and  C_27 
REMARK    9  A    between atoms: N_12  and  C_17 
REMARK   10  A    between atoms: N_12  and  C_18 
REMARK   11  A    between atoms: C_16  and  N_13 
REMARK       I    between atoms: N_13  and  C_27 
REMARK   12  A    between atoms: N_14  and  C_39 
REMARK   13  A    between atoms: C_15  and  C_16 
REMARK   14  A    between atoms: C_15  and  C_17 
REMARK   15  A    between atoms: C_16  and  C_19 
REMARK   16  A    between atoms: C_18  and  C_20 
REMARK   17  A    between atoms: C_19  and  C_21 
ROOT
HETATM    1  C   UNK N   1      21.668  16.560   6.004  0.00  0.00     0.171 C 
ENDROOT
BRANCH   1   2
HETATM    2  O   UNK N   1      21.625  17.207   7.269  0.00  0.00    -0.288 OA
BRANCH   2   3
HETATM    3  P   UNK N   1      19.945  17.413   7.758  0.00  0.00     0.391 P 
HETATM    4  O   UNK N   1      20.514  16.695   9.013  0.00  0.00    -0.632 OA
BRANCH   3   5
HETATM    5  O   UNK N   1      19.434  18.470   9.035  0.00  0.00    -0.307 OA
HETATM    6  H   UNK N   1      19.999  19.193   9.350  0.00  0.00     0.222 HD
ENDBRANCH   3   5
BRANCH   3   7
HETATM    7  O   UNK N   1      20.719  18.962   7.652  0.00  0.00    -0.307 OA
HETATM    8  H   UNK N   1      20.967  19.518   8.407  0.00  0.00     0.222 HD
ENDBRANCH   3   7
ENDBRANCH   2   3
ENDBRANCH   1   2
BRANCH   1   9
HETATM    9  C   UNK N   1      22.060  15.054   6.016  0.00  0.00     0.121 C 
BRANCH   9  10
HETATM   10  N   UNK N   1      22.312  14.645   7.377  0.00  0.00    -0.329 N 
HETATM   11  C   UNK N   1      21.533  13.824   8.107  0.00  0.00     0.361 C 
HETATM   12  O   UNK N   1      20.467  13.416   7.654  0.00  0.00    -0.238 OA
HETATM   13  H   UNK N   1      23.123  14.997   7.809  0.00  0.00     0.165 HD
BRANCH  11  14
HETATM   14  O   UNK N   1      21.964  13.448   9.340  0.00  0.00    -0.296 OA
BRANCH  14  15
HETATM   15  C   UNK N   1      22.322  12.180   9.778  0.00  0.00     0.159 C 
HETATM   16  C   UNK N   1      22.373  12.025  11.276  0.00  0.00     0.061 C 
HETATM   17  C   UNK N   1      23.856  11.938  11.570  0.00  0.00     0.170 C 
HETATM   18  O   UNK N   1      24.565  12.260  10.400  0.00  0.00    -0.389 OA
HETATM   19  C   UNK N   1      23.727  11.849   9.358  0.00  0.00     0.200 C 
ENDBRANCH  14  15
ENDBRANCH  11  14
ENDBRANCH   9  10
BRANCH   9  20
HETATM   20  C   UNK N   1      23.352  14.857   5.207  0.00  0.00     0.066 C 
BRANCH  20  21
HETATM   21  C   UNK N   1      23.200  14.259   3.833  0.00  0.00    -0.056 A 
HETATM   22  C   UNK N   1      22.553  13.031   3.615  0.00  0.00     0.007 A 
HETATM   23  C   UNK N   1      22.381  12.545   2.313  0.00  0.00     0.001 A 
HETATM   24  C   UNK N   1      22.868  13.272   1.223  0.00  0.00     0.000 A 
HETATM   25  C   UNK N   1      23.537  14.480   1.435  0.00  0.00     0.001 A 
HETATM   26  C   UNK N   1      23.699  14.972   2.734  0.00  0.00     0.007 A 
ENDBRANCH  20  21
ENDBRANCH   9  20
ENDBRANCH   1   9
BRANCH   1  27
HETATM   27  C   UNK N   1      20.537  16.970   5.036  0.00  0.00     0.142 C 
BRANCH  27  28
HETATM   28  N   UNK N   1      20.983  17.304   3.668  0.00  0.00    -0.204 NA
BRANCH  28  29
HETATM   29  S   UNK N   1      21.749  18.904   3.611  0.00  0.00     0.243 S 
HETATM   30  O   UNK N   1      21.058  19.715   2.505  0.00  0.00    -0.206 OA
HETATM   31  O   UNK N   1      21.183  19.569   4.867  0.00  0.00    -0.206 OA
BRANCH  29  32
HETATM   32  C   UNK N   1      23.508  19.186   3.690  0.00  0.00     0.074 A 
HETATM   33  C   UNK N   1      24.362  18.314   4.370  0.00  0.00     0.027 A 
HETATM   34  C   UNK N   1      25.741  18.565   4.383  0.00  0.00     0.030 A 
HETATM   35  C   UNK N   1      26.258  19.681   3.714  0.00  0.00     0.025 A 
HETATM   36  C   UNK N   1      25.402  20.547   3.033  0.00  0.00     0.030 A 
HETATM   37  C   UNK N   1      24.031  20.298   3.020  0.00  0.00     0.027 A 
BRANCH  35  38
HETATM   38  N   UNK N   1      27.643  19.935   3.725  0.00  0.00    -0.399 N 
HETATM   39  H   UNK N   1      28.001  20.732   3.271  0.00  0.00     0.156 HD
HETATM   40  H   UNK N   1      28.253  19.317   4.187  0.00  0.00     0.156 HD
ENDBRANCH  35  38
ENDBRANCH  29  32
ENDBRANCH  28  29
BRANCH  28  41
HETATM   41  C   UNK N   1      19.912  17.222   2.679  0.00  0.00     0.111 C 
BRANCH  41  42
HETATM   42  C   UNK N   1      20.303  16.294   1.532  0.00  0.00    -0.009 C 
HETATM   43  C   UNK N   1      19.857  16.855   0.193  0.00  0.00     0.011 C 
HETATM   44  C   UNK N   1      19.643  14.947   1.736  0.00  0.00     0.011 C 
ENDBRANCH  41  42
ENDBRANCH  28  41
ENDBRANCH  27  28
ENDBRANCH   1  27
TORSDOF 17
ENDMDL
MODEL 2
REMARK VINA RESULT:      -7.1      2.616      5.534
REMARK  17 active torsions:
REMARK  status: ('A' for Active; 'I' for Inactive)
REMARK    1  A    between atoms: S_1  and  N_12 
REMARK    2  A    between atoms: S_1  and  C_23 
REMARK    3  A    between atoms: P_2  and  O_3 
REMARK    4  A    between atoms: P_2  and  O_8 
REMARK    5  A    between atoms: P_2  and  O_9 
REMARK    6  A    between atoms: C_15  and  O_3 
REMARK    7  A    between atoms: C_22  and  O_4 
REMARK    8  A    between atoms: O_4  and  C_27 
REMARK    9  A    between atoms: N_12  and  C_17 
REMARK   10  A    between atoms: N_12  and  C_18 
REMARK   11  A    between atoms: C_16  and  N_13 
REMARK       I    between atoms: N_13  and  C_27 
REMARK   12  A    between atoms: N_14  and  C_39 
REMARK   13  A    between atoms: C_15  and  C_16 
REMARK   14  A    between atoms: C_15  and  C_17 
REMARK   15  A    between atoms: C_16  and  C_19 
REMARK   16  A    between atoms: C_18  and  C_20 
REMARK   17  A    between atoms: C_19  and  C_21 
ROOT
HETATM    1  C   UNK N   1      21.390  18.503   3.851  0.00  0.00     0.171 C 
ENDROOT
BRANCH   1   2
HETATM    2  O   UNK N   1      21.695  19.187   2.642  0.00  0.00    -0.288 OA
BRANCH   2   3
HETATM    3  P   UNK N   1      20.637  20.586   2.485  0.00  0.00     0.391 P 
HETATM    4  O   UNK N   1      21.987  21.292   2.791  0.00  0.00    -0.632 OA
BRANCH   3   5
HETATM    5  O   UNK N   1      20.740  21.734   1.189  0.00  0.00    -0.307 OA
HETATM    6  H   UNK N   1      21.596  22.021   0.835  0.00  0.00     0.222 HD
ENDBRANCH   3   5
BRANCH   3   7
HETATM    7  O   UNK N   1      20.801  19.800   0.948  0.00  0.00    -0.307 OA
HETATM    8  H   UNK N   1      21.292  20.150   0.188  0.00  0.00     0.222 HD
ENDBRANCH   3   7
ENDBRANCH   2   3
ENDBRANCH   1   2
BRANCH   1   9
HETATM    9  C   UNK N   1      20.550  17.201   3.709  0.00  0.00     0.121 C 
BRANCH   9  10
HETATM   10  N   UNK N   1      20.609  16.465   4.950  0.00  0.00    -0.329 N 
HETATM   11  C   UNK N   1      19.561  15.904   5.582  0.00  0.00     0.361 C 
HETATM   12  O   UNK N   1      18.421  16.061   5.151  0.00  0.00    -0.238 OA
HETATM   13  H   UNK N   1      21.494  16.366   5.371  0.00  0.00     0.165 HD
BRANCH  11  14
HETATM   14  O   UNK N   1      19.797  15.151   6.688  0.00  0.00    -0.296 OA
BRANCH  14  15
HETATM   15  C   UNK N   1      20.431  15.527   7.865  0.00  0.00     0.159 C 
HETATM   16  C   UNK N   1      21.308  14.462   8.472  0.00  0.00     0.061 C 
HETATM   17  C   UNK N   1      20.526  14.014   9.689  0.00  0.00     0.170 C 
HETATM   18  O   UNK N   1      19.242  14.583   9.632  0.00  0.00    -0.389 OA
HETATM   19  C   UNK N   1      19.423  15.790   8.950  0.00  0.00     0.200 C 
ENDBRANCH  14  15
ENDBRANCH  11  14
ENDBRANCH   9  10
BRANCH   9  20
HETATM   20  C   UNK N   1      21.152  16.324   2.600  0.00  0.00     0.066 C 
BRANCH  20  21
HETATM   21  C   UNK N   1      20.175  15.663   1.662  0.00  0.00    -0.056 A 
HETATM   22  C   UNK N   1      19.697  14.358   1.872  0.00  0.00     0.007 A 
HETATM   23  C   UNK N   1      18.742  13.809   1.006  0.00  0.00     0.001 A 
HETATM   24  C   UNK N   1      18.274  14.550  -0.082  0.00  0.00     0.000 A 
HETATM   25  C   UNK N   1      18.766  15.837  -0.312  0.00  0.00     0.001 A 
HETATM   26  C   UNK N   1      19.711  16.391   0.558  0.00  0.00     0.007 A 
ENDBRANCH  20  21
ENDBRANCH   9  20
ENDBRANCH   1   9
BRANCH   1  27
HETATM   27  C   UNK N   1      22.543  18.470   4.877  0.00  0.00     0.142 C 
BRANCH  27  28
HETATM   28  N   UNK N   1      23.863  18.124   4.316  0.00  0.00    -0.204 NA
BRANCH  28  29
HETATM   29  S   UNK N   1      24.357  16.486   4.789  0.00  0.00     0.243 S 
HETATM   30  O   UNK N   1      25.690  16.597   5.543  0.00  0.00    -0.206 OA
HETATM   31  O   UNK N   1      23.389  16.184   5.935  0.00  0.00    -0.206 OA
BRANCH  29  32
HETATM   32  C   UNK N   1      24.274  15.058   3.724  0.00  0.00     0.074 A 
HETATM   33  C   UNK N   1      24.968  15.004   2.512  0.00  0.00     0.027 A 
HETATM   34  C   UNK N   1      24.890  13.850   1.720  0.00  0.00     0.030 A 
HETATM   35  C   UNK N   1      24.126  12.757   2.145  0.00  0.00     0.025 A 
HETATM   36  C   UNK N   1      23.438  12.814   3.358  0.00  0.00     0.030 A 
HETATM   37  C   UNK N   1      23.514  13.961   4.145  0.00  0.00     0.027 A 
BRANCH  35  38
HETATM   38  N   UNK N   1      24.047  11.596   1.352  0.00  0.00    -0.399 N 
HETATM   39  H   UNK N   1      24.871  11.139   1.065  0.00  0.00     0.156 HD
HETATM   40  H   UNK N   1      23.169  11.241   1.085  0.00  0.00     0.156 HD
ENDBRANCH  35  38
ENDBRANCH  29  32
ENDBRANCH  28  29
BRANCH  28  41
HETATM   41  C   UNK N   1      24.906  19.084   4.664  0.00  0.00     0.111 C 
BRANCH  41  42
HETATM   42  C   UNK N   1      25.847  19.315   3.485  0.00  0.00    -0.009 C 
HETATM   43  C   UNK N   1      27.253  19.642   3.958  0.00  0.00     0.011 C 
HETATM   44  C   UNK N   1      25.333  20.477   2.660  0.00  0.00     0.011 C 
ENDBRANCH  41  42
ENDBRANCH  28  41
ENDBRANCH  27  28
ENDBRANCH   1  27
TORSDOF 17
ENDMDL
MODEL 3
REMARK VINA RESULT:      -6.9      2.627      7.290
REMARK  17 active torsions:
REMARK  status: ('A' for Active; 'I' for Inactive)
REMARK    1  A    between atoms: S_1  and  N_12 
REMARK    2  A    between atoms: S_1  and  C_23 
REMARK    3  A    between atoms: P_2  and  O_3 
REMARK    4  A    between atoms: P_2  and  O_8 
REMARK    5  A    between atoms: P_2  and  O_9 
REMARK    6  A    between atoms: C_15  and  O_3 
REMARK    7  A    between atoms: C_22  and  O_4 
REMARK    8  A    between atoms: O_4  and  C_27 
REMARK    9  A    between atoms: N_12  and  C_17 
REMARK   10  A    between atoms: N_12  and  C_18 
REMARK   11  A    between atoms: C_16  and  N_13 
REMARK       I    between atoms: N_13  and  C_27 
REMARK   12  A    between atoms: N_14  and  C_39 
REMARK   13  A    between atoms: C_15  and  C_16 
REMARK   14  A    between atoms: C_15  and  C_17 
REMARK   15  A    between atoms: C_16  and  C_19 
REMARK   16  A    between atoms: C_18  and  C_20 
REMARK   17  A    between atoms: C_19  and  C_21 
ROOT
HETATM    1  C   UNK N   1      21.058  16.039   7.323  0.00  0.00     0.171 C 
ENDROOT
BRANCH   1   2
HETATM    2  O   UNK N   1      20.720  16.806   8.472  0.00  0.00    -0.288 OA
BRANCH   2   3
HETATM    3  P   UNK N   1      19.053  17.356   8.332  0.00  0.00     0.391 P 
HETATM    4  O   UNK N   1      18.854  16.089   9.209  0.00  0.00    -0.632 OA
BRANCH   3   5
HETATM    5  O   UNK N   1      18.128  17.983   9.660  0.00  0.00    -0.307 OA
HETATM    6  H   UNK N   1      17.220  18.300   9.538  0.00  0.00     0.222 HD
ENDBRANCH   3   5
BRANCH   3   7
HETATM    7  O   UNK N   1      19.969  18.495   9.267  0.00  0.00    -0.307 OA
HETATM    8  H   UNK N   1      20.744  18.281   9.809  0.00  0.00     0.222 HD
ENDBRANCH   3   7
ENDBRANCH   2   3
ENDBRANCH   1   2
BRANCH   1   9
HETATM    9  C   UNK N   1      20.823  16.726   5.947  0.00  0.00     0.121 C 
BRANCH   9  10
HETATM   10  N   UNK N   1      20.492  15.717   4.968  0.00  0.00    -0.329 N 
HETATM   11  C   UNK N   1      19.256  15.444   4.509  0.00  0.00     0.361 C 
HETATM   12  O   UNK N   1      18.279  16.020   4.979  0.00  0.00    -0.238 OA
HETATM   13  H   UNK N   1      21.235  15.182   4.606  0.00  0.00     0.165 HD
BRANCH  11  14
HETATM   14  O   UNK N   1      19.123  14.535   3.507  0.00  0.00    -0.296 OA
BRANCH  14  15
HETATM   15  C   UNK N   1      19.535  14.643   2.186  0.00  0.00     0.159 C 
HETATM   16  C   UNK N   1      20.732  13.799   1.832  0.00  0.00     0.061 C 
HETATM   17  C   UNK N   1      21.846  14.815   1.681  0.00  0.00     0.170 C 
HETATM   18  O   UNK N   1      21.384  16.059   2.143  0.00  0.00    -0.389 OA
HETATM   19  C   UNK N   1      20.009  16.040   1.890  0.00  0.00     0.200 C 
ENDBRANCH  14  15
ENDBRANCH  11  14
ENDBRANCH   9  10
BRANCH   9  20
HETATM   20  C   UNK N   1      22.116  17.425   5.498  0.00  0.00     0.066 C 
BRANCH  20  21
HETATM   21  C   UNK N   1      21.967  18.525   4.480  0.00  0.00    -0.056 A 
HETATM   22  C   UNK N   1      20.715  19.057   4.127  0.00  0.00     0.007 A 
HETATM   23  C   UNK N   1      20.631  20.122   3.221  0.00  0.00     0.001 A 
HETATM   24  C   UNK N   1      21.793  20.650   2.650  0.00  0.00     0.000 A 
HETATM   25  C   UNK N   1      23.038  20.107   2.976  0.00  0.00     0.001 A 
HETATM   26  C   UNK N   1      23.124  19.052   3.889  0.00  0.00     0.007 A 
ENDBRANCH  20  21
ENDBRANCH   9  20
ENDBRANCH   1   9
BRANCH   1  27
HETATM   27  C   UNK N   1      22.349  15.206   7.466  0.00  0.00     0.142 C 
BRANCH  27  28
HETATM   28  N   UNK N   1      22.432  14.033   6.573  0.00  0.00    -0.204 NA
BRANCH  28  29
HETATM   29  S   UNK N   1      22.225  12.518   7.474  0.00  0.00     0.243 S 
HETATM   30  O   UNK N   1      20.869  11.918   7.076  0.00  0.00    -0.206 OA
HETATM   31  O   UNK N   1      23.191  11.583   6.742  0.00  0.00    -0.206 OA
BRANCH  29  32
HETATM   32  C   UNK N   1      22.600  12.312   9.204  0.00  0.00     0.074 A 
HETATM   33  C   UNK N   1      23.913  12.148   9.657  0.00  0.00     0.027 A 
HETATM   34  C   UNK N   1      24.159  12.014  11.030  0.00  0.00     0.030 A 
HETATM   35  C   UNK N   1      23.097  12.049  11.942  0.00  0.00     0.025 A 
HETATM   36  C   UNK N   1      21.789  12.217  11.485  0.00  0.00     0.030 A 
HETATM   37  C   UNK N   1      21.543  12.350  10.120  0.00  0.00     0.027 A 
BRANCH  35  38
HETATM   38  N   UNK N   1      23.343  11.916  13.322  0.00  0.00    -0.399 N 
HETATM   39  H   UNK N   1      23.231  11.041  13.759  0.00  0.00     0.156 HD
HETATM   40  H   UNK N   1      23.627  12.696  13.849  0.00  0.00     0.156 HD
ENDBRANCH  35  38
ENDBRANCH  29  32
ENDBRANCH  28  29
BRANCH  28  41
HETATM   41  C   UNK N   1      23.666  13.991   5.793  0.00  0.00     0.111 C 
BRANCH  41  42
HETATM   42  C   UNK N   1      24.699  14.960   6.361  0.00  0.00    -0.009 C 
HETATM   43  C   UNK N   1      25.398  15.731   5.254  0.00  0.00     0.011 C 
HETATM   44  C   UNK N   1      25.740  14.178   7.136  0.00  0.00     0.011 C 
ENDBRANCH  41  42
ENDBRANCH  28  41
ENDBRANCH  27  28
ENDBRANCH   1  27
TORSDOF 17
ENDMDL
MODEL 4
REMARK VINA RESULT:      -6.7      2.367      7.344
REMARK  17 active torsions:
REMARK  status: ('A' for Active; 'I' for Inactive)
REMARK    1  A    between atoms: S_1  and  N_12 
REMARK    2  A    between atoms: S_1  and  C_23 
REMARK    3  A    between atoms: P_2  and  O_3 
REMARK    4  A    between atoms: P_2  and  O_8 
REMARK    5  A    between atoms: P_2  and  O_9 
REMARK    6  A    between atoms: C_15  and  O_3 
REMARK    7  A    between atoms: C_22  and  O_4 
REMARK    8  A    between atoms: O_4  and  C_27 
REMARK    9  A    between atoms: N_12  and  C_17 
REMARK   10  A    between atoms: N_12  and  C_18 
REMARK   11  A    between atoms: C_16  and  N_13 
REMARK       I    between atoms: N_13  and  C_27 
REMARK   12  A    between atoms: N_14  and  C_39 
REMARK   13  A    between atoms: C_15  and  C_16 
REMARK   14  A    between atoms: C_15  and  C_17 
REMARK   15  A    between atoms: C_16  and  C_19 
REMARK   16  A    between atoms: C_18  and  C_20 
REMARK   17  A    between atoms: C_19  and  C_21 
ROOT
HETATM    1  C   UNK N   1      21.807  16.516   6.244  0.00  0.00     0.171 C 
ENDROOT
BRANCH   1   2
HETATM    2  O   UNK N   1      21.250  17.385   7.222  0.00  0.00    -0.288 OA
BRANCH   2   3
HETATM    3  P   UNK N   1      20.278  16.443   8.348  0.00  0.00     0.391 P 
HETATM    4  O   UNK N   1      20.013  17.877   8.884  0.00  0.00    -0.632 OA
BRANCH   3   5
HETATM    5  O   UNK N   1      18.545  16.488   8.400  0.00  0.00    -0.307 OA
HETATM    6  H   UNK N   1      18.053  16.148   9.163  0.00  0.00     0.222 HD
ENDBRANCH   3   5
BRANCH   3   7
HETATM    7  O   UNK N   1      19.590  16.348   6.759  0.00  0.00    -0.307 OA
HETATM    8  H   UNK N   1      19.727  15.623   6.130  0.00  0.00     0.222 HD
ENDBRANCH   3   7
ENDBRANCH   2   3
ENDBRANCH   1   2
BRANCH   1   9
HETATM    9  C   UNK N   1      22.265  17.181   4.914  0.00  0.00     0.121 C 
BRANCH   9  10
HETATM   10  N   UNK N   1      21.861  16.347   3.807  0.00  0.00    -0.329 N 
HETATM   11  C   UNK N   1      20.637  16.325   3.245  0.00  0.00     0.361 C 
HETATM   12  O   UNK N   1      19.726  16.998   3.719  0.00  0.00    -0.238 OA
HETATM   13  H   UNK N   1      22.539  15.740   3.431  0.00  0.00     0.165 HD
BRANCH  11  14
HETATM   14  O   UNK N   1      20.445  15.560   2.139  0.00  0.00    -0.296 OA
BRANCH  14  15
HETATM   15  C   UNK N   1      20.441  14.175   2.041  0.00  0.00     0.159 C 
HETATM   16  C   UNK N   1      20.457  13.647   0.629  0.00  0.00     0.061 C 
HETATM   17  C   UNK N   1      19.053  13.109   0.439  0.00  0.00     0.170 C 
HETATM   18  O   UNK N   1      18.266  13.516   1.530  0.00  0.00    -0.389 OA
HETATM   19  C   UNK N   1      19.165  13.607   2.598  0.00  0.00     0.200 C 
ENDBRANCH  14  15
ENDBRANCH  11  14
ENDBRANCH   9  10
BRANCH   9  20
HETATM   20  C   UNK N   1      23.798  17.291   4.900  0.00  0.00     0.066 C 
BRANCH  20  21
HETATM   21  C   UNK N   1      24.378  18.499   4.211  0.00  0.00    -0.056 A 
HETATM   22  C   UNK N   1      25.764  18.699   4.087  0.00  0.00     0.007 A 
HETATM   23  C   UNK N   1      26.256  19.806   3.383  0.00  0.00     0.001 A 
HETATM   24  C   UNK N   1      25.371  20.726   2.815  0.00  0.00     0.000 A 
HETATM   25  C   UNK N   1      23.993  20.547   2.959  0.00  0.00     0.001 A 
HETATM   26  C   UNK N   1      23.500  19.436   3.651  0.00  0.00     0.007 A 
ENDBRANCH  20  21
ENDBRANCH   9  20
ENDBRANCH   1   9
BRANCH   1  27
HETATM   27  C   UNK N   1      22.727  15.414   6.815  0.00  0.00     0.142 C 
BRANCH  27  28
HETATM   28  N   UNK N   1      22.609  14.102   6.149  0.00  0.00    -0.204 NA
BRANCH  28  29
HETATM   29  S   UNK N   1      21.674  12.959   7.134  0.00  0.00     0.243 S 
HETATM   30  O   UNK N   1      20.186  13.189   6.834  0.00  0.00    -0.206 OA
HETATM   31  O   UNK N   1      21.925  11.637   6.405  0.00  0.00    -0.206 OA
BRANCH  29  32
HETATM   32  C   UNK N   1      21.995  12.609   8.853  0.00  0.00     0.074 A 
HETATM   33  C   UNK N   1      21.004  12.752   9.829  0.00  0.00     0.027 A 
HETATM   34  C   UNK N   1      21.298  12.441  11.163  0.00  0.00     0.030 A 
HETATM   35  C   UNK N   1      22.575  11.987  11.515  0.00  0.00     0.025 A 
HETATM   36  C   UNK N   1      23.560  11.843  10.536  0.00  0.00     0.030 A 
HETATM   37  C   UNK N   1      23.268  12.152   9.209  0.00  0.00     0.027 A 
BRANCH  35  38
HETATM   38  N   UNK N   1      22.872  11.674  12.855  0.00  0.00    -0.399 N 
HETATM   39  H   UNK N   1      23.793  11.440  13.114  0.00  0.00     0.156 HD
HETATM   40  H   UNK N   1      22.160  11.688  13.534  0.00  0.00     0.156 HD
ENDBRANCH  35  38
ENDBRANCH  29  32
ENDBRANCH  28  29
BRANCH  28  41
HETATM   41  C   UNK N   1      23.900  13.521   5.792  0.00  0.00     0.111 C 
BRANCH  41  42
HETATM   42  C   UNK N   1      24.183  13.704   4.304  0.00  0.00    -0.009 C 
HETATM   43  C   UNK N   1      23.880  12.436   3.525  0.00  0.00     0.011 C 
HETATM   44  C   UNK N   1      25.646  14.048   4.116  0.00  0.00     0.011 C 
ENDBRANCH  41  42
ENDBRANCH  28  41
ENDBRANCH  27  28
ENDBRANCH   1  27
TORSDOF 17
ENDMDL
MODEL 5
REMARK VINA RESULT:      -6.6      3.062      5.109
REMARK  17 active torsions:
REMARK  status: ('A' for Active; 'I' for Inactive)
REMARK    1  A    between atoms: S_1  and  N_12 
REMARK    2  A    between atoms: S_1  and  C_23 
REMARK    3  A    between atoms: P_2  and  O_3 
REMARK    4  A    between atoms: P_2  and  O_8 
REMARK    5  A    between atoms: P_2  and  O_9 
REMARK    6  A    between atoms: C_15  and  O_3 
REMARK    7  A    between atoms: C_22  and  O_4 
REMARK    8  A    between atoms: O_4  and  C_27 
REMARK    9  A    between atoms: N_12  and  C_17 
REMARK   10  A    between atoms: N_12  and  C_18 
REMARK   11  A    between atoms: C_16  and  N_13 
REMARK       I    between atoms: N_13  and  C_27 
REMARK   12  A    between atoms: N_14  and  C_39 
REMARK   13  A    between atoms: C_15  and  C_16 
REMARK   14  A    between atoms: C_15  and  C_17 
REMARK   15  A    between atoms: C_16  and  C_19 
REMARK   16  A    between atoms: C_18  and  C_20 
REMARK   17  A    between atoms: C_19  and  C_21 
ROOT
HETATM    1  C   UNK N   1      22.452  18.424   4.393  0.00  0.00     0.171 C 
ENDROOT
BRANCH   1   2
HETATM    2  O   UNK N   1      22.123  19.803   4.279  0.00  0.00    -0.288 OA
BRANCH   2   3
HETATM    3  P   UNK N   1      21.301  20.078   2.746  0.00  0.00     0.391 P 
HETATM    4  O   UNK N   1      20.242  20.641   3.734  0.00  0.00    -0.632 OA
BRANCH   3   5
HETATM    5  O   UNK N   1      20.997  21.652   2.083  0.00  0.00    -0.307 OA
HETATM    6  H   UNK N   1      21.519  21.997   1.342  0.00  0.00     0.222 HD
ENDBRANCH   3   5
BRANCH   3   7
HETATM    7  O   UNK N   1      22.701  21.097   2.852  0.00  0.00    -0.307 OA
HETATM    8  H   UNK N   1      22.885  21.859   2.281  0.00  0.00     0.222 HD
ENDBRANCH   3   7
ENDBRANCH   2   3
ENDBRANCH   1   2
BRANCH   1   9
HETATM    9  C   UNK N   1      21.297  17.418   4.120  0.00  0.00     0.121 C 
BRANCH   9  10
HETATM   10  N   UNK N   1      20.922  16.784   5.362  0.00  0.00    -0.329 N 
HETATM   11  C   UNK N   1      19.705  16.286   5.654  0.00  0.00     0.361 C 
HETATM   12  O   UNK N   1      18.775  16.419   4.862  0.00  0.00    -0.238 OA
HETATM   13  H   UNK N   1      21.616  16.710   6.056  0.00  0.00     0.165 HD
BRANCH  11  14
HETATM   14  O   UNK N   1      19.540  15.623   6.828  0.00  0.00    -0.296 OA
BRANCH  14  15
HETATM   15  C   UNK N   1      20.119  15.898   8.061  0.00  0.00     0.159 C 
HETATM   16  C   UNK N   1      21.073  14.841   8.554  0.00  0.00     0.061 C 
HETATM   17  C   UNK N   1      20.310  14.180   9.684  0.00  0.00     0.170 C 
HETATM   18  O   UNK N   1      18.984  14.644   9.662  0.00  0.00    -0.389 OA
HETATM   19  C   UNK N   1      19.073  15.939   9.141  0.00  0.00     0.200 C 
ENDBRANCH  14  15
ENDBRANCH  11  14
ENDBRANCH   9  10
BRANCH   9  20
HETATM   20  C   UNK N   1      21.787  16.329   3.153  0.00  0.00     0.066 C 
BRANCH  20  21
HETATM   21  C   UNK N   1      20.799  15.854   2.119  0.00  0.00    -0.056 A 
HETATM   22  C   UNK N   1      20.269  14.553   2.127  0.00  0.00     0.007 A 
HETATM   23  C   UNK N   1      19.307  14.177   1.181  0.00  0.00     0.001 A 
HETATM   24  C   UNK N   1      18.881  15.091   0.213  0.00  0.00     0.000 A 
HETATM   25  C   UNK N   1      19.425  16.377   0.182  0.00  0.00     0.001 A 
HETATM   26  C   UNK N   1      20.377  16.757   1.133  0.00  0.00     0.007 A 
ENDBRANCH  20  21
ENDBRANCH   9  20
ENDBRANCH   1   9
BRANCH   1  27
HETATM   27  C   UNK N   1      23.840  18.048   3.831  0.00  0.00     0.142 C 
BRANCH  27  28
HETATM   28  N   UNK N   1      24.810  17.577   4.840  0.00  0.00    -0.204 NA
BRANCH  28  29
HETATM   29  S   UNK N   1      26.284  18.565   4.829  0.00  0.00     0.243 S 
HETATM   30  O   UNK N   1      26.430  19.175   3.427  0.00  0.00    -0.206 OA
HETATM   31  O   UNK N   1      25.850  19.787   5.643  0.00  0.00    -0.206 OA
BRANCH  29  32
HETATM   32  C   UNK N   1      27.841  18.065   5.539  0.00  0.00     0.074 A 
HETATM   33  C   UNK N   1      28.883  17.569   4.750  0.00  0.00     0.027 A 
HETATM   34  C   UNK N   1      30.097  17.211   5.351  0.00  0.00     0.030 A 
HETATM   35  C   UNK N   1      30.265  17.354   6.734  0.00  0.00     0.025 A 
HETATM   36  C   UNK N   1      29.224  17.853   7.517  0.00  0.00     0.030 A 
HETATM   37  C   UNK N   1      28.016  18.208   6.920  0.00  0.00     0.027 A 
BRANCH  35  38
HETATM   38  N   UNK N   1      31.484  16.996   7.340  0.00  0.00    -0.399 N 
HETATM   39  H   UNK N   1      31.726  17.369   8.219  0.00  0.00     0.156 HD
HETATM   40  H   UNK N   1      32.096  16.373   6.886  0.00  0.00     0.156 HD
ENDBRANCH  35  38
ENDBRANCH  29  32
ENDBRANCH  28  29
BRANCH  28  41
HETATM   41  C   UNK N   1      25.149  16.164   4.695  0.00  0.00     0.111 C 
BRANCH  41  42
HETATM   42  C   UNK N   1      25.214  15.480   6.058  0.00  0.00    -0.009 C 
HETATM   43  C   UNK N   1      26.366  14.492   6.123  0.00  0.00     0.011 C 
HETATM   44  C   UNK N   1      23.920  14.731   6.300  0.00  0.00     0.011 C 
ENDBRANCH  41  42
ENDBRANCH  28  41
ENDBRANCH  27  28
ENDBRANCH   1  27
TORSDOF 17
ENDMDL
MODEL 6
REMARK VINA RESULT:      -6.6      2.465      4.081
REMARK  17 active torsions:
REMARK  status: ('A' for Active; 'I' for Inactive)
REMARK    1  A    between atoms: S_1  and  N_12 
REMARK    2  A    between atoms: S_1  and  C_23 
REMARK    3  A    between atoms: P_2  and  O_3 
REMARK    4  A    between atoms: P_2  and  O_8 
REMARK    5  A    between atoms: P_2  and  O_9 
REMARK    6  A    between atoms: C_15  and  O_3 
REMARK    7  A    between atoms: C_22  and  O_4 
REMARK    8  A    between atoms: O_4  and  C_27 
REMARK    9  A    between atoms: N_12  and  C_17 
REMARK   10  A    between atoms: N_12  and  C_18 
REMARK   11  A    between atoms: C_16  and  N_13 
REMARK       I    between atoms: N_13  and  C_27 
REMARK   12  A    between atoms: N_14  and  C_39 
REMARK   13  A    between atoms: C_15  and  C_16 
REMARK   14  A    between atoms: C_15  and  C_17 
REMARK   15  A    between atoms: C_16  and  C_19 
REMARK   16  A    between atoms: C_18  and  C_20 
REMARK   17  A    between atoms: C_19  and  C_21 
ROOT
HETATM    1  C   UNK N   1      21.793  16.012   5.632  0.00  0.00     0.171 C 
ENDROOT
BRANCH   1   2
HETATM    2  O   UNK N   1      21.863  16.967   6.683  0.00  0.00    -0.288 OA
BRANCH   2   3
HETATM    3  P   UNK N   1      20.259  17.181   7.378  0.00  0.00     0.391 P 
HETATM    4  O   UNK N   1      20.992  16.511   8.573  0.00  0.00    -0.632 OA
BRANCH   3   5
HETATM    5  O   UNK N   1      19.907  18.280   8.674  0.00  0.00    -0.307 OA
HETATM    6  H   UNK N   1      19.784  17.967   9.583  0.00  0.00     0.222 HD
ENDBRANCH   3   5
BRANCH   3   7
HETATM    7  O   UNK N   1      20.997  18.730   7.120  0.00  0.00    -0.307 OA
HETATM    8  H   UNK N   1      21.222  19.367   7.816  0.00  0.00     0.222 HD
ENDBRANCH   3   7
ENDBRANCH   2   3
ENDBRANCH   1   2
BRANCH   1   9
HETATM    9  C   UNK N   1      22.663  14.734   5.807  0.00  0.00     0.121 C 
BRANCH   9  10
HETATM   10  N   UNK N   1      22.327  14.105   7.062  0.00  0.00    -0.329 N 
HETATM   11  C   UNK N   1      21.863  12.850   7.212  0.00  0.00     0.361 C 
HETATM   12  O   UNK N   1      21.615  12.159   6.227  0.00  0.00    -0.238 OA
HETATM   13  H   UNK N   1      22.448  14.640   7.879  0.00  0.00     0.165 HD
BRANCH  11  14
HETATM   14  O   UNK N   1      21.695  12.367   8.471  0.00  0.00    -0.296 OA
BRANCH  14  15
HETATM   15  C   UNK N   1      21.814  13.045   9.677  0.00  0.00     0.159 C 
HETATM   16  C   UNK N   1      22.232  12.185  10.841  0.00  0.00     0.061 C 
HETATM   17  C   UNK N   1      20.967  12.073  11.667  0.00  0.00     0.170 C 
HETATM   18  O   UNK N   1      19.897  12.600  10.923  0.00  0.00    -0.389 OA
HETATM   19  C   UNK N   1      20.480  13.583  10.117  0.00  0.00     0.200 C 
ENDBRANCH  14  15
ENDBRANCH  11  14
ENDBRANCH   9  10
BRANCH   9  20
HETATM   20  C   UNK N   1      24.148  15.130   5.850  0.00  0.00     0.066 C 
BRANCH  20  21
HETATM   21  C   UNK N   1      24.920  14.981   4.564  0.00  0.00    -0.056 A 
HETATM   22  C   UNK N   1      24.756  15.864   3.483  0.00  0.00     0.007 A 
HETATM   23  C   UNK N   1      25.542  15.722   2.332  0.00  0.00     0.001 A 
HETATM   24  C   UNK N   1      26.481  14.690   2.246  0.00  0.00     0.000 A 
HETATM   25  C   UNK N   1      26.629  13.793   3.307  0.00  0.00     0.001 A 
HETATM   26  C   UNK N   1      25.853  13.941   4.461  0.00  0.00     0.007 A 
ENDBRANCH  20  21
ENDBRANCH   9  20
ENDBRANCH   1   9
BRANCH   1  27
HETATM   27  C   UNK N   1      20.381  15.809   5.043  0.00  0.00     0.142 C 
BRANCH  27  28
HETATM   28  N   UNK N   1      20.212  16.290   3.657  0.00  0.00    -0.204 NA
BRANCH  28  29
HETATM   29  S   UNK N   1      20.184  14.942   2.503  0.00  0.00     0.243 S 
HETATM   30  O   UNK N   1      18.948  14.085   2.813  0.00  0.00    -0.206 OA
HETATM   31  O   UNK N   1      19.748  15.641   1.214  0.00  0.00    -0.206 OA
BRANCH  29  32
HETATM   32  C   UNK N   1      21.610  13.974   2.047  0.00  0.00     0.074 A 
HETATM   33  C   UNK N   1      22.098  12.952   2.866  0.00  0.00     0.027 A 
HETATM   34  C   UNK N   1      23.207  12.203   2.452  0.00  0.00     0.030 A 
HETATM   35  C   UNK N   1      23.819  12.474   1.222  0.00  0.00     0.025 A 
HETATM   36  C   UNK N   1      23.327  13.492   0.406  0.00  0.00     0.030 A 
HETATM   37  C   UNK N   1      22.224  14.238   0.817  0.00  0.00     0.027 A 
BRANCH  35  38
HETATM   38  N   UNK N   1      24.934  11.722   0.804  0.00  0.00    -0.399 N 
HETATM   39  H   UNK N   1      24.808  10.816   0.440  0.00  0.00     0.156 HD
HETATM   40  H   UNK N   1      25.839  12.102   0.875  0.00  0.00     0.156 HD
ENDBRANCH  35  38
ENDBRANCH  29  32
ENDBRANCH  28  29
BRANCH  28  41
HETATM   41  C   UNK N   1      21.219  17.271   3.263  0.00  0.00     0.111 C 
BRANCH  41  42
HETATM   42  C   UNK N   1      20.726  18.691   3.527  0.00  0.00    -0.009 C 
HETATM   43  C   UNK N   1      19.547  19.039   2.635  0.00  0.00     0.011 C 
HETATM   44  C   UNK N   1      21.850  19.667   3.245  0.00  0.00     0.011 C 
ENDBRANCH  41  42
ENDBRANCH  28  41
ENDBRANCH  27  28
ENDBRANCH   1  27
TORSDOF 17
ENDMDL
MODEL 7
REMARK VINA RESULT:      -6.6      2.850      7.604
REMARK  17 active torsions:
REMARK  status: ('A' for Active; 'I' for Inactive)
REMARK    1  A    between atoms: S_1  and  N_12 
REMARK    2  A    between atoms: S_1  and  C_23 
REMARK    3  A    between atoms: P_2  and  O_3 
REMARK    4  A    between atoms: P_2  and  O_8 
REMARK    5  A    between atoms: P_2  and  O_9 
REMARK    6  A    between atoms: C_15  and  O_3 
REMARK    7  A    between atoms: C_22  and  O_4 
REMARK    8  A    between atoms: O_4  and  C_27 
REMARK    9  A    between atoms: N_12  and  C_17 
REMARK   10  A    between atoms: N_12  and  C_18 
REMARK   11  A    between atoms: C_16  and  N_13 
REMARK       I    between atoms: N_13  and  C_27 
REMARK   12  A    between atoms: N_14  and  C_39 
REMARK   13  A    between atoms: C_15  and  C_16 
REMARK   14  A    between atoms: C_15  and  C_17 
REMARK   15  A    between atoms: C_16  and  C_19 
REMARK   16  A    between atoms: C_18  and  C_20 
REMARK   17  A    between atoms: C_19  and  C_21 
ROOT
HETATM    1  C   UNK N   1      22.079  15.868   6.085  0.00  0.00     0.171 C 
ENDROOT
BRANCH   1   2
HETATM    2  O   UNK N   1      20.845  16.320   6.627  0.00  0.00    -0.288 OA
BRANCH   2   3
HETATM    3  P   UNK N   1      20.729  15.812   8.309  0.00  0.00     0.391 P 
HETATM    4  O   UNK N   1      20.231  17.279   8.428  0.00  0.00    -0.632 OA
BRANCH   3   5
HETATM    5  O   UNK N   1      19.228  15.612   9.156  0.00  0.00    -0.307 OA
HETATM    6  H   UNK N   1      18.502  16.247   9.056  0.00  0.00     0.222 HD
ENDBRANCH   3   5
BRANCH   3   7
HETATM    7  O   UNK N   1      19.567  14.947   7.354  0.00  0.00    -0.307 OA
HETATM    8  H   UNK N   1      19.086  15.308   6.594  0.00  0.00     0.222 HD
ENDBRANCH   3   7
ENDBRANCH   2   3
ENDBRANCH   1   2
BRANCH   1   9
HETATM    9  C   UNK N   1      22.835  16.871   5.168  0.00  0.00     0.121 C 
BRANCH   9  10
HETATM   10  N   UNK N   1      24.211  16.954   5.595  0.00  0.00    -0.329 N 
HETATM   11  C   UNK N   1      25.270  17.187   4.795  0.00  0.00     0.361 C 
HETATM   12  O   UNK N   1      25.120  17.271   3.579  0.00  0.00    -0.238 OA
HETATM   13  H   UNK N   1      24.392  16.829   6.555  0.00  0.00     0.165 HD
BRANCH  11  14
HETATM   14  O   UNK N   1      26.493  17.342   5.367  0.00  0.00    -0.296 OA
BRANCH  14  15
HETATM   15  C   UNK N   1      27.153  18.523   5.680  0.00  0.00     0.159 C 
HETATM   16  C   UNK N   1      26.281  19.753   5.654  0.00  0.00     0.061 C 
HETATM   17  C   UNK N   1      26.739  20.481   4.406  0.00  0.00     0.170 C 
HETATM   18  O   UNK N   1      27.592  19.632   3.680  0.00  0.00    -0.389 OA
HETATM   19  C   UNK N   1      28.204  18.834   4.651  0.00  0.00     0.200 C 
ENDBRANCH  14  15
ENDBRANCH  11  14
ENDBRANCH   9  10
BRANCH   9  20
HETATM   20  C   UNK N   1      22.203  18.265   5.307  0.00  0.00     0.066 C 
BRANCH  20  21
HETATM   21  C   UNK N   1      21.688  18.899   4.041  0.00  0.00    -0.056 A 
HETATM   22  C   UNK N   1      22.431  19.848   3.319  0.00  0.00     0.007 A 
HETATM   23  C   UNK N   1      21.937  20.362   2.114  0.00  0.00     0.001 A 
HETATM   24  C   UNK N   1      20.692  19.948   1.632  0.00  0.00     0.000 A 
HETATM   25  C   UNK N   1      19.936  19.026   2.360  0.00  0.00     0.001 A 
HETATM   26  C   UNK N   1      20.433  18.503   3.557  0.00  0.00     0.007 A 
ENDBRANCH  20  21
ENDBRANCH   9  20
ENDBRANCH   1   9
BRANCH   1  27
HETATM   27  C   UNK N   1      22.943  15.042   7.062  0.00  0.00     0.142 C 
BRANCH  27  28
HETATM   28  N   UNK N   1      23.303  13.693   6.583  0.00  0.00    -0.204 NA
BRANCH  28  29
HETATM   29  S   UNK N   1      22.558  12.430   7.584  0.00  0.00     0.243 S 
HETATM   30  O   UNK N   1      21.102  12.265   7.122  0.00  0.00    -0.206 OA
HETATM   31  O   UNK N   1      23.197  11.161   7.016  0.00  0.00    -0.206 OA
BRANCH  29  32
HETATM   32  C   UNK N   1      22.750  12.297   9.351  0.00  0.00     0.074 A 
HETATM   33  C   UNK N   1      21.652  12.331  10.214  0.00  0.00     0.027 A 
HETATM   34  C   UNK N   1      21.852  12.198  11.595  0.00  0.00     0.030 A 
HETATM   35  C   UNK N   1      23.145  12.027  12.104  0.00  0.00     0.025 A 
HETATM   36  C   UNK N   1      24.239  11.990  11.238  0.00  0.00     0.030 A 
HETATM   37  C   UNK N   1      24.040  12.123   9.865  0.00  0.00     0.027 A 
BRANCH  35  38
HETATM   38  N   UNK N   1      23.349  11.893  13.491  0.00  0.00    -0.399 N 
HETATM   39  H   UNK N   1      23.898  12.551  13.974  0.00  0.00     0.156 HD
HETATM   40  H   UNK N   1      22.942  11.140  13.978  0.00  0.00     0.156 HD
ENDBRANCH  35  38
ENDBRANCH  29  32
ENDBRANCH  28  29
BRANCH  28  41
HETATM   41  C   UNK N   1      24.745  13.480   6.495  0.00  0.00     0.111 C 
BRANCH  41  42
HETATM   42  C   UNK N   1      25.191  13.382   5.039  0.00  0.00    -0.009 C 
HETATM   43  C   UNK N   1      23.998  13.304   4.102  0.00  0.00     0.011 C 
HETATM   44  C   UNK N   1      26.029  12.133   4.860  0.00  0.00     0.011 C 
ENDBRANCH  41  42
ENDBRANCH  28  41
ENDBRANCH  27  28
ENDBRANCH   1  27
TORSDOF 17
ENDMDL
MODEL 8
REMARK VINA RESULT:      -6.5      2.578      4.946
REMARK  17 active torsions:
REMARK  status: ('A' for Active; 'I' for Inactive)
REMARK    1  A    between atoms: S_1  and  N_12 
REMARK    2  A    between atoms: S_1  and  C_23 
REMARK    3  A    between atoms: P_2  and  O_3 
REMARK    4  A    between atoms: P_2  and  O_8 
REMARK    5  A    between atoms: P_2  and  O_9 
REMARK    6  A    between atoms: C_15  and  O_3 
REMARK    7  A    between atoms: C_22  and  O_4 
REMARK    8  A    between atoms: O_4  and  C_27 
REMARK    9  A    between atoms: N_12  and  C_17 
REMARK   10  A    between atoms: N_12  and  C_18 
REMARK   11  A    between atoms: C_16  and  N_13 
REMARK       I    between atoms: N_13  and  C_27 
REMARK   12  A    between atoms: N_14  and  C_39 
REMARK   13  A    between atoms: C_15  and  C_16 
REMARK   14  A    between atoms: C_15  and  C_17 
REMARK   15  A    between atoms: C_16  and  C_19 
REMARK   16  A    between atoms: C_18  and  C_20 
REMARK   17  A    between atoms: C_19  and  C_21 
ROOT
HETATM    1  C   UNK N   1      21.605  18.222   3.932  0.00  0.00     0.171 C 
ENDROOT
BRANCH   1   2
HETATM    2  O   UNK N   1      21.788  18.978   2.742  0.00  0.00    -0.288 OA
BRANCH   2   3
HETATM    3  P   UNK N   1      20.795  20.430   2.819  0.00  0.00     0.391 P 
HETATM    4  O   UNK N   1      22.213  21.062   2.851  0.00  0.00    -0.632 OA
BRANCH   3   5
HETATM    5  O   UNK N   1      20.692  21.599   1.541  0.00  0.00    -0.307 OA
HETATM    6  H   UNK N   1      20.127  21.453   0.767  0.00  0.00     0.222 HD
ENDBRANCH   3   5
BRANCH   3   7
HETATM    7  O   UNK N   1      20.601  19.669   1.272  0.00  0.00    -0.307 OA
HETATM    8  H   UNK N   1      20.379  18.737   1.129  0.00  0.00     0.222 HD
ENDBRANCH   3   7
ENDBRANCH   2   3
ENDBRANCH   1   2
BRANCH   1   9
HETATM    9  C   UNK N   1      20.984  16.806   3.756  0.00  0.00     0.121 C 
BRANCH   9  10
HETATM   10  N   UNK N   1      21.477  15.943   4.803  0.00  0.00    -0.329 N 
HETATM   11  C   UNK N   1      20.747  15.447   5.821  0.00  0.00     0.361 C 
HETATM   12  O   UNK N   1      19.574  15.781   5.963  0.00  0.00    -0.238 OA
HETATM   13  H   UNK N   1      22.429  15.696   4.771  0.00  0.00     0.165 HD
BRANCH  11  14
HETATM   14  O   UNK N   1      21.334  14.560   6.667  0.00  0.00    -0.296 OA
BRANCH  14  15
HETATM   15  C   UNK N   1      20.751  13.850   7.709  0.00  0.00     0.159 C 
HETATM   16  C   UNK N   1      20.823  14.534   9.050  0.00  0.00     0.061 C 
HETATM   17  C   UNK N   1      21.850  13.717   9.807  0.00  0.00     0.170 C 
HETATM   18  O   UNK N   1      22.468  12.830   8.908  0.00  0.00    -0.389 OA
HETATM   19  C   UNK N   1      21.487  12.560   7.949  0.00  0.00     0.200 C 
ENDBRANCH  14  15
ENDBRANCH  11  14
ENDBRANCH   9  10
BRANCH   9  20
HETATM   20  C   UNK N   1      21.422  16.221   2.404  0.00  0.00     0.066 C 
BRANCH  20  21
HETATM   21  C   UNK N   1      20.337  15.619   1.550  0.00  0.00    -0.056 A 
HETATM   22  C   UNK N   1      19.837  14.324   1.771  0.00  0.00     0.007 A 
HETATM   23  C   UNK N   1      18.785  13.831   0.989  0.00  0.00     0.001 A 
HETATM   24  C   UNK N   1      18.238  14.618  -0.028  0.00  0.00     0.000 A 
HETATM   25  C   UNK N   1      18.749  15.896  -0.271  0.00  0.00     0.001 A 
HETATM   26  C   UNK N   1      19.792  16.393   0.516  0.00  0.00     0.007 A 
ENDBRANCH  20  21
ENDBRANCH   9  20
ENDBRANCH   1   9
BRANCH   1  27
HETATM   27  C   UNK N   1      22.754  18.348   4.954  0.00  0.00     0.142 C 
BRANCH  27  28
HETATM   28  N   UNK N   1      24.109  18.207   4.385  0.00  0.00    -0.204 NA
BRANCH  28  29
HETATM   29  S   UNK N   1      24.900  16.725   4.957  0.00  0.00     0.243 S 
HETATM   30  O   UNK N   1      24.088  16.189   6.146  0.00  0.00    -0.206 OA
HETATM   31  O   UNK N   1      24.523  15.724   3.863  0.00  0.00    -0.206 OA
BRANCH  29  32
HETATM   32  C   UNK N   1      26.660  16.537   5.172  0.00  0.00     0.074 A 
HETATM   33  C   UNK N   1      27.282  16.788   6.398  0.00  0.00     0.027 A 
HETATM   34  C   UNK N   1      28.665  16.603   6.524  0.00  0.00     0.030 A 
HETATM   35  C   UNK N   1      29.418  16.164   5.427  0.00  0.00     0.025 A 
HETATM   36  C   UNK N   1      28.792  15.912   4.206  0.00  0.00     0.030 A 
HETATM   37  C   UNK N   1      27.417  16.096   4.080  0.00  0.00     0.027 A 
BRANCH  35  38
HETATM   38  N   UNK N   1      30.808  15.977   5.551  0.00  0.00    -0.399 N 
HETATM   39  H   UNK N   1      31.410  16.756   5.575  0.00  0.00     0.156 HD
HETATM   40  H   UNK N   1      31.178  15.067   5.614  0.00  0.00     0.156 HD
ENDBRANCH  35  38
ENDBRANCH  29  32
ENDBRANCH  28  29
BRANCH  28  41
HETATM   41  C   UNK N   1      24.963  19.364   4.639  0.00  0.00     0.111 C 
BRANCH  41  42
HETATM   42  C   UNK N   1      26.001  19.525   3.533  0.00  0.00    -0.009 C 
HETATM   43  C   UNK N   1      27.348  19.941   4.099  0.00  0.00     0.011 C 
HETATM   44  C   UNK N   1      25.534  20.592   2.565  0.00  0.00     0.011 C 
ENDBRANCH  41  42
ENDBRANCH  28  41
ENDBRANCH  27  28
ENDBRANCH   1  27
TORSDOF 17
ENDMDL
MODEL 9
REMARK VINA RESULT:      -6.4      2.444      7.454
REMARK  17 active torsions:
REMARK  status: ('A' for Active; 'I' for Inactive)
REMARK    1  A    between atoms: S_1  and  N_12 
REMARK    2  A    between atoms: S_1  and  C_23 
REMARK    3  A    between atoms: P_2  and  O_3 
REMARK    4  A    between atoms: P_2  and  O_8 
REMARK    5  A    between atoms: P_2  and  O_9 
REMARK    6  A    between atoms: C_15  and  O_3 
REMARK    7  A    between atoms: C_22  and  O_4 
REMARK    8  A    between atoms: O_4  and  C_27 
REMARK    9  A    between atoms: N_12  and  C_17 
REMARK   10  A    between atoms: N_12  and  C_18 
REMARK   11  A    between atoms: C_16  and  N_13 
REMARK       I    between atoms: N_13  and  C_27 
REMARK   12  A    between atoms: N_14  and  C_39 
REMARK   13  A    between atoms: C_15  and  C_16 
REMARK   14  A    between atoms: C_15  and  C_17 
REMARK   15  A    between atoms: C_16  and  C_19 
REMARK   16  A    between atoms: C_18  and  C_20 
REMARK   17  A    between atoms: C_19  and  C_21 
ROOT
HETATM    1  C   UNK N   1      22.554  16.470   5.635  0.00  0.00     0.171 C 
ENDROOT
BRANCH   1   2
HETATM    2  O   UNK N   1      22.178  17.360   6.678  0.00  0.00    -0.288 OA
BRANCH   2   3
HETATM    3  P   UNK N   1      20.486  17.092   7.087  0.00  0.00     0.391 P 
HETATM    4  O   UNK N   1      21.177  16.362   8.271  0.00  0.00    -0.632 OA
BRANCH   3   5
HETATM    5  O   UNK N   1      19.698  17.810   8.456  0.00  0.00    -0.307 OA
HETATM    6  H   UNK N   1      20.106  18.537   8.950  0.00  0.00     0.222 HD
ENDBRANCH   3   5
BRANCH   3   7
HETATM    7  O   UNK N   1      20.862  18.780   7.228  0.00  0.00    -0.307 OA
HETATM    8  H   UNK N   1      20.626  19.463   6.582  0.00  0.00     0.222 HD
ENDBRANCH   3   7
ENDBRANCH   2   3
ENDBRANCH   1   2
BRANCH   1   9
HETATM    9  C   UNK N   1      22.685  17.093   4.215  0.00  0.00     0.121 C 
BRANCH   9  10
HETATM   10  N   UNK N   1      21.790  16.405   3.316  0.00  0.00    -0.329 N 
HETATM   11  C   UNK N   1      20.551  16.812   2.977  0.00  0.00     0.361 C 
HETATM   12  O   UNK N   1      20.061  17.808   3.503  0.00  0.00    -0.238 OA
HETATM   13  H   UNK N   1      22.112  15.566   2.915  0.00  0.00     0.165 HD
BRANCH  11  14
HETATM   14  O   UNK N   1      19.873  16.109   2.033  0.00  0.00    -0.296 OA
BRANCH  14  15
HETATM   15  C   UNK N   1      20.133  14.828   1.561  0.00  0.00     0.159 C 
HETATM   16  C   UNK N   1      19.409  14.471   0.288  0.00  0.00     0.061 C 
HETATM   17  C   UNK N   1      18.354  13.486   0.749  0.00  0.00     0.170 C 
HETATM   18  O   UNK N   1      18.327  13.483   2.155  0.00  0.00    -0.389 OA
HETATM   19  C   UNK N   1      19.637  13.793   2.533  0.00  0.00     0.200 C 
ENDBRANCH  14  15
ENDBRANCH  11  14
ENDBRANCH   9  10
BRANCH   9  20
HETATM   20  C   UNK N   1      24.122  16.900   3.705  0.00  0.00     0.066 C 
BRANCH  20  21
HETATM   21  C   UNK N   1      25.022  18.107   3.758  0.00  0.00    -0.056 A 
HETATM   22  C   UNK N   1      26.406  18.004   3.979  0.00  0.00     0.007 A 
HETATM   23  C   UNK N   1      27.211  19.149   3.958  0.00  0.00     0.001 A 
HETATM   24  C   UNK N   1      26.639  20.405   3.734  0.00  0.00     0.000 A 
HETATM   25  C   UNK N   1      25.260  20.517   3.541  0.00  0.00     0.001 A 
HETATM   26  C   UNK N   1      24.456  19.373   3.550  0.00  0.00     0.007 A 
ENDBRANCH  20  21
ENDBRANCH   9  20
ENDBRANCH   1   9
BRANCH   1  27
HETATM   27  C   UNK N   1      23.625  15.432   6.034  0.00  0.00     0.142 C 
BRANCH  27  28
HETATM   28  N   UNK N   1      23.092  14.117   6.440  0.00  0.00    -0.204 NA
BRANCH  28  29
HETATM   29  S   UNK N   1      24.173  13.309   7.593  0.00  0.00     0.243 S 
HETATM   30  O   UNK N   1      24.947  12.225   6.830  0.00  0.00    -0.206 OA
HETATM   31  O   UNK N   1      25.261  14.366   7.797  0.00  0.00    -0.206 OA
BRANCH  29  32
HETATM   32  C   UNK N   1      23.701  12.806   9.237  0.00  0.00     0.074 A 
HETATM   33  C   UNK N   1      22.360  12.690   9.614  0.00  0.00     0.027 A 
HETATM   34  C   UNK N   1      22.040  12.267  10.911  0.00  0.00     0.030 A 
HETATM   35  C   UNK N   1      23.058  11.959  11.821  0.00  0.00     0.025 A 
HETATM   36  C   UNK N   1      24.395  12.072  11.440  0.00  0.00     0.030 A 
HETATM   37  C   UNK N   1      24.715  12.493  10.150  0.00  0.00     0.027 A 
BRANCH  35  38
HETATM   38  N   UNK N   1      22.738  11.533  13.125  0.00  0.00    -0.399 N 
HETATM   39  H   UNK N   1      23.000  12.081  13.900  0.00  0.00     0.156 HD
HETATM   40  H   UNK N   1      22.253  10.688  13.262  0.00  0.00     0.156 HD
ENDBRANCH  35  38
ENDBRANCH  29  32
ENDBRANCH  28  29
BRANCH  28  41
HETATM   41  C   UNK N   1      22.814  13.236   5.309  0.00  0.00     0.111 C 
BRANCH  41  42
HETATM   42  C   UNK N   1      21.458  12.555   5.472  0.00  0.00    -0.009 C 
HETATM   43  C   UNK N   1      20.571  13.320   6.440  0.00  0.00     0.011 C 
HETATM   44  C   UNK N   1      21.667  11.155   6.011  0.00  0.00     0.011 C 
ENDBRANCH  41  42
ENDBRANCH  28  41
ENDBRANCH  27  28
ENDBRANCH   1  27
TORSDOF 17
ENDMDL
