MODEL 1
REMARK VINA RESULT:      -7.8      0.000      0.000
REMARK  7 active torsions:
REMARK  status: ('A' for Active; 'I' for Inactive)
REMARK    1  A    between atoms: P_1  and  O_3 
REMARK    2  A    between atoms: P_1  and  O_5 
REMARK    3  A    between atoms: P_1  and  O_6 
REMARK    4  A    between atoms: O_3  and  C_15 
REMARK    5  A    between atoms: N_9  and  C_15 
REMARK    6  A    between atoms: C_10  and  C_12 
REMARK    7  A    between atoms: C_10  and  C_13 
ROOT
HETATM    1  O   UNK N   1      32.991  15.221   8.769  0.00  0.00    -0.269 OA
HETATM    2  O   UNK N   1      35.352  18.995   8.564  0.00  0.00    -0.247 OA
HETATM    3  N   UNK N   1      33.422  18.435   7.533  0.00  0.00    -0.316 N 
HETATM    4  N   UNK N   1      34.405  16.977   8.914  0.00  0.00    -0.244 N 
HETATM    5  C   UNK N   1      32.575  17.244   7.455  0.00  0.00     0.171 A 
HETATM    6  C   UNK N   1      33.308  16.359   8.453  0.00  0.00     0.267 A 
HETATM    7  C   UNK N   1      34.455  18.192   8.361  0.00  0.00     0.328 A 
HETATM    8  H   UNK N   1      33.261  19.280   7.055  0.00  0.00     0.166 HD
ENDROOT
BRANCH   5   9
HETATM    9  C   UNK N   1      31.134  17.506   7.856  0.00  0.00    -0.016 A 
HETATM   10  C   UNK N   1      30.061  16.919   7.166  0.00  0.00     0.010 A 
HETATM   11  C   UNK N   1      28.746  17.129   7.597  0.00  0.00     0.001 A 
HETATM   12  C   UNK N   1      28.494  17.918   8.723  0.00  0.00     0.000 A 
HETATM   13  C   UNK N   1      29.555  18.507   9.415  0.00  0.00     0.001 A 
HETATM   14  C   UNK N   1      30.867  18.301   8.985  0.00  0.00     0.010 A 
ENDBRANCH   5   9
BRANCH   5  15
HETATM   15  C   UNK N   1      32.630  16.707   6.038  0.00  0.00    -0.016 A 
HETATM   16  C   UNK N   1      32.722  17.605   4.962  0.00  0.00     0.010 A 
HETATM   17  C   UNK N   1      32.801  17.131   3.652  0.00  0.00     0.001 A 
HETATM   18  C   UNK N   1      32.789  15.757   3.403  0.00  0.00     0.000 A 
HETATM   19  C   UNK N   1      32.698  14.854   4.465  0.00  0.00     0.001 A 
HETATM   20  C   UNK N   1      32.620  15.327   5.776  0.00  0.00     0.010 A 
ENDBRANCH   5  15
BRANCH   4  21
HETATM   21  C   UNK N   1      35.396  16.402   9.795  0.00  0.00     0.319 C 
BRANCH  21  22
HETATM   22  O   UNK N   1      34.929  16.382  11.109  0.00  0.00    -0.277 OA
BRANCH  22  23
HETATM   23  P   UNK N   1      35.516  14.888  11.782  0.00  0.00     0.392 P 
HETATM   24  O   UNK N   1      36.446  14.239  10.722  0.00  0.00    -0.632 OA
BRANCH  23  25
HETATM   25  O   UNK N   1      34.247  13.749  12.121  0.00  0.00    -0.307 OA
HETATM   26  H   UNK N   1      34.240  12.841  11.778  0.00  0.00     0.222 HD
ENDBRANCH  23  25
BRANCH  23  27
HETATM   27  O   UNK N   1      36.481  15.168  13.197  0.00  0.00    -0.307 OA
HETATM   28  H   UNK N   1      36.099  15.428  14.049  0.00  0.00     0.222 HD
ENDBRANCH  23  27
ENDBRANCH  22  23
ENDBRANCH  21  22
ENDBRANCH   4  21
TORSDOF 7
ENDMDL
MODEL 2
REMARK VINA RESULT:      -7.6      3.291      5.041
REMARK  7 active torsions:
REMARK  status: ('A' for Active; 'I' for Inactive)
REMARK    1  A    between atoms: P_1  and  O_3 
REMARK    2  A    between atoms: P_1  and  O_5 
REMARK    3  A    between atoms: P_1  and  O_6 
REMARK    4  A    between atoms: O_3  and  C_15 
REMARK    5  A    between atoms: N_9  and  C_15 
REMARK    6  A    between atoms: C_10  and  C_12 
REMARK    7  A    between atoms: C_10  and  C_13 
ROOT
HETATM    1  O   UNK N   1      29.248  17.603   8.449  0.00  0.00    -0.269 OA
HETATM    2  O   UNK N   1      32.247  16.717   5.274  0.00  0.00    -0.247 OA
HETATM    3  N   UNK N   1      30.033  17.130   5.102  0.00  0.00    -0.316 N 
HETATM    4  N   UNK N   1      31.013  17.155   7.112  0.00  0.00    -0.244 N 
HETATM    5  C   UNK N   1      28.930  17.375   6.033  0.00  0.00     0.171 A 
HETATM    6  C   UNK N   1      29.717  17.415   7.335  0.00  0.00     0.267 A 
HETATM    7  C   UNK N   1      31.178  16.989   5.796  0.00  0.00     0.328 A 
HETATM    8  H   UNK N   1      29.950  17.077   4.123  0.00  0.00     0.166 HD
ENDROOT
BRANCH   5   9
HETATM    9  C   UNK N   1      28.191  18.672   5.758  0.00  0.00    -0.016 A 
HETATM   10  C   UNK N   1      27.756  19.010   4.466  0.00  0.00     0.010 A 
HETATM   11  C   UNK N   1      27.022  20.183   4.254  0.00  0.00     0.001 A 
HETATM   12  C   UNK N   1      26.713  21.022   5.328  0.00  0.00     0.000 A 
HETATM   13  C   UNK N   1      27.143  20.695   6.616  0.00  0.00     0.001 A 
HETATM   14  C   UNK N   1      27.877  19.526   6.830  0.00  0.00     0.010 A 
ENDBRANCH   5   9
BRANCH   5  15
HETATM   15  C   UNK N   1      27.969  16.205   5.958  0.00  0.00    -0.016 A 
HETATM   16  C   UNK N   1      28.278  15.109   5.135  0.00  0.00     0.010 A 
HETATM   17  C   UNK N   1      27.420  14.010   5.072  0.00  0.00     0.001 A 
HETATM   18  C   UNK N   1      26.247  13.993   5.831  0.00  0.00     0.000 A 
HETATM   19  C   UNK N   1      25.931  15.076   6.654  0.00  0.00     0.001 A 
HETATM   20  C   UNK N   1      26.788  16.175   6.719  0.00  0.00     0.010 A 
ENDBRANCH   5  15
BRANCH   4  21
HETATM   21  C   UNK N   1      32.035  17.008   8.122  0.00  0.00     0.319 C 
BRANCH  21  22
HETATM   22  O   UNK N   1      32.642  18.236   8.386  0.00  0.00    -0.277 OA
BRANCH  22  23
HETATM   23  P   UNK N   1      34.340  17.982   8.095  0.00  0.00     0.392 P 
HETATM   24  O   UNK N   1      34.778  16.769   8.958  0.00  0.00    -0.632 OA
BRANCH  23  25
HETATM   25  O   UNK N   1      35.321  19.336   8.571  0.00  0.00    -0.307 OA
HETATM   26  H   UNK N   1      35.306  19.717   9.464  0.00  0.00     0.222 HD
ENDBRANCH  23  25
BRANCH  23  27
HETATM   27  O   UNK N   1      34.640  17.559   6.439  0.00  0.00    -0.307 OA
HETATM   28  H   UNK N   1      34.203  18.004   5.697  0.00  0.00     0.222 HD
ENDBRANCH  23  27
ENDBRANCH  22  23
ENDBRANCH  21  22
ENDBRANCH   4  21
TORSDOF 7
ENDMDL
MODEL 3
REMARK VINA RESULT:      -7.5      6.380      9.855
REMARK  7 active torsions:
REMARK  status: ('A' for Active; 'I' for Inactive)
REMARK    1  A    between atoms: P_1  and  O_3 
REMARK    2  A    between atoms: P_1  and  O_5 
REMARK    3  A    between atoms: P_1  and  O_6 
REMARK    4  A    between atoms: O_3  and  C_15 
REMARK    5  A    between atoms: N_9  and  C_15 
REMARK    6  A    between atoms: C_10  and  C_12 
REMARK    7  A    between atoms: C_10  and  C_13 
ROOT
HETATM    1  O   UNK N   1      33.984  12.492  13.818  0.00  0.00    -0.269 OA
HETATM    2  O   UNK N   1      37.649  13.432  11.463  0.00  0.00    -0.247 OA
HETATM    3  N   UNK N   1      37.440  12.720  13.597  0.00  0.00    -0.316 N 
HETATM    4  N   UNK N   1      35.612  13.026  12.346  0.00  0.00    -0.244 N 
HETATM    5  C   UNK N   1      36.332  12.430  14.509  0.00  0.00     0.171 A 
HETATM    6  C   UNK N   1      35.169  12.624  13.546  0.00  0.00     0.267 A 
HETATM    7  C   UNK N   1      36.946  13.078  12.397  0.00  0.00     0.328 A 
HETATM    8  H   UNK N   1      38.396  12.662  13.826  0.00  0.00     0.166 HD
ENDROOT
BRANCH   5   9
HETATM    9  C   UNK N   1      36.382  11.027  15.086  0.00  0.00    -0.016 A 
HETATM   10  C   UNK N   1      37.598  10.341  15.244  0.00  0.00     0.010 A 
HETATM   11  C   UNK N   1      37.620   9.073  15.836  0.00  0.00     0.001 A 
HETATM   12  C   UNK N   1      36.433   8.484  16.281  0.00  0.00     0.000 A 
HETATM   13  C   UNK N   1      35.219   9.159  16.126  0.00  0.00     0.001 A 
HETATM   14  C   UNK N   1      35.194  10.423  15.533  0.00  0.00     0.010 A 
ENDBRANCH   5   9
BRANCH   5  15
HETATM   15  C   UNK N   1      36.351  13.452  15.628  0.00  0.00    -0.016 A 
HETATM   16  C   UNK N   1      35.529  13.262  16.751  0.00  0.00     0.010 A 
HETATM   17  C   UNK N   1      35.551  14.178  17.805  0.00  0.00     0.001 A 
HETATM   18  C   UNK N   1      36.394  15.290  17.748  0.00  0.00     0.000 A 
HETATM   19  C   UNK N   1      37.215  15.489  16.636  0.00  0.00     0.001 A 
HETATM   20  C   UNK N   1      37.195  14.575  15.582  0.00  0.00     0.010 A 
ENDBRANCH   5  15
BRANCH   4  21
HETATM   21  C   UNK N   1      34.789  13.406  11.221  0.00  0.00     0.319 C 
BRANCH  21  22
HETATM   22  O   UNK N   1      34.254  14.680  11.416  0.00  0.00    -0.277 OA
BRANCH  22  23
HETATM   23  P   UNK N   1      35.132  15.718  10.328  0.00  0.00     0.392 P 
HETATM   24  O   UNK N   1      35.406  14.904   9.036  0.00  0.00    -0.632 OA
BRANCH  23  25
HETATM   25  O   UNK N   1      36.674  16.216  10.959  0.00  0.00    -0.307 OA
HETATM   26  H   UNK N   1      37.248  16.861  10.515  0.00  0.00     0.222 HD
ENDBRANCH  23  25
BRANCH  23  27
HETATM   27  O   UNK N   1      34.184  17.096   9.867  0.00  0.00    -0.307 OA
HETATM   28  H   UNK N   1      34.547  17.995   9.834  0.00  0.00     0.222 HD
ENDBRANCH  23  27
ENDBRANCH  22  23
ENDBRANCH  21  22
ENDBRANCH   4  21
TORSDOF 7
ENDMDL
MODEL 4
REMARK VINA RESULT:      -7.3      3.352      5.383
REMARK  7 active torsions:
REMARK  status: ('A' for Active; 'I' for Inactive)
REMARK    1  A    between atoms: P_1  and  O_3 
REMARK    2  A    between atoms: P_1  and  O_5 
REMARK    3  A    between atoms: P_1  and  O_6 
REMARK    4  A    between atoms: O_3  and  C_15 
REMARK    5  A    between atoms: N_9  and  C_15 
REMARK    6  A    between atoms: C_10  and  C_12 
REMARK    7  A    between atoms: C_10  and  C_13 
ROOT
HETATM    1  O   UNK N   1      30.726  16.927   6.009  0.00  0.00    -0.269 OA
HETATM    2  O   UNK N   1      29.507  17.492  10.259  0.00  0.00    -0.247 OA
HETATM    3  N   UNK N   1      28.243  17.376   8.391  0.00  0.00    -0.316 N 
HETATM    4  N   UNK N   1      30.464  17.173   8.239  0.00  0.00    -0.244 N 
HETATM    5  C   UNK N   1      28.491  17.254   6.954  0.00  0.00     0.171 A 
HETATM    6  C   UNK N   1      30.003  17.079   6.984  0.00  0.00     0.267 A 
HETATM    7  C   UNK N   1      29.416  17.349   9.050  0.00  0.00     0.328 A 
HETATM    8  H   UNK N   1      27.356  17.463   8.810  0.00  0.00     0.166 HD
ENDROOT
BRANCH   5   9
HETATM    9  C   UNK N   1      27.781  16.071   6.321  0.00  0.00    -0.016 A 
HETATM   10  C   UNK N   1      28.445  15.202   5.439  0.00  0.00     0.010 A 
HETATM   11  C   UNK N   1      27.783  14.084   4.920  0.00  0.00     0.001 A 
HETATM   12  C   UNK N   1      26.458  13.822   5.281  0.00  0.00     0.000 A 
HETATM   13  C   UNK N   1      25.790  14.682   6.155  0.00  0.00     0.001 A 
HETATM   14  C   UNK N   1      26.448  15.799   6.673  0.00  0.00     0.010 A 
ENDBRANCH   5   9
BRANCH   5  15
HETATM   15  C   UNK N   1      28.058  18.541   6.280  0.00  0.00    -0.016 A 
HETATM   16  C   UNK N   1      27.944  18.584   4.881  0.00  0.00     0.010 A 
HETATM   17  C   UNK N   1      27.520  19.751   4.243  0.00  0.00     0.001 A 
HETATM   18  C   UNK N   1      27.207  20.886   4.995  0.00  0.00     0.000 A 
HETATM   19  C   UNK N   1      27.317  20.854   6.387  0.00  0.00     0.001 A 
HETATM   20  C   UNK N   1      27.739  19.688   7.026  0.00  0.00     0.010 A 
ENDBRANCH   5  15
BRANCH   4  21
HETATM   21  C   UNK N   1      31.853  17.161   8.637  0.00  0.00     0.319 C 
BRANCH  21  22
HETATM   22  O   UNK N   1      32.459  18.380   8.334  0.00  0.00    -0.277 OA
BRANCH  22  23
HETATM   23  P   UNK N   1      34.105  17.986   7.926  0.00  0.00     0.392 P 
HETATM   24  O   UNK N   1      34.989  19.180   8.375  0.00  0.00    -0.632 OA
BRANCH  23  25
HETATM   25  O   UNK N   1      34.351  17.776   6.218  0.00  0.00    -0.307 OA
HETATM   26  H   UNK N   1      34.211  18.484   5.569  0.00  0.00     0.222 HD
ENDBRANCH  23  25
BRANCH  23  27
HETATM   27  O   UNK N   1      34.656  16.592   8.800  0.00  0.00    -0.307 OA
HETATM   28  H   UNK N   1      34.295  16.339   9.664  0.00  0.00     0.222 HD
ENDBRANCH  23  27
ENDBRANCH  22  23
ENDBRANCH  21  22
ENDBRANCH   4  21
TORSDOF 7
ENDMDL
MODEL 5
REMARK VINA RESULT:      -7.2      1.098      4.043
REMARK  7 active torsions:
REMARK  status: ('A' for Active; 'I' for Inactive)
REMARK    1  A    between atoms: P_1  and  O_3 
REMARK    2  A    between atoms: P_1  and  O_5 
REMARK    3  A    between atoms: P_1  and  O_6 
REMARK    4  A    between atoms: O_3  and  C_15 
REMARK    5  A    between atoms: N_9  and  C_15 
REMARK    6  A    between atoms: C_10  and  C_12 
REMARK    7  A    between atoms: C_10  and  C_13 
ROOT
HETATM    1  O   UNK N   1      34.530  17.707   7.918  0.00  0.00    -0.269 OA
HETATM    2  O   UNK N   1      33.684  13.558   9.310  0.00  0.00    -0.247 OA
HETATM    3  N   UNK N   1      32.609  14.820   7.776  0.00  0.00    -0.316 N 
HETATM    4  N   UNK N   1      34.404  15.642   8.826  0.00  0.00    -0.244 N 
HETATM    5  C   UNK N   1      32.727  16.186   7.263  0.00  0.00     0.171 A 
HETATM    6  C   UNK N   1      33.986  16.615   8.003  0.00  0.00     0.267 A 
HETATM    7  C   UNK N   1      33.582  14.598   8.679  0.00  0.00     0.328 A 
HETATM    8  H   UNK N   1      31.926  14.166   7.502  0.00  0.00     0.166 HD
ENDROOT
BRANCH   5   9
HETATM    9  C   UNK N   1      32.889  16.248   5.754  0.00  0.00    -0.016 A 
HETATM   10  C   UNK N   1      33.236  15.111   5.006  0.00  0.00     0.010 A 
HETATM   11  C   UNK N   1      33.317  15.183   3.611  0.00  0.00     0.001 A 
HETATM   12  C   UNK N   1      33.046  16.387   2.953  0.00  0.00     0.000 A 
HETATM   13  C   UNK N   1      32.701  17.522   3.689  0.00  0.00     0.001 A 
HETATM   14  C   UNK N   1      32.622  17.453   5.082  0.00  0.00     0.010 A 
ENDBRANCH   5   9
BRANCH   5  15
HETATM   15  C   UNK N   1      31.498  16.966   7.685  0.00  0.00    -0.016 A 
HETATM   16  C   UNK N   1      30.250  16.643   7.129  0.00  0.00     0.010 A 
HETATM   17  C   UNK N   1      29.101  17.331   7.524  0.00  0.00     0.001 A 
HETATM   18  C   UNK N   1      29.187  18.346   8.480  0.00  0.00     0.000 A 
HETATM   19  C   UNK N   1      30.424  18.675   9.041  0.00  0.00     0.001 A 
HETATM   20  C   UNK N   1      31.572  17.988   8.647  0.00  0.00     0.010 A 
ENDBRANCH   5  15
BRANCH   4  21
HETATM   21  C   UNK N   1      35.503  15.733   9.759  0.00  0.00     0.319 C 
BRANCH  21  22
HETATM   22  O   UNK N   1      35.028  15.952  11.053  0.00  0.00    -0.277 OA
BRANCH  22  23
HETATM   23  P   UNK N   1      35.645  14.626  11.998  0.00  0.00     0.392 P 
HETATM   24  O   UNK N   1      36.701  13.893  11.129  0.00  0.00    -0.632 OA
BRANCH  23  25
HETATM   25  O   UNK N   1      34.423  13.462  12.415  0.00  0.00    -0.307 OA
HETATM   26  H   UNK N   1      34.560  12.503  12.360  0.00  0.00     0.222 HD
ENDBRANCH  23  25
BRANCH  23  27
HETATM   27  O   UNK N   1      36.464  15.191  13.420  0.00  0.00    -0.307 OA
HETATM   28  H   UNK N   1      35.993  15.548  14.189  0.00  0.00     0.222 HD
ENDBRANCH  23  27
ENDBRANCH  22  23
ENDBRANCH  21  22
ENDBRANCH   4  21
TORSDOF 7
ENDMDL
MODEL 6
REMARK VINA RESULT:      -7.2     13.421     15.857
REMARK  7 active torsions:
REMARK  status: ('A' for Active; 'I' for Inactive)
REMARK    1  A    between atoms: P_1  and  O_3 
REMARK    2  A    between atoms: P_1  and  O_5 
REMARK    3  A    between atoms: P_1  and  O_6 
REMARK    4  A    between atoms: O_3  and  C_15 
REMARK    5  A    between atoms: N_9  and  C_15 
REMARK    6  A    between atoms: C_10  and  C_12 
REMARK    7  A    between atoms: C_10  and  C_13 
ROOT
HETATM    1  O   UNK N   1      29.798  24.738  -5.265  0.00  0.00    -0.269 OA
HETATM    2  O   UNK N   1      28.148  23.160  -1.438  0.00  0.00    -0.247 OA
HETATM    3  N   UNK N   1      27.088  23.718  -3.353  0.00  0.00    -0.316 N 
HETATM    4  N   UNK N   1      29.311  23.918  -3.217  0.00  0.00    -0.244 N 
HETATM    5  C   UNK N   1      27.473  24.291  -4.644  0.00  0.00     0.171 A 
HETATM    6  C   UNK N   1      28.982  24.334  -4.449  0.00  0.00     0.267 A 
HETATM    7  C   UNK N   1      28.186  23.563  -2.590  0.00  0.00     0.328 A 
HETATM    8  H   UNK N   1      26.170  23.483  -3.085  0.00  0.00     0.166 HD
ENDROOT
BRANCH   5   9
HETATM    9  C   UNK N   1      27.063  23.431  -5.826  0.00  0.00    -0.016 A 
HETATM   10  C   UNK N   1      28.018  22.861  -6.685  0.00  0.00     0.010 A 
HETATM   11  C   UNK N   1      27.614  22.022  -7.730  0.00  0.00     0.001 A 
HETATM   12  C   UNK N   1      26.257  21.741  -7.921  0.00  0.00     0.000 A 
HETATM   13  C   UNK N   1      25.302  22.305  -7.073  0.00  0.00     0.001 A 
HETATM   14  C   UNK N   1      25.702  23.144  -6.031  0.00  0.00     0.010 A 
ENDBRANCH   5   9
BRANCH   5  15
HETATM   15  C   UNK N   1      26.852  25.668  -4.763  0.00  0.00    -0.016 A 
HETATM   16  C   UNK N   1      26.290  26.274  -3.627  0.00  0.00     0.010 A 
HETATM   17  C   UNK N   1      25.738  27.553  -3.710  0.00  0.00     0.001 A 
HETATM   18  C   UNK N   1      25.742  28.240  -4.926  0.00  0.00     0.000 A 
HETATM   19  C   UNK N   1      26.299  27.648  -6.062  0.00  0.00     0.001 A 
HETATM   20  C   UNK N   1      26.852  26.370  -5.981  0.00  0.00     0.010 A 
ENDBRANCH   5  15
BRANCH   4  21
HETATM   21  C   UNK N   1      30.638  23.924  -2.646  0.00  0.00     0.319 C 
BRANCH  21  22
HETATM   22  O   UNK N   1      30.853  22.765  -1.899  0.00  0.00    -0.277 OA
BRANCH  22  23
HETATM   23  P   UNK N   1      31.795  21.723  -2.928  0.00  0.00     0.392 P 
HETATM   24  O   UNK N   1      32.408  22.611  -4.044  0.00  0.00    -0.632 OA
BRANCH  23  25
HETATM   25  O   UNK N   1      30.842  20.497  -3.711  0.00  0.00    -0.307 OA
HETATM   26  H   UNK N   1      29.878  20.436  -3.623  0.00  0.00     0.222 HD
ENDBRANCH  23  25
BRANCH  23  27
HETATM   27  O   UNK N   1      33.120  21.011  -2.063  0.00  0.00    -0.307 OA
HETATM   28  H   UNK N   1      33.015  20.238  -1.489  0.00  0.00     0.222 HD
ENDBRANCH  23  27
ENDBRANCH  22  23
ENDBRANCH  21  22
ENDBRANCH   4  21
TORSDOF 7
ENDMDL
MODEL 7
REMARK VINA RESULT:      -7.1      3.728      4.929
REMARK  7 active torsions:
REMARK  status: ('A' for Active; 'I' for Inactive)
REMARK    1  A    between atoms: P_1  and  O_3 
REMARK    2  A    between atoms: P_1  and  O_5 
REMARK    3  A    between atoms: P_1  and  O_6 
REMARK    4  A    between atoms: O_3  and  C_15 
REMARK    5  A    between atoms: N_9  and  C_15 
REMARK    6  A    between atoms: C_10  and  C_12 
REMARK    7  A    between atoms: C_10  and  C_13 
ROOT
HETATM    1  O   UNK N   1      29.115  16.785   7.174  0.00  0.00    -0.269 OA
HETATM    2  O   UNK N   1      32.604  17.715   4.561  0.00  0.00    -0.247 OA
HETATM    3  N   UNK N   1      30.392  17.925   4.155  0.00  0.00    -0.316 N 
HETATM    4  N   UNK N   1      31.087  17.164   6.139  0.00  0.00    -0.244 N 
HETATM    5  C   UNK N   1      29.154  17.616   4.871  0.00  0.00     0.171 A 
HETATM    6  C   UNK N   1      29.748  17.159   6.196  0.00  0.00     0.267 A 
HETATM    7  C   UNK N   1      31.446  17.614   4.933  0.00  0.00     0.328 A 
HETATM    8  H   UNK N   1      30.446  18.302   3.247  0.00  0.00     0.166 HD
ENDROOT
BRANCH   5   9
HETATM    9  C   UNK N   1      28.236  18.815   5.027  0.00  0.00    -0.016 A 
HETATM   10  C   UNK N   1      27.571  19.379   3.925  0.00  0.00     0.010 A 
HETATM   11  C   UNK N   1      26.683  20.445   4.108  0.00  0.00     0.001 A 
HETATM   12  C   UNK N   1      26.446  20.950   5.390  0.00  0.00     0.000 A 
HETATM   13  C   UNK N   1      27.103  20.395   6.491  0.00  0.00     0.001 A 
HETATM   14  C   UNK N   1      27.992  19.334   6.311  0.00  0.00     0.010 A 
ENDBRANCH   5   9
BRANCH   5  15
HETATM   15  C   UNK N   1      28.435  16.505   4.131  0.00  0.00    -0.016 A 
HETATM   16  C   UNK N   1      27.257  15.964   4.671  0.00  0.00     0.010 A 
HETATM   17  C   UNK N   1      26.566  14.959   3.993  0.00  0.00     0.001 A 
HETATM   18  C   UNK N   1      27.043  14.485   2.769  0.00  0.00     0.000 A 
HETATM   19  C   UNK N   1      28.213  15.016   2.222  0.00  0.00     0.001 A 
HETATM   20  C   UNK N   1      28.905  16.021   2.898  0.00  0.00     0.010 A 
ENDBRANCH   5  15
BRANCH   4  21
HETATM   21  C   UNK N   1      31.983  16.694   7.171  0.00  0.00     0.319 C 
BRANCH  21  22
HETATM   22  O   UNK N   1      32.424  17.759   7.956  0.00  0.00    -0.277 OA
BRANCH  22  23
HETATM   23  P   UNK N   1      34.160  17.627   7.975  0.00  0.00     0.392 P 
HETATM   24  O   UNK N   1      34.727  19.052   8.216  0.00  0.00    -0.632 OA
BRANCH  23  25
HETATM   25  O   UNK N   1      34.816  17.059   6.469  0.00  0.00    -0.307 OA
HETATM   26  H   UNK N   1      35.278  16.211   6.375  0.00  0.00     0.222 HD
ENDBRANCH  23  25
BRANCH  23  27
HETATM   27  O   UNK N   1      34.704  16.638   9.293  0.00  0.00    -0.307 OA
HETATM   28  H   UNK N   1      35.054  17.009  10.118  0.00  0.00     0.222 HD
ENDBRANCH  23  27
ENDBRANCH  22  23
ENDBRANCH  21  22
ENDBRANCH   4  21
TORSDOF 7
ENDMDL
MODEL 8
REMARK VINA RESULT:      -6.7     15.553     17.916
REMARK  7 active torsions:
REMARK  status: ('A' for Active; 'I' for Inactive)
REMARK    1  A    between atoms: P_1  and  O_3 
REMARK    2  A    between atoms: P_1  and  O_5 
REMARK    3  A    between atoms: P_1  and  O_6 
REMARK    4  A    between atoms: O_3  and  C_15 
REMARK    5  A    between atoms: N_9  and  C_15 
REMARK    6  A    between atoms: C_10  and  C_12 
REMARK    7  A    between atoms: C_10  and  C_13 
ROOT
HETATM    1  O   UNK N   1      26.111  23.604  -5.708  0.00  0.00    -0.269 OA
HETATM    2  O   UNK N   1      29.167  25.230  -8.515  0.00  0.00    -0.247 OA
HETATM    3  N   UNK N   1      28.932  25.540  -6.290  0.00  0.00    -0.316 N 
HETATM    4  N   UNK N   1      27.493  24.224  -7.384  0.00  0.00    -0.244 N 
HETATM    5  C   UNK N   1      27.972  25.133  -5.264  0.00  0.00     0.171 A 
HETATM    6  C   UNK N   1      27.090  24.221  -6.106  0.00  0.00     0.267 A 
HETATM    7  C   UNK N   1      28.574  25.005  -7.472  0.00  0.00     0.328 A 
HETATM    8  H   UNK N   1      29.716  26.116  -6.140  0.00  0.00     0.166 HD
ENDROOT
BRANCH   5   9
HETATM    9  C   UNK N   1      28.615  24.405  -4.097  0.00  0.00    -0.016 A 
HETATM   10  C   UNK N   1      27.845  23.862  -3.056  0.00  0.00     0.010 A 
HETATM   11  C   UNK N   1      28.460  23.142  -2.025  0.00  0.00     0.001 A 
HETATM   12  C   UNK N   1      29.845  22.953  -2.030  0.00  0.00     0.000 A 
HETATM   13  C   UNK N   1      30.619  23.491  -3.061  0.00  0.00     0.001 A 
HETATM   14  C   UNK N   1      30.007  24.211  -4.089  0.00  0.00     0.010 A 
ENDBRANCH   5   9
BRANCH   5  15
HETATM   15  C   UNK N   1      27.244  26.367  -4.768  0.00  0.00    -0.016 A 
HETATM   16  C   UNK N   1      27.919  27.282  -3.944  0.00  0.00     0.010 A 
HETATM   17  C   UNK N   1      27.276  28.438  -3.499  0.00  0.00     0.001 A 
HETATM   18  C   UNK N   1      25.954  28.693  -3.873  0.00  0.00     0.000 A 
HETATM   19  C   UNK N   1      25.274  27.790  -4.694  0.00  0.00     0.001 A 
HETATM   20  C   UNK N   1      25.916  26.634  -5.140  0.00  0.00     0.010 A 
ENDBRANCH   5  15
BRANCH   4  21
HETATM   21  C   UNK N   1      26.833  23.559  -8.484  0.00  0.00     0.319 C 
BRANCH  21  22
HETATM   22  O   UNK N   1      27.067  22.185  -8.436  0.00  0.00    -0.277 OA
BRANCH  22  23
HETATM   23  P   UNK N   1      25.507  21.445  -8.659  0.00  0.00     0.392 P 
HETATM   24  O   UNK N   1      25.485  20.152  -7.802  0.00  0.00    -0.632 OA
BRANCH  23  25
HETATM   25  O   UNK N   1      25.205  20.978 -10.306  0.00  0.00    -0.307 OA
HETATM   26  H   UNK N   1      24.493  21.357 -10.845  0.00  0.00     0.222 HD
ENDBRANCH  23  25
BRANCH  23  27
HETATM   27  O   UNK N   1      24.234  22.465  -8.067  0.00  0.00    -0.307 OA
HETATM   28  H   UNK N   1      24.090  23.366  -8.395  0.00  0.00     0.222 HD
ENDBRANCH  23  27
ENDBRANCH  22  23
ENDBRANCH  21  22
ENDBRANCH   4  21
TORSDOF 7
ENDMDL
MODEL 9
REMARK VINA RESULT:      -6.7     14.052     16.203
REMARK  7 active torsions:
REMARK  status: ('A' for Active; 'I' for Inactive)
REMARK    1  A    between atoms: P_1  and  O_3 
REMARK    2  A    between atoms: P_1  and  O_5 
REMARK    3  A    between atoms: P_1  and  O_6 
REMARK    4  A    between atoms: O_3  and  C_15 
REMARK    5  A    between atoms: N_9  and  C_15 
REMARK    6  A    between atoms: C_10  and  C_12 
REMARK    7  A    between atoms: C_10  and  C_13 
ROOT
HETATM    1  O   UNK N   1      28.419  24.070  -3.526  0.00  0.00    -0.269 OA
HETATM    2  O   UNK N   1      31.413  25.655  -6.423  0.00  0.00    -0.247 OA
HETATM    3  N   UNK N   1      29.160  25.580  -6.562  0.00  0.00    -0.316 N 
HETATM    4  N   UNK N   1      30.184  24.791  -4.738  0.00  0.00    -0.244 N 
HETATM    5  C   UNK N   1      28.069  25.052  -5.741  0.00  0.00     0.171 A 
HETATM    6  C   UNK N   1      28.874  24.595  -4.533  0.00  0.00     0.267 A 
HETATM    7  C   UNK N   1      30.331  25.367  -5.934  0.00  0.00     0.328 A 
HETATM    8  H   UNK N   1      29.053  26.021  -7.436  0.00  0.00     0.166 HD
ENDROOT
BRANCH   5   9
HETATM    9  C   UNK N   1      27.027  26.098  -5.385  0.00  0.00    -0.016 A 
HETATM   10  C   UNK N   1      25.887  26.299  -6.180  0.00  0.00     0.010 A 
HETATM   11  C   UNK N   1      24.912  27.226  -5.793  0.00  0.00     0.001 A 
HETATM   12  C   UNK N   1      25.065  27.953  -4.609  0.00  0.00     0.000 A 
HETATM   13  C   UNK N   1      26.197  27.761  -3.814  0.00  0.00     0.001 A 
HETATM   14  C   UNK N   1      27.171  26.838  -4.198  0.00  0.00     0.010 A 
ENDBRANCH   5   9
BRANCH   5  15
HETATM   15  C   UNK N   1      27.418  23.904  -6.487  0.00  0.00    -0.016 A 
HETATM   16  C   UNK N   1      26.195  23.387  -6.029  0.00  0.00     0.010 A 
HETATM   17  C   UNK N   1      25.566  22.348  -6.717  0.00  0.00     0.001 A 
HETATM   18  C   UNK N   1      26.150  21.816  -7.868  0.00  0.00     0.000 A 
HETATM   19  C   UNK N   1      27.366  22.323  -8.334  0.00  0.00     0.001 A 
HETATM   20  C   UNK N   1      27.996  23.362  -7.648  0.00  0.00     0.010 A 
ENDBRANCH   5  15
BRANCH   4  21
HETATM   21  C   UNK N   1      31.252  24.382  -3.855  0.00  0.00     0.319 C 
BRANCH  21  22
HETATM   22  O   UNK N   1      31.714  23.113  -4.201  0.00  0.00    -0.277 OA
BRANCH  22  23
HETATM   23  P   UNK N   1      31.281  22.085  -2.864  0.00  0.00     0.392 P 
HETATM   24  O   UNK N   1      30.304  21.010  -3.408  0.00  0.00    -0.632 OA
BRANCH  23  25
HETATM   25  O   UNK N   1      30.455  22.936  -1.592  0.00  0.00    -0.307 OA
HETATM   26  H   UNK N   1      30.198  22.521  -0.753  0.00  0.00     0.222 HD
ENDBRANCH  23  25
BRANCH  23  27
HETATM   27  O   UNK N   1      32.664  21.243  -2.240  0.00  0.00    -0.307 OA
HETATM   28  H   UNK N   1      32.649  20.763  -1.398  0.00  0.00     0.222 HD
ENDBRANCH  23  27
ENDBRANCH  22  23
ENDBRANCH  21  22
ENDBRANCH   4  21
TORSDOF 7
ENDMDL
