MODEL 1
REMARK VINA RESULT:      -7.9      0.000      0.000
REMARK  17 active torsions:
REMARK  status: ('A' for Active; 'I' for Inactive)
REMARK    1  A    between atoms: C_18  and  O_1 
REMARK    2  A    between atoms: C_24  and  O_1 
REMARK    3  A    between atoms: C_21  and  O_3 
REMARK    4  A    between atoms: C_22  and  O_3 
REMARK    5  A    between atoms: C_19  and  O_5 
REMARK    6  A    between atoms: C_23  and  O_6 
REMARK    7  A    between atoms: C_27  and  O_7 
REMARK    8  A    between atoms: O_7  and  C_43 
REMARK    9  A    between atoms: C_29  and  O_8 
REMARK   10  A    between atoms: C_34  and  O_9 
REMARK   11  A    between atoms: O_9  and  C_48 
REMARK   12  A    between atoms: C_39  and  O_10 
REMARK   13  A    between atoms: C_17  and  N_16 
REMARK   14  A    between atoms: C_25  and  C_33 
REMARK   15  A    between atoms: C_33  and  C_42 
REMARK   16  A    between atoms: C_43  and  C_47 
REMARK   17  A    between atoms: C_47  and  C_49 
ROOT
HETATM    1  O   UNK N   1      25.852  17.174   3.194  0.00  0.00    -0.350 OA
ENDROOT
BRANCH   1   2
HETATM    2  C   UNK N   1      26.717  17.493   4.258  0.00  0.00     0.291 C 
HETATM    3  O   UNK N   1      26.115  17.171   5.473  0.00  0.00    -0.351 OA
HETATM    4  C   UNK N   1      27.221  16.926   6.284  0.00  0.00     0.152 C 
HETATM    5  C   UNK N   1      27.916  18.237   6.688  0.00  0.00     0.189 C 
HETATM    6  C   UNK N   1      26.836  16.061   7.461  0.00  0.00     0.042 C 
HETATM    7  C   UNK N   1      27.567  19.422   5.738  0.00  0.00     0.286 C 
HETATM    8  C   UNK N   1      27.233  18.950   4.287  0.00  0.00     0.209 C 
BRANCH   5   9
HETATM    9  O   UNK N   1      29.298  18.008   6.752  0.00  0.00    -0.351 OA
BRANCH   9  10
HETATM   10  C   UNK N   1      29.681  16.938   5.898  0.00  0.00     0.264 C 
HETATM   11  O   UNK N   1      30.114  15.840   6.679  0.00  0.00    -0.354 OA
HETATM   12  C   UNK N   1      31.323  16.139   7.372  0.00  0.00     0.153 C 
HETATM   13  C   UNK N   1      32.357  16.964   6.579  0.00  0.00     0.194 C 
HETATM   14  C   UNK N   1      31.062  16.727   8.751  0.00  0.00     0.042 C 
HETATM   15  C   UNK N   1      32.125  16.787   5.079  0.00  0.00     0.087 C 
HETATM   16  C   UNK N   1      30.701  17.248   4.759  0.00  0.00     0.101 C 
HETATM   17  C   UNK N   1      33.100  17.624   4.272  0.00  0.00     0.049 C 
BRANCH  13  18
HETATM   18  O   UNK N   1      33.632  16.598   6.959  0.00  0.00    -0.310 OA
BRANCH  18  19
HETATM   19  C   UNK N   1      34.386  17.347   7.799  0.00  0.00     0.259 C 
HETATM   20  O   UNK N   1      34.647  18.516   7.528  0.00  0.00    -0.265 OA
BRANCH  19  21
HETATM   21  C   UNK N   1      34.846  16.744   9.095  0.00  0.00     0.115 C 
BRANCH  21  22
HETATM   22  C   UNK N   1      34.490  15.269   9.259  0.00  0.00    -0.013 C 
HETATM   23  C   UNK N   1      34.081  15.016  10.693  0.00  0.00     0.010 C 
HETATM   24  C   UNK N   1      35.691  14.394   8.939  0.00  0.00     0.010 C 
ENDBRANCH  21  22
ENDBRANCH  19  21
ENDBRANCH  18  19
ENDBRANCH  13  18
BRANCH  15  25
HETATM   25  O   UNK N   1      32.275  15.445   4.722  0.00  0.00    -0.387 OA
HETATM   26  H   UNK N   1      31.725  14.661   4.879  0.00  0.00     0.210 HD
ENDBRANCH  15  25
ENDBRANCH   9  10
ENDBRANCH   5   9
BRANCH   7  27
HETATM   27  N   UNK N   1      26.449  20.196   6.300  0.00  0.00     0.089 N 
HETATM   28  C   UNK N   1      25.527  20.564   5.232  0.00  0.00     0.310 C 
HETATM   29  C   UNK N   1      26.962  21.463   6.807  0.00  0.00     0.310 C 
ENDBRANCH   7  27
BRANCH   8  30
HETATM   30  O   UNK N   1      28.369  19.065   3.488  0.00  0.00    -0.388 OA
HETATM   31  H   UNK N   1      29.278  19.357   3.310  0.00  0.00     0.210 HD
ENDBRANCH   8  30
ENDBRANCH   1   2
BRANCH   1  32
HETATM   32  C   UNK N   1      25.024  16.077   3.544  0.00  0.00     0.160 C 
HETATM   33  C   UNK N   1      25.539  14.644   3.294  0.00  0.00     0.024 C 
HETATM   34  C   UNK N   1      25.955  13.845   4.533  0.00  0.00     0.014 C 
HETATM   35  C   UNK N   1      25.712  12.329   4.398  0.00  0.00     0.014 C 
HETATM   36  C   UNK N   1      24.240  11.978   4.119  0.00  0.00     0.144 C 
HETATM   37  C   UNK N   1      26.673  11.707   3.393  0.00  0.00     0.012 C 
HETATM   38  C   UNK N   1      23.458  12.099   5.385  0.00  0.00     0.005 C 
HETATM   39  C   UNK N   1      22.372  12.861   5.473  0.00  0.00    -0.002 C 
HETATM   40  C   UNK N   1      21.652  12.919   6.754  0.00  0.00    -0.004 C 
HETATM   41  C   UNK N   1      20.550  13.652   6.946  0.00  0.00    -0.024 C 
HETATM   42  C   UNK N   1      19.914  14.491   5.874  0.00  0.00     0.059 C 
HETATM   43  C   UNK N   1      19.828  15.983   6.230  0.00  0.00     0.131 C 
HETATM   44  O   UNK N   1      20.882  16.737   5.746  0.00  0.00    -0.316 OA
HETATM   45  C   UNK N   1      19.517  16.288   7.691  0.00  0.00     0.040 C 
HETATM   46  C   UNK N   1      22.186  16.631   6.118  0.00  0.00     0.261 C 
HETATM   47  O   UNK N   1      22.545  15.806   6.941  0.00  0.00    -0.265 OA
HETATM   48  C   UNK N   1      23.199  17.553   5.515  0.00  0.00     0.146 C 
HETATM   49  C   UNK N   1      23.132  17.616   3.982  0.00  0.00     0.172 C 
HETATM   50  C   UNK N   1      23.547  16.328   3.259  0.00  0.00     0.180 C 
BRANCH  33  51
HETATM   51  C   UNK N   1      26.190  14.289   1.966  0.00  0.00     0.076 C 
BRANCH  51  52
HETATM   52  C   UNK N   1      27.587  14.804   1.957  0.00  0.00     0.231 C 
HETATM   53  O   UNK N   1      28.494  14.095   1.556  0.00  0.00    -0.307 OA
ENDBRANCH  51  52
ENDBRANCH  33  51
BRANCH  36  54
HETATM   54  O   UNK N   1      24.125  10.658   3.674  0.00  0.00    -0.391 OA
HETATM   55  H   UNK N   1      23.349  10.077   3.665  0.00  0.00     0.210 HD
ENDBRANCH  36  54
BRANCH  49  56
HETATM   56  O   UNK N   1      21.908  18.086   3.570  0.00  0.00    -0.313 OA
BRANCH  56  57
HETATM   57  C   UNK N   1      21.615  19.409   3.570  0.00  0.00     0.255 C 
HETATM   58  O   UNK N   1      20.737  19.828   4.304  0.00  0.00    -0.266 OA
HETATM   59  C   UNK N   1      22.374  20.378   2.715  0.00  0.00     0.126 C 
ENDBRANCH  56  57
ENDBRANCH  49  56
BRANCH  50  60
HETATM   60  O   UNK N   1      22.763  15.242   3.659  0.00  0.00    -0.385 OA
HETATM   61  C   UNK N   1      21.995  14.915   2.540  0.00  0.00     0.202 C 
ENDBRANCH  50  60
ENDBRANCH   1  32
TORSDOF 17
ENDMDL
MODEL 2
REMARK VINA RESULT:      -7.4      2.027      3.181
REMARK  17 active torsions:
REMARK  status: ('A' for Active; 'I' for Inactive)
REMARK    1  A    between atoms: C_18  and  O_1 
REMARK    2  A    between atoms: C_24  and  O_1 
REMARK    3  A    between atoms: C_21  and  O_3 
REMARK    4  A    between atoms: C_22  and  O_3 
REMARK    5  A    between atoms: C_19  and  O_5 
REMARK    6  A    between atoms: C_23  and  O_6 
REMARK    7  A    between atoms: C_27  and  O_7 
REMARK    8  A    between atoms: O_7  and  C_43 
REMARK    9  A    between atoms: C_29  and  O_8 
REMARK   10  A    between atoms: C_34  and  O_9 
REMARK   11  A    between atoms: O_9  and  C_48 
REMARK   12  A    between atoms: C_39  and  O_10 
REMARK   13  A    between atoms: C_17  and  N_16 
REMARK   14  A    between atoms: C_25  and  C_33 
REMARK   15  A    between atoms: C_33  and  C_42 
REMARK   16  A    between atoms: C_43  and  C_47 
REMARK   17  A    between atoms: C_47  and  C_49 
ROOT
HETATM    1  O   UNK N   1      25.782  16.427   3.331  0.00  0.00    -0.350 OA
ENDROOT
BRANCH   1   2
HETATM    2  C   UNK N   1      27.099  16.458   3.828  0.00  0.00     0.291 C 
HETATM    3  O   UNK N   1      27.277  15.442   4.766  0.00  0.00    -0.351 OA
HETATM    4  C   UNK N   1      28.644  15.194   4.663  0.00  0.00     0.152 C 
HETATM    5  C   UNK N   1      29.464  16.305   5.339  0.00  0.00     0.189 C 
HETATM    6  C   UNK N   1      28.973  13.810   5.171  0.00  0.00     0.042 C 
HETATM    7  C   UNK N   1      28.658  17.629   5.511  0.00  0.00     0.286 C 
HETATM    8  C   UNK N   1      27.563  17.811   4.413  0.00  0.00     0.209 C 
BRANCH   5   9
HETATM    9  O   UNK N   1      30.641  16.503   4.603  0.00  0.00    -0.351 OA
BRANCH   9  10
HETATM   10  C   UNK N   1      31.444  17.524   5.183  0.00  0.00     0.264 C 
HETATM   11  O   UNK N   1      32.463  17.898   4.276  0.00  0.00    -0.354 OA
HETATM   12  C   UNK N   1      33.396  16.839   4.076  0.00  0.00     0.153 C 
HETATM   13  C   UNK N   1      33.757  16.026   5.336  0.00  0.00     0.194 C 
HETATM   14  C   UNK N   1      33.002  15.942   2.913  0.00  0.00     0.042 C 
HETATM   15  C   UNK N   1      33.507  16.865   6.588  0.00  0.00     0.087 C 
HETATM   16  C   UNK N   1      32.029  17.265   6.605  0.00  0.00     0.101 C 
HETATM   17  C   UNK N   1      33.811  16.075   7.847  0.00  0.00     0.049 C 
BRANCH  13  18
HETATM   18  O   UNK N   1      35.065  15.593   5.249  0.00  0.00    -0.310 OA
BRANCH  18  19
HETATM   19  C   UNK N   1      35.396  14.281   5.188  0.00  0.00     0.259 C 
HETATM   20  O   UNK N   1      34.648  13.474   4.642  0.00  0.00    -0.265 OA
BRANCH  19  21
HETATM   21  C   UNK N   1      36.721  13.839   5.741  0.00  0.00     0.115 C 
BRANCH  21  22
HETATM   22  C   UNK N   1      36.802  13.873   7.264  0.00  0.00    -0.013 C 
HETATM   23  C   UNK N   1      38.230  13.600   7.688  0.00  0.00     0.010 C 
HETATM   24  C   UNK N   1      35.907  12.804   7.869  0.00  0.00     0.010 C 
ENDBRANCH  21  22
ENDBRANCH  19  21
ENDBRANCH  18  19
ENDBRANCH  13  18
BRANCH  15  25
HETATM   25  O   UNK N   1      34.304  18.012   6.569  0.00  0.00    -0.387 OA
HETATM   26  H   UNK N   1      34.138  18.918   6.262  0.00  0.00     0.210 HD
ENDBRANCH  15  25
ENDBRANCH   9  10
ENDBRANCH   5   9
BRANCH   7  27
HETATM   27  N   UNK N   1      28.057  17.674   6.853  0.00  0.00     0.089 N 
HETATM   28  C   UNK N   1      28.025  19.052   7.326  0.00  0.00     0.310 C 
HETATM   29  C   UNK N   1      28.935  16.977   7.785  0.00  0.00     0.310 C 
ENDBRANCH   7  27
BRANCH   8  30
HETATM   30  O   UNK N   1      28.058  18.622   3.393  0.00  0.00    -0.388 OA
HETATM   31  H   UNK N   1      27.976  19.115   2.560  0.00  0.00     0.210 HD
ENDBRANCH   8  30
ENDBRANCH   1   2
BRANCH   1  32
HETATM   32  C   UNK N   1      25.173  15.181   3.626  0.00  0.00     0.160 C 
HETATM   33  C   UNK N   1      25.322  14.021   2.620  0.00  0.00     0.024 C 
HETATM   34  C   UNK N   1      26.263  12.882   3.028  0.00  0.00     0.014 C 
HETATM   35  C   UNK N   1      25.834  11.505   2.486  0.00  0.00     0.014 C 
HETATM   36  C   UNK N   1      24.420  11.094   2.935  0.00  0.00     0.144 C 
HETATM   37  C   UNK N   1      26.026  11.427   0.976  0.00  0.00     0.012 C 
HETATM   38  C   UNK N   1      24.470  10.638   4.356  0.00  0.00     0.005 C 
HETATM   39  C   UNK N   1      23.690  11.166   5.294  0.00  0.00    -0.002 C 
HETATM   40  C   UNK N   1      23.793  10.655   6.668  0.00  0.00    -0.004 C 
HETATM   41  C   UNK N   1      23.053  11.117   7.682  0.00  0.00    -0.024 C 
HETATM   42  C   UNK N   1      22.024  12.201   7.533  0.00  0.00     0.059 C 
HETATM   43  C   UNK N   1      22.297  13.433   8.410  0.00  0.00     0.131 C 
HETATM   44  O   UNK N   1      22.987  14.441   7.763  0.00  0.00    -0.316 OA
HETATM   45  C   UNK N   1      22.863  13.135   9.794  0.00  0.00     0.040 C 
HETATM   46  C   UNK N   1      24.265  14.376   7.302  0.00  0.00     0.261 C 
HETATM   47  O   UNK N   1      24.929  13.360   7.419  0.00  0.00    -0.265 OA
HETATM   48  C   UNK N   1      24.873  15.578   6.651  0.00  0.00     0.146 C 
HETATM   49  C   UNK N   1      23.990  16.192   5.555  0.00  0.00     0.172 C 
HETATM   50  C   UNK N   1      23.813  15.326   4.301  0.00  0.00     0.180 C 
BRANCH  33  51
HETATM   51  C   UNK N   1      25.106  14.267   1.135  0.00  0.00     0.076 C 
BRANCH  51  52
HETATM   52  C   UNK N   1      23.647  14.233   0.843  0.00  0.00     0.231 C 
HETATM   53  O   UNK N   1      23.236  13.635  -0.137  0.00  0.00    -0.307 OA
ENDBRANCH  51  52
ENDBRANCH  33  51
BRANCH  36  54
HETATM   54  O   UNK N   1      23.951  10.028   2.163  0.00  0.00    -0.391 OA
HETATM   55  H   UNK N   1      24.247   9.104   2.145  0.00  0.00     0.210 HD
ENDBRANCH  36  54
BRANCH  49  56
HETATM   56  O   UNK N   1      22.793  16.617   6.080  0.00  0.00    -0.313 OA
BRANCH  56  57
HETATM   57  C   UNK N   1      22.285  17.841   5.794  0.00  0.00     0.255 C 
HETATM   58  O   UNK N   1      21.620  18.423   6.633  0.00  0.00    -0.266 OA
HETATM   59  C   UNK N   1      22.553  18.512   4.482  0.00  0.00     0.126 C 
ENDBRANCH  56  57
ENDBRANCH  49  56
BRANCH  50  60
HETATM   60  O   UNK N   1      23.268  14.078   4.614  0.00  0.00    -0.385 OA
HETATM   61  C   UNK N   1      21.957  14.122   4.138  0.00  0.00     0.202 C 
ENDBRANCH  50  60
ENDBRANCH   1  32
TORSDOF 17
ENDMDL
MODEL 3
REMARK VINA RESULT:      -7.3      2.341      5.251
REMARK  17 active torsions:
REMARK  status: ('A' for Active; 'I' for Inactive)
REMARK    1  A    between atoms: C_18  and  O_1 
REMARK    2  A    between atoms: C_24  and  O_1 
REMARK    3  A    between atoms: C_21  and  O_3 
REMARK    4  A    between atoms: C_22  and  O_3 
REMARK    5  A    between atoms: C_19  and  O_5 
REMARK    6  A    between atoms: C_23  and  O_6 
REMARK    7  A    between atoms: C_27  and  O_7 
REMARK    8  A    between atoms: O_7  and  C_43 
REMARK    9  A    between atoms: C_29  and  O_8 
REMARK   10  A    between atoms: C_34  and  O_9 
REMARK   11  A    between atoms: O_9  and  C_48 
REMARK   12  A    between atoms: C_39  and  O_10 
REMARK   13  A    between atoms: C_17  and  N_16 
REMARK   14  A    between atoms: C_25  and  C_33 
REMARK   15  A    between atoms: C_33  and  C_42 
REMARK   16  A    between atoms: C_43  and  C_47 
REMARK   17  A    between atoms: C_47  and  C_49 
ROOT
HETATM    1  O   UNK N   1      24.595  15.828   6.771  0.00  0.00    -0.350 OA
ENDROOT
BRANCH   1   2
HETATM    2  C   UNK N   1      25.679  15.997   5.887  0.00  0.00     0.291 C 
HETATM    3  O   UNK N   1      25.368  16.968   4.936  0.00  0.00    -0.351 OA
HETATM    4  C   UNK N   1      26.630  17.458   4.605  0.00  0.00     0.152 C 
HETATM    5  C   UNK N   1      27.394  16.466   3.712  0.00  0.00     0.189 C 
HETATM    6  C   UNK N   1      26.525  18.844   4.015  0.00  0.00     0.042 C 
HETATM    7  C   UNK N   1      26.835  15.014   3.806  0.00  0.00     0.286 C 
HETATM    8  C   UNK N   1      26.183  14.712   5.192  0.00  0.00     0.209 C 
BRANCH   5   9
HETATM    9  O   UNK N   1      28.756  16.524   4.043  0.00  0.00    -0.351 OA
BRANCH   9  10
HETATM   10  C   UNK N   1      29.392  15.272   3.819  0.00  0.00     0.264 C 
HETATM   11  O   UNK N   1      29.638  14.636   5.059  0.00  0.00    -0.354 OA
HETATM   12  C   UNK N   1      30.605  15.349   5.826  0.00  0.00     0.153 C 
HETATM   13  C   UNK N   1      31.784  15.940   5.026  0.00  0.00     0.194 C 
HETATM   14  C   UNK N   1      29.963  16.382   6.740  0.00  0.00     0.042 C 
HETATM   15  C   UNK N   1      31.970  15.164   3.723  0.00  0.00     0.087 C 
HETATM   16  C   UNK N   1      30.668  15.258   2.923  0.00  0.00     0.101 C 
HETATM   17  C   UNK N   1      33.095  15.751   2.891  0.00  0.00     0.049 C 
BRANCH  13  18
HETATM   18  O   UNK N   1      32.923  15.935   5.805  0.00  0.00    -0.310 OA
BRANCH  18  19
HETATM   19  C   UNK N   1      33.458  17.066   6.323  0.00  0.00     0.259 C 
HETATM   20  O   UNK N   1      33.971  17.906   5.587  0.00  0.00    -0.265 OA
BRANCH  19  21
HETATM   21  C   UNK N   1      33.360  17.308   7.802  0.00  0.00     0.115 C 
BRANCH  21  22
HETATM   22  C   UNK N   1      33.908  16.169   8.657  0.00  0.00    -0.013 C 
HETATM   23  C   UNK N   1      32.750  15.395   9.249  0.00  0.00     0.010 C 
HETATM   24  C   UNK N   1      34.752  16.718   9.795  0.00  0.00     0.010 C 
ENDBRANCH  21  22
ENDBRANCH  19  21
ENDBRANCH  18  19
ENDBRANCH  13  18
BRANCH  15  25
HETATM   25  O   UNK N   1      32.258  13.824   3.994  0.00  0.00    -0.387 OA
HETATM   26  H   UNK N   1      33.082  13.367   4.228  0.00  0.00     0.210 HD
ENDBRANCH  15  25
ENDBRANCH   9  10
ENDBRANCH   5   9
BRANCH   7  27
HETATM   27  N   UNK N   1      25.871  14.782   2.719  0.00  0.00     0.089 N 
HETATM   28  C   UNK N   1      25.856  13.365   2.377  0.00  0.00     0.310 C 
HETATM   29  C   UNK N   1      26.347  15.455   1.517  0.00  0.00     0.310 C 
ENDBRANCH   7  27
BRANCH   8  30
HETATM   30  O   UNK N   1      27.108  14.065   6.010  0.00  0.00    -0.388 OA
HETATM   31  H   UNK N   1      27.537  13.275   6.377  0.00  0.00     0.210 HD
ENDBRANCH   8  30
ENDBRANCH   1   2
BRANCH   1  32
HETATM   32  C   UNK N   1      23.423  15.482   6.052  0.00  0.00     0.160 C 
HETATM   33  C   UNK N   1      22.687  16.577   5.252  0.00  0.00     0.024 C 
HETATM   34  C   UNK N   1      22.818  16.509   3.727  0.00  0.00     0.014 C 
HETATM   35  C   UNK N   1      21.574  17.027   2.979  0.00  0.00     0.014 C 
HETATM   36  C   UNK N   1      20.289  16.264   3.347  0.00  0.00     0.144 C 
HETATM   37  C   UNK N   1      21.433  18.536   3.128  0.00  0.00     0.012 C 
HETATM   38  C   UNK N   1      20.287  14.941   2.654  0.00  0.00     0.005 C 
HETATM   39  C   UNK N   1      20.140  13.798   3.317  0.00  0.00    -0.002 C 
HETATM   40  C   UNK N   1      20.140  12.538   2.559  0.00  0.00    -0.004 C 
HETATM   41  C   UNK N   1      19.996  11.337   3.129  0.00  0.00    -0.024 C 
HETATM   42  C   UNK N   1      19.806  11.136   4.606  0.00  0.00     0.059 C 
HETATM   43  C   UNK N   1      20.895  10.267   5.254  0.00  0.00     0.131 C 
HETATM   44  O   UNK N   1      21.933  10.992   5.811  0.00  0.00    -0.316 OA
HETATM   45  C   UNK N   1      21.388   9.101   4.406  0.00  0.00     0.040 C 
HETATM   46  C   UNK N   1      22.826  11.767   5.140  0.00  0.00     0.261 C 
HETATM   47  O   UNK N   1      22.764  11.901   3.929  0.00  0.00    -0.265 OA
HETATM   48  C   UNK N   1      23.914  12.460   5.899  0.00  0.00     0.146 C 
HETATM   49  C   UNK N   1      23.405  13.244   7.117  0.00  0.00     0.172 C 
HETATM   50  C   UNK N   1      22.547  14.473   6.788  0.00  0.00     0.180 C 
BRANCH  33  51
HETATM   51  C   UNK N   1      22.423  17.934   5.884  0.00  0.00     0.076 C 
BRANCH  51  52
HETATM   52  C   UNK N   1      21.158  17.869   6.667  0.00  0.00     0.231 C 
HETATM   53  O   UNK N   1      20.826  18.811   7.367  0.00  0.00    -0.307 OA
ENDBRANCH  51  52
ENDBRANCH  33  51
BRANCH  36  54
HETATM   54  O   UNK N   1      19.160  16.967   2.920  0.00  0.00    -0.391 OA
HETATM   55  H   UNK N   1      18.990  17.399   2.068  0.00  0.00     0.210 HD
ENDBRANCH  36  54
BRANCH  49  56
HETATM   56  O   UNK N   1      22.800  12.400   8.018  0.00  0.00    -0.313 OA
BRANCH  56  57
HETATM   57  C   UNK N   1      23.218  12.314   9.305  0.00  0.00     0.255 C 
HETATM   58  O   UNK N   1      22.530  11.723  10.119  0.00  0.00    -0.266 OA
HETATM   59  C   UNK N   1      24.527  12.897   9.742  0.00  0.00     0.126 C 
ENDBRANCH  56  57
ENDBRANCH  49  56
BRANCH  50  60
HETATM   60  O   UNK N   1      21.427  14.126   6.028  0.00  0.00    -0.385 OA
HETATM   61  C   UNK N   1      20.338  14.292   6.885  0.00  0.00     0.202 C 
ENDBRANCH  50  60
ENDBRANCH   1  32
TORSDOF 17
ENDMDL
MODEL 4
REMARK VINA RESULT:      -7.3      3.303     10.466
REMARK  17 active torsions:
REMARK  status: ('A' for Active; 'I' for Inactive)
REMARK    1  A    between atoms: C_18  and  O_1 
REMARK    2  A    between atoms: C_24  and  O_1 
REMARK    3  A    between atoms: C_21  and  O_3 
REMARK    4  A    between atoms: C_22  and  O_3 
REMARK    5  A    between atoms: C_19  and  O_5 
REMARK    6  A    between atoms: C_23  and  O_6 
REMARK    7  A    between atoms: C_27  and  O_7 
REMARK    8  A    between atoms: O_7  and  C_43 
REMARK    9  A    between atoms: C_29  and  O_8 
REMARK   10  A    between atoms: C_34  and  O_9 
REMARK   11  A    between atoms: O_9  and  C_48 
REMARK   12  A    between atoms: C_39  and  O_10 
REMARK   13  A    between atoms: C_17  and  N_16 
REMARK   14  A    between atoms: C_25  and  C_33 
REMARK   15  A    between atoms: C_33  and  C_42 
REMARK   16  A    between atoms: C_43  and  C_47 
REMARK   17  A    between atoms: C_47  and  C_49 
ROOT
HETATM    1  O   UNK N   1      30.878  14.814   3.767  0.00  0.00    -0.350 OA
ENDROOT
BRANCH   1   2
HETATM    2  C   UNK N   1      29.538  14.552   4.115  0.00  0.00     0.291 C 
HETATM    3  O   UNK N   1      29.187  13.264   3.716  0.00  0.00    -0.351 OA
HETATM    4  C   UNK N   1      28.187  12.944   4.632  0.00  0.00     0.152 C 
HETATM    5  C   UNK N   1      26.875  13.675   4.300  0.00  0.00     0.189 C 
HETATM    6  C   UNK N   1      28.029  11.446   4.746  0.00  0.00     0.042 C 
HETATM    7  C   UNK N   1      27.093  14.924   3.394  0.00  0.00     0.286 C 
HETATM    8  C   UNK N   1      28.500  15.573   3.596  0.00  0.00     0.209 C 
BRANCH   5   9
HETATM    9  O   UNK N   1      26.233  14.007   5.502  0.00  0.00    -0.351 OA
BRANCH   9  10
HETATM   10  C   UNK N   1      24.883  14.392   5.273  0.00  0.00     0.264 C 
HETATM   11  O   UNK N   1      24.338  14.937   6.459  0.00  0.00    -0.354 OA
HETATM   12  C   UNK N   1      24.216  13.949   7.479  0.00  0.00     0.153 C 
HETATM   13  C   UNK N   1      23.759  12.555   7.000  0.00  0.00     0.194 C 
HETATM   14  C   UNK N   1      25.458  13.872   8.353  0.00  0.00     0.042 C 
HETATM   15  C   UNK N   1      22.995  12.680   5.684  0.00  0.00     0.087 C 
HETATM   16  C   UNK N   1      23.922  13.331   4.654  0.00  0.00     0.101 C 
HETATM   17  C   UNK N   1      22.571  11.319   5.164  0.00  0.00     0.049 C 
BRANCH  13  18
HETATM   18  O   UNK N   1      23.007  11.950   7.987  0.00  0.00    -0.310 OA
BRANCH  18  19
HETATM   19  C   UNK N   1      22.133  12.635   8.762  0.00  0.00     0.259 C 
HETATM   20  O   UNK N   1      21.005  12.892   8.350  0.00  0.00    -0.265 OA
BRANCH  19  21
HETATM   21  C   UNK N   1      22.543  13.020  10.155  0.00  0.00     0.115 C 
BRANCH  21  22
HETATM   22  C   UNK N   1      23.116  11.869  10.976  0.00  0.00    -0.013 C 
HETATM   23  C   UNK N   1      22.466  11.868  12.343  0.00  0.00     0.010 C 
HETATM   24  C   UNK N   1      24.615  12.040  11.156  0.00  0.00     0.010 C 
ENDBRANCH  21  22
ENDBRANCH  19  21
ENDBRANCH  18  19
ENDBRANCH  13  18
BRANCH  15  25
HETATM   25  O   UNK N   1      21.857  13.473   5.858  0.00  0.00    -0.387 OA
HETATM   26  H   UNK N   1      21.642  14.177   6.490  0.00  0.00     0.210 HD
ENDBRANCH  15  25
ENDBRANCH   9  10
ENDBRANCH   5   9
BRANCH   7  27
HETATM   27  N   UNK N   1      26.891  14.557   1.984  0.00  0.00     0.089 N 
HETATM   28  C   UNK N   1      25.953  15.487   1.369  0.00  0.00     0.310 C 
HETATM   29  C   UNK N   1      26.227  13.260   1.927  0.00  0.00     0.310 C 
ENDBRANCH   7  27
BRANCH   8  30
HETATM   30  O   UNK N   1      28.397  16.638   4.489  0.00  0.00    -0.388 OA
HETATM   31  H   UNK N   1      28.673  17.144   5.270  0.00  0.00     0.210 HD
ENDBRANCH   8  30
ENDBRANCH   1   2
BRANCH   1  32
HETATM   32  C   UNK N   1      31.712  14.712   4.909  0.00  0.00     0.160 C 
HETATM   33  C   UNK N   1      31.710  15.860   5.940  0.00  0.00     0.024 C 
HETATM   34  C   UNK N   1      31.009  15.576   7.273  0.00  0.00     0.014 C 
HETATM   35  C   UNK N   1      31.639  16.315   8.469  0.00  0.00     0.014 C 
HETATM   36  C   UNK N   1      33.128  15.977   8.670  0.00  0.00     0.144 C 
HETATM   37  C   UNK N   1      31.375  17.813   8.389  0.00  0.00     0.012 C 
HETATM   38  C   UNK N   1      33.244  14.630   9.304  0.00  0.00     0.005 C 
HETATM   39  C   UNK N   1      33.973  13.657   8.765  0.00  0.00    -0.002 C 
HETATM   40  C   UNK N   1      34.043  12.362   9.457  0.00  0.00    -0.004 C 
HETATM   41  C   UNK N   1      34.750  11.322   9.001  0.00  0.00    -0.024 C 
HETATM   42  C   UNK N   1      35.562  11.360   7.737  0.00  0.00     0.059 C 
HETATM   43  C   UNK N   1      35.130  10.314   6.698  0.00  0.00     0.131 C 
HETATM   44  O   UNK N   1      34.236  10.795   5.757  0.00  0.00    -0.316 OA
HETATM   45  C   UNK N   1      34.709   8.965   7.267  0.00  0.00     0.040 C 
HETATM   46  C   UNK N   1      32.965  11.214   5.995  0.00  0.00     0.261 C 
HETATM   47  O   UNK N   1      32.497  11.212   7.121  0.00  0.00    -0.265 OA
HETATM   48  C   UNK N   1      32.118  11.674   4.851  0.00  0.00     0.146 C 
HETATM   49  C   UNK N   1      32.812  12.708   3.953  0.00  0.00     0.172 C 
HETATM   50  C   UNK N   1      33.064  14.073   4.605  0.00  0.00     0.180 C 
BRANCH  33  51
HETATM   51  C   UNK N   1      31.790  17.305   5.472  0.00  0.00     0.076 C 
BRANCH  51  52
HETATM   52  C   UNK N   1      33.192  17.611   5.076  0.00  0.00     0.231 C 
HETATM   53  O   UNK N   1      34.025  17.859   5.932  0.00  0.00    -0.307 OA
ENDBRANCH  51  52
ENDBRANCH  33  51
BRANCH  36  54
HETATM   54  O   UNK N   1      33.730  16.902   9.526  0.00  0.00    -0.391 OA
HETATM   55  H   UNK N   1      33.577  17.056  10.472  0.00  0.00     0.210 HD
ENDBRANCH  36  54
BRANCH  49  56
HETATM   56  O   UNK N   1      33.945  12.173   3.387  0.00  0.00    -0.313 OA
BRANCH  56  57
HETATM   57  C   UNK N   1      34.441  12.636   2.213  0.00  0.00     0.255 C 
HETATM   58  O   UNK N   1      35.603  13.000   2.157  0.00  0.00    -0.266 OA
HETATM   59  C   UNK N   1      33.604  12.675   0.972  0.00  0.00     0.126 C 
ENDBRANCH  56  57
ENDBRANCH  49  56
BRANCH  50  60
HETATM   60  O   UNK N   1      33.837  13.951   5.764  0.00  0.00    -0.385 OA
HETATM   61  C   UNK N   1      35.083  14.482   5.428  0.00  0.00     0.202 C 
ENDBRANCH  50  60
ENDBRANCH   1  32
TORSDOF 17
ENDMDL
MODEL 5
REMARK VINA RESULT:      -7.1      2.167      3.838
REMARK  17 active torsions:
REMARK  status: ('A' for Active; 'I' for Inactive)
REMARK    1  A    between atoms: C_18  and  O_1 
REMARK    2  A    between atoms: C_24  and  O_1 
REMARK    3  A    between atoms: C_21  and  O_3 
REMARK    4  A    between atoms: C_22  and  O_3 
REMARK    5  A    between atoms: C_19  and  O_5 
REMARK    6  A    between atoms: C_23  and  O_6 
REMARK    7  A    between atoms: C_27  and  O_7 
REMARK    8  A    between atoms: O_7  and  C_43 
REMARK    9  A    between atoms: C_29  and  O_8 
REMARK   10  A    between atoms: C_34  and  O_9 
REMARK   11  A    between atoms: O_9  and  C_48 
REMARK   12  A    between atoms: C_39  and  O_10 
REMARK   13  A    between atoms: C_17  and  N_16 
REMARK   14  A    between atoms: C_25  and  C_33 
REMARK   15  A    between atoms: C_33  and  C_42 
REMARK   16  A    between atoms: C_43  and  C_47 
REMARK   17  A    between atoms: C_47  and  C_49 
ROOT
HETATM    1  O   UNK N   1      25.568  16.643   3.642  0.00  0.00    -0.350 OA
ENDROOT
BRANCH   1   2
HETATM    2  C   UNK N   1      26.883  16.860   4.099  0.00  0.00     0.291 C 
HETATM    3  O   UNK N   1      27.183  15.964   5.124  0.00  0.00    -0.351 OA
HETATM    4  C   UNK N   1      28.567  15.852   5.010  0.00  0.00     0.152 C 
HETATM    5  C   UNK N   1      29.273  17.104   5.556  0.00  0.00     0.189 C 
HETATM    6  C   UNK N   1      29.051  14.566   5.636  0.00  0.00     0.042 C 
HETATM    7  C   UNK N   1      28.333  18.346   5.623  0.00  0.00     0.286 C 
HETATM    8  C   UNK N   1      27.207  18.305   4.542  0.00  0.00     0.209 C 
BRANCH   5   9
HETATM    9  O   UNK N   1      30.411  17.353   4.774  0.00  0.00    -0.351 OA
BRANCH   9  10
HETATM   10  C   UNK N   1      31.562  17.542   5.588  0.00  0.00     0.264 C 
HETATM   11  O   UNK N   1      32.698  17.728   4.766  0.00  0.00    -0.354 OA
HETATM   12  C   UNK N   1      33.016  16.542   4.042  0.00  0.00     0.153 C 
HETATM   13  C   UNK N   1      32.846  15.222   4.822  0.00  0.00     0.194 C 
HETATM   14  C   UNK N   1      32.324  16.496   2.688  0.00  0.00     0.042 C 
HETATM   15  C   UNK N   1      32.941  15.487   6.323  0.00  0.00     0.087 C 
HETATM   16  C   UNK N   1      31.844  16.486   6.700  0.00  0.00     0.101 C 
HETATM   17  C   UNK N   1      32.733  14.213   7.120  0.00  0.00     0.049 C 
BRANCH  13  18
HETATM   18  O   UNK N   1      33.784  14.306   4.392  0.00  0.00    -0.310 OA
BRANCH  18  19
HETATM   19  C   UNK N   1      33.461  13.233   3.630  0.00  0.00     0.259 C 
HETATM   20  O   UNK N   1      34.267  12.778   2.822  0.00  0.00    -0.265 OA
BRANCH  19  21
HETATM   21  C   UNK N   1      32.128  12.571   3.833  0.00  0.00     0.115 C 
BRANCH  21  22
HETATM   22  C   UNK N   1      31.357  12.315   2.542  0.00  0.00    -0.013 C 
HETATM   23  C   UNK N   1      30.377  13.447   2.320  0.00  0.00     0.010 C 
HETATM   24  C   UNK N   1      30.577  11.014   2.638  0.00  0.00     0.010 C 
ENDBRANCH  21  22
ENDBRANCH  19  21
ENDBRANCH  18  19
ENDBRANCH  13  18
BRANCH  15  25
HETATM   25  O   UNK N   1      34.192  16.022   6.642  0.00  0.00    -0.387 OA
HETATM   26  H   UNK N   1      34.592  16.891   6.478  0.00  0.00     0.210 HD
ENDBRANCH  15  25
ENDBRANCH   9  10
ENDBRANCH   5   9
BRANCH   7  27
HETATM   27  N   UNK N   1      27.752  18.457   6.971  0.00  0.00     0.089 N 
HETATM   28  C   UNK N   1      27.471  19.856   7.266  0.00  0.00     0.310 C 
HETATM   29  C   UNK N   1      28.757  18.060   7.950  0.00  0.00     0.310 C 
ENDBRANCH   7  27
BRANCH   8  30
HETATM   30  O   UNK N   1      27.596  19.062   3.438  0.00  0.00    -0.388 OA
HETATM   31  H   UNK N   1      27.581  19.289   2.494  0.00  0.00     0.210 HD
ENDBRANCH   8  30
ENDBRANCH   1   2
BRANCH   1  32
HETATM   32  C   UNK N   1      25.211  15.280   3.799  0.00  0.00     0.160 C 
HETATM   33  C   UNK N   1      25.751  14.246   2.790  0.00  0.00     0.024 C 
HETATM   34  C   UNK N   1      26.851  13.307   3.299  0.00  0.00     0.014 C 
HETATM   35  C   UNK N   1      26.816  11.910   2.651  0.00  0.00     0.014 C 
HETATM   36  C   UNK N   1      25.477  11.180   2.865  0.00  0.00     0.144 C 
HETATM   37  C   UNK N   1      27.232  11.972   1.187  0.00  0.00     0.012 C 
HETATM   38  C   UNK N   1      25.423  10.653   4.261  0.00  0.00     0.005 C 
HETATM   39  C   UNK N   1      24.421  10.942   5.086  0.00  0.00    -0.002 C 
HETATM   40  C   UNK N   1      24.437  10.375   6.442  0.00  0.00    -0.004 C 
HETATM   41  C   UNK N   1      23.478  10.602   7.346  0.00  0.00    -0.024 C 
HETATM   42  C   UNK N   1      22.268  11.452   7.077  0.00  0.00     0.059 C 
HETATM   43  C   UNK N   1      22.138  12.653   8.027  0.00  0.00     0.131 C 
HETATM   44  O   UNK N   1      22.675  13.825   7.526  0.00  0.00    -0.316 OA
HETATM   45  C   UNK N   1      22.553  12.391   9.470  0.00  0.00     0.040 C 
HETATM   46  C   UNK N   1      23.989  14.061   7.264  0.00  0.00     0.261 C 
HETATM   47  O   UNK N   1      24.836  13.203   7.447  0.00  0.00    -0.265 OA
HETATM   48  C   UNK N   1      24.405  15.405   6.754  0.00  0.00     0.146 C 
HETATM   49  C   UNK N   1      23.574  15.889   5.557  0.00  0.00     0.172 C 
HETATM   50  C   UNK N   1      23.770  15.090   4.263  0.00  0.00     0.180 C 
BRANCH  33  51
HETATM   51  C   UNK N   1      25.700  14.538   1.298  0.00  0.00     0.076 C 
BRANCH  51  52
HETATM   52  C   UNK N   1      24.307  14.340   0.811  0.00  0.00     0.231 C 
HETATM   53  O   UNK N   1      23.848  13.214   0.723  0.00  0.00    -0.307 OA
ENDBRANCH  51  52
ENDBRANCH  33  51
BRANCH  36  54
HETATM   54  O   UNK N   1      25.366  10.092   1.996  0.00  0.00    -0.391 OA
HETATM   55  H   UNK N   1      24.827   9.290   2.079  0.00  0.00     0.210 HD
ENDBRANCH  36  54
BRANCH  49  56
HETATM   56  O   UNK N   1      22.251  16.016   5.907  0.00  0.00    -0.313 OA
BRANCH  56  57
HETATM   57  C   UNK N   1      21.762  17.163   6.438  0.00  0.00     0.255 C 
HETATM   58  O   UNK N   1      22.187  18.235   6.043  0.00  0.00    -0.266 OA
HETATM   59  C   UNK N   1      20.680  17.146   7.475  0.00  0.00     0.126 C 
ENDBRANCH  56  57
ENDBRANCH  49  56
BRANCH  50  60
HETATM   60  O   UNK N   1      23.473  13.736   4.447  0.00  0.00    -0.385 OA
HETATM   61  C   UNK N   1      22.234  13.548   3.833  0.00  0.00     0.202 C 
ENDBRANCH  50  60
ENDBRANCH   1  32
TORSDOF 17
ENDMDL
MODEL 6
REMARK VINA RESULT:      -7.1      2.665      9.857
REMARK  17 active torsions:
REMARK  status: ('A' for Active; 'I' for Inactive)
REMARK    1  A    between atoms: C_18  and  O_1 
REMARK    2  A    between atoms: C_24  and  O_1 
REMARK    3  A    between atoms: C_21  and  O_3 
REMARK    4  A    between atoms: C_22  and  O_3 
REMARK    5  A    between atoms: C_19  and  O_5 
REMARK    6  A    between atoms: C_23  and  O_6 
REMARK    7  A    between atoms: C_27  and  O_7 
REMARK    8  A    between atoms: O_7  and  C_43 
REMARK    9  A    between atoms: C_29  and  O_8 
REMARK   10  A    between atoms: C_34  and  O_9 
REMARK   11  A    between atoms: O_9  and  C_48 
REMARK   12  A    between atoms: C_39  and  O_10 
REMARK   13  A    between atoms: C_17  and  N_16 
REMARK   14  A    between atoms: C_25  and  C_33 
REMARK   15  A    between atoms: C_33  and  C_42 
REMARK   16  A    between atoms: C_43  and  C_47 
REMARK   17  A    between atoms: C_47  and  C_49 
ROOT
HETATM    1  O   UNK N   1      28.796  16.008   3.318  0.00  0.00    -0.350 OA
ENDROOT
BRANCH   1   2
HETATM    2  C   UNK N   1      27.687  15.204   3.646  0.00  0.00     0.291 C 
HETATM    3  O   UNK N   1      28.010  13.858   3.480  0.00  0.00    -0.351 OA
HETATM    4  C   UNK N   1      27.154  13.244   4.392  0.00  0.00     0.152 C 
HETATM    5  C   UNK N   1      25.708  13.221   3.869  0.00  0.00     0.189 C 
HETATM    6  C   UNK N   1      27.677  11.880   4.776  0.00  0.00     0.042 C 
HETATM    7  C   UNK N   1      25.452  14.283   2.757  0.00  0.00     0.286 C 
HETATM    8  C   UNK N   1      26.375  15.534   2.898  0.00  0.00     0.209 C 
BRANCH   5   9
HETATM    9  O   UNK N   1      24.838  13.385   4.957  0.00  0.00    -0.351 OA
BRANCH   9  10
HETATM   10  C   UNK N   1      23.678  14.117   4.581  0.00  0.00     0.264 C 
HETATM   11  O   UNK N   1      23.581  15.288   5.369  0.00  0.00    -0.354 OA
HETATM   12  C   UNK N   1      23.326  14.975   6.736  0.00  0.00     0.153 C 
HETATM   13  C   UNK N   1      22.346  13.808   6.979  0.00  0.00     0.194 C 
HETATM   14  C   UNK N   1      24.611  14.815   7.535  0.00  0.00     0.042 C 
HETATM   15  C   UNK N   1      21.436  13.630   5.765  0.00  0.00     0.087 C 
HETATM   16  C   UNK N   1      22.319  13.354   4.545  0.00  0.00     0.101 C 
HETATM   17  C   UNK N   1      20.490  12.460   5.956  0.00  0.00     0.049 C 
BRANCH  13  18
HETATM   18  O   UNK N   1      21.634  14.035   8.139  0.00  0.00    -0.310 OA
BRANCH  18  19
HETATM   19  C   UNK N   1      21.499  13.098   9.108  0.00  0.00     0.259 C 
HETATM   20  O   UNK N   1      20.425  12.950   9.685  0.00  0.00    -0.265 OA
BRANCH  19  21
HETATM   21  C   UNK N   1      22.664  12.204   9.422  0.00  0.00     0.115 C 
BRANCH  21  22
HETATM   22  C   UNK N   1      23.446  12.612  10.667  0.00  0.00    -0.013 C 
HETATM   23  C   UNK N   1      24.907  12.273  10.466  0.00  0.00     0.010 C 
HETATM   24  C   UNK N   1      22.939  11.857  11.885  0.00  0.00     0.010 C 
ENDBRANCH  21  22
ENDBRANCH  19  21
ENDBRANCH  18  19
ENDBRANCH  13  18
BRANCH  15  25
HETATM   25  O   UNK N   1      20.686  14.789   5.549  0.00  0.00    -0.387 OA
HETATM   26  H   UNK N   1      20.677  15.653   5.990  0.00  0.00     0.210 HD
ENDBRANCH  15  25
ENDBRANCH   9  10
ENDBRANCH   5   9
BRANCH   7  27
HETATM   27  N   UNK N   1      25.619  13.664   1.432  0.00  0.00     0.089 N 
HETATM   28  C   UNK N   1      24.492  14.024   0.581  0.00  0.00     0.310 C 
HETATM   29  C   UNK N   1      25.534  12.216   1.576  0.00  0.00     0.310 C 
ENDBRANCH   7  27
BRANCH   8  30
HETATM   30  O   UNK N   1      25.689  16.545   3.571  0.00  0.00    -0.388 OA
HETATM   31  H   UNK N   1      25.155  17.354   3.606  0.00  0.00     0.210 HD
ENDBRANCH   8  30
ENDBRANCH   1   2
BRANCH   1  32
HETATM   32  C   UNK N   1      29.584  16.256   4.470  0.00  0.00     0.160 C 
HETATM   33  C   UNK N   1      29.103  17.308   5.491  0.00  0.00     0.024 C 
HETATM   34  C   UNK N   1      28.557  16.770   6.818  0.00  0.00     0.014 C 
HETATM   35  C   UNK N   1      28.817  17.705   8.014  0.00  0.00     0.014 C 
HETATM   36  C   UNK N   1      30.312  17.998   8.236  0.00  0.00     0.144 C 
HETATM   37  C   UNK N   1      27.971  18.969   7.918  0.00  0.00     0.012 C 
HETATM   38  C   UNK N   1      30.952  16.815   8.884  0.00  0.00     0.005 C 
HETATM   39  C   UNK N   1      32.020  16.218   8.364  0.00  0.00    -0.002 C 
HETATM   40  C   UNK N   1      32.597  15.064   9.068  0.00  0.00    -0.004 C 
HETATM   41  C   UNK N   1      33.670  14.396   8.630  0.00  0.00    -0.024 C 
HETATM   42  C   UNK N   1      34.416  14.754   7.376  0.00  0.00     0.059 C 
HETATM   43  C   UNK N   1      34.459  13.619   6.341  0.00  0.00     0.131 C 
HETATM   44  O   UNK N   1      33.462  13.695   5.386  0.00  0.00    -0.316 OA
HETATM   45  C   UNK N   1      34.610  12.217   6.917  0.00  0.00     0.040 C 
HETATM   46  C   UNK N   1      32.126  13.565   5.604  0.00  0.00     0.261 C 
HETATM   47  O   UNK N   1      31.682  13.379   6.724  0.00  0.00    -0.265 OA
HETATM   48  C   UNK N   1      31.182  13.640   4.445  0.00  0.00     0.146 C 
HETATM   49  C   UNK N   1      31.413  14.863   3.546  0.00  0.00     0.172 C 
HETATM   50  C   UNK N   1      31.082  16.216   4.189  0.00  0.00     0.180 C 
BRANCH  33  51
HETATM   51  C   UNK N   1      28.599  18.661   5.011  0.00  0.00     0.076 C 
BRANCH  51  52
HETATM   52  C   UNK N   1      27.116  18.613   4.891  0.00  0.00     0.231 C 
HETATM   53  O   UNK N   1      26.564  19.156   3.949  0.00  0.00    -0.307 OA
ENDBRANCH  51  52
ENDBRANCH  33  51
BRANCH  36  54
HETATM   54  O   UNK N   1      30.477  19.090   9.092  0.00  0.00    -0.391 OA
HETATM   55  H   UNK N   1      29.831  19.759   9.367  0.00  0.00     0.210 HD
ENDBRANCH  36  54
BRANCH  49  56
HETATM   56  O   UNK N   1      32.673  14.830   2.999  0.00  0.00    -0.313 OA
BRANCH  56  57
HETATM   57  C   UNK N   1      33.070  13.822   2.184  0.00  0.00     0.255 C 
HETATM   58  O   UNK N   1      32.247  13.260   1.483  0.00  0.00    -0.266 OA
HETATM   59  C   UNK N   1      34.507  13.407   2.097  0.00  0.00     0.126 C 
ENDBRANCH  56  57
ENDBRANCH  49  56
BRANCH  50  60
HETATM   60  O   UNK N   1      31.821  16.421   5.358  0.00  0.00    -0.385 OA
HETATM   61  C   UNK N   1      32.738  17.423   5.038  0.00  0.00     0.202 C 
ENDBRANCH  50  60
ENDBRANCH   1  32
TORSDOF 17
ENDMDL
MODEL 7
REMARK VINA RESULT:      -7.1      6.499     14.038
REMARK  17 active torsions:
REMARK  status: ('A' for Active; 'I' for Inactive)
REMARK    1  A    between atoms: C_18  and  O_1 
REMARK    2  A    between atoms: C_24  and  O_1 
REMARK    3  A    between atoms: C_21  and  O_3 
REMARK    4  A    between atoms: C_22  and  O_3 
REMARK    5  A    between atoms: C_19  and  O_5 
REMARK    6  A    between atoms: C_23  and  O_6 
REMARK    7  A    between atoms: C_27  and  O_7 
REMARK    8  A    between atoms: O_7  and  C_43 
REMARK    9  A    between atoms: C_29  and  O_8 
REMARK   10  A    between atoms: C_34  and  O_9 
REMARK   11  A    between atoms: O_9  and  C_48 
REMARK   12  A    between atoms: C_39  and  O_10 
REMARK   13  A    between atoms: C_17  and  N_16 
REMARK   14  A    between atoms: C_25  and  C_33 
REMARK   15  A    between atoms: C_33  and  C_42 
REMARK   16  A    between atoms: C_43  and  C_47 
REMARK   17  A    between atoms: C_47  and  C_49 
ROOT
HETATM    1  O   UNK N   1      36.834  10.245  10.047  0.00  0.00    -0.350 OA
ENDROOT
BRANCH   1   2
HETATM    2  C   UNK N   1      35.740  10.662   9.265  0.00  0.00     0.291 C 
HETATM    3  O   UNK N   1      34.667   9.791   9.447  0.00  0.00    -0.351 OA
HETATM    4  C   UNK N   1      33.578  10.620   9.185  0.00  0.00     0.152 C 
HETATM    5  C   UNK N   1      33.432  10.886   7.677  0.00  0.00     0.189 C 
HETATM    6  C   UNK N   1      32.325  10.070   9.823  0.00  0.00     0.042 C 
HETATM    7  C   UNK N   1      34.750  10.620   6.887  0.00  0.00     0.286 C 
HETATM    8  C   UNK N   1      36.027  10.847   7.758  0.00  0.00     0.209 C 
BRANCH   5   9
HETATM    9  O   UNK N   1      32.972  12.198   7.497  0.00  0.00    -0.351 OA
BRANCH   9  10
HETATM   10  C   UNK N   1      33.223  12.653   6.173  0.00  0.00     0.264 C 
HETATM   11  O   UNK N   1      34.316  13.551   6.180  0.00  0.00    -0.354 OA
HETATM   12  C   UNK N   1      33.996  14.756   6.872  0.00  0.00     0.153 C 
HETATM   13  C   UNK N   1      32.569  15.294   6.643  0.00  0.00     0.194 C 
HETATM   14  C   UNK N   1      34.344  14.675   8.351  0.00  0.00     0.042 C 
HETATM   15  C   UNK N   1      32.021  14.771   5.316  0.00  0.00     0.087 C 
HETATM   16  C   UNK N   1      32.023  13.241   5.370  0.00  0.00     0.101 C 
HETATM   17  C   UNK N   1      30.600  15.248   5.084  0.00  0.00     0.049 C 
BRANCH  13  18
HETATM   18  O   UNK N   1      32.579  16.673   6.699  0.00  0.00    -0.310 OA
BRANCH  18  19
HETATM   19  C   UNK N   1      32.386  17.358   7.851  0.00  0.00     0.259 C 
HETATM   20  O   UNK N   1      33.179  18.230   8.197  0.00  0.00    -0.265 OA
BRANCH  19  21
HETATM   21  C   UNK N   1      31.157  17.079   8.667  0.00  0.00     0.115 C 
BRANCH  21  22
HETATM   22  C   UNK N   1      30.005  18.046   8.409  0.00  0.00    -0.013 C 
HETATM   23  C   UNK N   1      29.526  18.607   9.731  0.00  0.00     0.010 C 
HETATM   24  C   UNK N   1      28.845  17.326   7.743  0.00  0.00     0.010 C 
ENDBRANCH  21  22
ENDBRANCH  19  21
ENDBRANCH  18  19
ENDBRANCH  13  18
BRANCH  15  25
HETATM   25  O   UNK N   1      32.824  15.205   4.257  0.00  0.00    -0.387 OA
HETATM   26  H   UNK N   1      32.978  14.850   3.367  0.00  0.00     0.210 HD
ENDBRANCH  15  25
ENDBRANCH   9  10
ENDBRANCH   5   9
BRANCH   7  27
HETATM   27  N   UNK N   1      34.734   9.254   6.340  0.00  0.00     0.089 N 
HETATM   28  C   UNK N   1      35.545   9.205   5.131  0.00  0.00     0.310 C 
HETATM   29  C   UNK N   1      33.380   8.941   5.898  0.00  0.00     0.310 C 
ENDBRANCH   7  27
BRANCH   8  30
HETATM   30  O   UNK N   1      36.525  12.128   7.525  0.00  0.00    -0.388 OA
HETATM   31  H   UNK N   1      37.209  12.752   7.234  0.00  0.00     0.210 HD
ENDBRANCH   8  30
ENDBRANCH   1   2
BRANCH   1  32
HETATM   32  C   UNK N   1      36.799  10.874  11.318  0.00  0.00     0.160 C 
HETATM   33  C   UNK N   1      36.735  12.414  11.388  0.00  0.00     0.024 C 
HETATM   34  C   UNK N   1      35.393  13.021  11.811  0.00  0.00     0.014 C 
HETATM   35  C   UNK N   1      35.535  14.342  12.590  0.00  0.00     0.014 C 
HETATM   36  C   UNK N   1      36.379  14.200  13.870  0.00  0.00     0.144 C 
HETATM   37  C   UNK N   1      36.016  15.467  11.683  0.00  0.00     0.012 C 
HETATM   38  C   UNK N   1      35.559  13.538  14.928  0.00  0.00     0.005 C 
HETATM   39  C   UNK N   1      35.969  12.440  15.556  0.00  0.00    -0.002 C 
HETATM   40  C   UNK N   1      35.107  11.855  16.592  0.00  0.00    -0.004 C 
HETATM   41  C   UNK N   1      35.428  10.756  17.282  0.00  0.00    -0.024 C 
HETATM   42  C   UNK N   1      36.711   9.999  17.087  0.00  0.00     0.059 C 
HETATM   43  C   UNK N   1      36.503   8.534  16.672  0.00  0.00     0.131 C 
HETATM   44  O   UNK N   1      36.548   8.328  15.305  0.00  0.00    -0.316 OA
HETATM   45  C   UNK N   1      35.322   7.831  17.329  0.00  0.00     0.040 C 
HETATM   46  C   UNK N   1      35.665   8.806  14.388  0.00  0.00     0.261 C 
HETATM   47  O   UNK N   1      34.723   9.506  14.721  0.00  0.00    -0.265 OA
HETATM   48  C   UNK N   1      35.844   8.457  12.944  0.00  0.00     0.146 C 
HETATM   49  C   UNK N   1      37.267   8.707  12.426  0.00  0.00     0.172 C 
HETATM   50  C   UNK N   1      37.683  10.182  12.351  0.00  0.00     0.180 C 
BRANCH  33  51
HETATM   51  C   UNK N   1      37.653  13.255  10.514  0.00  0.00     0.076 C 
BRANCH  51  52
HETATM   52  C   UNK N   1      39.011  12.646  10.508  0.00  0.00     0.231 C 
HETATM   53  O   UNK N   1      39.532  12.328   9.452  0.00  0.00    -0.307 OA
ENDBRANCH  51  52
ENDBRANCH  33  51
BRANCH  36  54
HETATM   54  O   UNK N   1      36.758  15.455  14.351  0.00  0.00    -0.391 OA
HETATM   55  H   UNK N   1      36.238  16.107  14.847  0.00  0.00     0.210 HD
ENDBRANCH  36  54
BRANCH  49  56
HETATM   56  O   UNK N   1      38.174   7.935  13.112  0.00  0.00    -0.313 OA
BRANCH  56  57
HETATM   57  C   UNK N   1      39.350   7.553  12.555  0.00  0.00     0.255 C 
HETATM   58  O   UNK N   1      40.378   7.650  13.202  0.00  0.00    -0.266 OA
HETATM   59  C   UNK N   1      39.410   6.978  11.173  0.00  0.00     0.126 C 
ENDBRANCH  56  57
ENDBRANCH  49  56
BRANCH  50  60
HETATM   60  O   UNK N   1      37.585  10.805  13.599  0.00  0.00    -0.385 OA
HETATM   61  C   UNK N   1      38.885  10.808  14.107  0.00  0.00     0.202 C 
ENDBRANCH  50  60
ENDBRANCH   1  32
TORSDOF 17
ENDMDL
MODEL 8
REMARK VINA RESULT:      -7.0      2.627      4.942
REMARK  17 active torsions:
REMARK  status: ('A' for Active; 'I' for Inactive)
REMARK    1  A    between atoms: C_18  and  O_1 
REMARK    2  A    between atoms: C_24  and  O_1 
REMARK    3  A    between atoms: C_21  and  O_3 
REMARK    4  A    between atoms: C_22  and  O_3 
REMARK    5  A    between atoms: C_19  and  O_5 
REMARK    6  A    between atoms: C_23  and  O_6 
REMARK    7  A    between atoms: C_27  and  O_7 
REMARK    8  A    between atoms: O_7  and  C_43 
REMARK    9  A    between atoms: C_29  and  O_8 
REMARK   10  A    between atoms: C_34  and  O_9 
REMARK   11  A    between atoms: O_9  and  C_48 
REMARK   12  A    between atoms: C_39  and  O_10 
REMARK   13  A    between atoms: C_17  and  N_16 
REMARK   14  A    between atoms: C_25  and  C_33 
REMARK   15  A    between atoms: C_33  and  C_42 
REMARK   16  A    between atoms: C_43  and  C_47 
REMARK   17  A    between atoms: C_47  and  C_49 
ROOT
HETATM    1  O   UNK N   1      25.551  12.322   3.456  0.00  0.00    -0.350 OA
ENDROOT
BRANCH   1   2
HETATM    2  C   UNK N   1      26.774  12.938   3.782  0.00  0.00     0.291 C 
HETATM    3  O   UNK N   1      27.057  13.947   2.864  0.00  0.00    -0.351 OA
HETATM    4  C   UNK N   1      27.843  14.812   3.622  0.00  0.00     0.152 C 
HETATM    5  C   UNK N   1      29.260  14.247   3.818  0.00  0.00     0.189 C 
HETATM    6  C   UNK N   1      27.826  16.203   3.034  0.00  0.00     0.042 C 
HETATM    7  C   UNK N   1      29.333  12.706   3.591  0.00  0.00     0.286 C 
HETATM    8  C   UNK N   1      27.986  11.988   3.920  0.00  0.00     0.209 C 
BRANCH   5   9
HETATM    9  O   UNK N   1      29.712  14.607   5.097  0.00  0.00    -0.351 OA
BRANCH   9  10
HETATM   10  C   UNK N   1      30.425  15.837   5.061  0.00  0.00     0.264 C 
HETATM   11  O   UNK N   1      31.773  15.594   4.706  0.00  0.00    -0.354 OA
HETATM   12  C   UNK N   1      32.455  14.863   5.722  0.00  0.00     0.153 C 
HETATM   13  C   UNK N   1      32.108  15.260   7.172  0.00  0.00     0.194 C 
HETATM   14  C   UNK N   1      32.363  13.360   5.505  0.00  0.00     0.042 C 
HETATM   15  C   UNK N   1      31.577  16.691   7.208  0.00  0.00     0.087 C 
HETATM   16  C   UNK N   1      30.336  16.762   6.314  0.00  0.00     0.101 C 
HETATM   17  C   UNK N   1      31.185  17.096   8.617  0.00  0.00     0.049 C 
BRANCH  13  18
HETATM   18  O   UNK N   1      33.217  15.092   7.976  0.00  0.00    -0.310 OA
BRANCH  18  19
HETATM   19  C   UNK N   1      33.308  14.103   8.897  0.00  0.00     0.259 C 
HETATM   20  O   UNK N   1      32.426  13.253   8.987  0.00  0.00    -0.265 OA
BRANCH  19  21
HETATM   21  C   UNK N   1      34.531  14.027   9.764  0.00  0.00     0.115 C 
BRANCH  21  22
HETATM   22  C   UNK N   1      34.458  14.885  11.024  0.00  0.00    -0.013 C 
HETATM   23  C   UNK N   1      35.111  16.222  10.748  0.00  0.00     0.010 C 
HETATM   24  C   UNK N   1      35.198  14.214  12.169  0.00  0.00     0.010 C 
ENDBRANCH  21  22
ENDBRANCH  19  21
ENDBRANCH  18  19
ENDBRANCH  13  18
BRANCH  15  25
HETATM   25  O   UNK N   1      32.547  17.579   6.735  0.00  0.00    -0.387 OA
HETATM   26  H   UNK N   1      33.272  18.050   7.176  0.00  0.00     0.210 HD
ENDBRANCH  15  25
ENDBRANCH   9  10
ENDBRANCH   5   9
BRANCH   7  27
HETATM   27  N   UNK N   1      29.741  12.428   2.205  0.00  0.00     0.089 N 
HETATM   28  C   UNK N   1      29.682  10.993   1.959  0.00  0.00     0.310 C 
HETATM   29  C   UNK N   1      31.148  12.779   2.050  0.00  0.00     0.310 C 
ENDBRANCH   7  27
BRANCH   8  30
HETATM   30  O   UNK N   1      28.038  11.474   5.215  0.00  0.00    -0.388 OA
HETATM   31  H   UNK N   1      27.807  10.827   5.901  0.00  0.00     0.210 HD
ENDBRANCH   8  30
ENDBRANCH   1   2
BRANCH   1  32
HETATM   32  C   UNK N   1      24.515  12.810   4.292  0.00  0.00     0.160 C 
HETATM   33  C   UNK N   1      24.293  12.149   5.669  0.00  0.00     0.024 C 
HETATM   34  C   UNK N   1      24.731  12.961   6.892  0.00  0.00     0.014 C 
HETATM   35  C   UNK N   1      23.867  12.706   8.142  0.00  0.00     0.014 C 
HETATM   36  C   UNK N   1      22.376  13.015   7.916  0.00  0.00     0.144 C 
HETATM   37  C   UNK N   1      24.107  11.309   8.700  0.00  0.00     0.012 C 
HETATM   38  C   UNK N   1      22.171  14.494   7.944  0.00  0.00     0.005 C 
HETATM   39  C   UNK N   1      21.581  15.144   6.946  0.00  0.00    -0.002 C 
HETATM   40  C   UNK N   1      21.408  16.599   7.055  0.00  0.00    -0.004 C 
HETATM   41  C   UNK N   1      20.827  17.344   6.109  0.00  0.00    -0.024 C 
HETATM   42  C   UNK N   1      20.271  16.779   4.832  0.00  0.00     0.059 C 
HETATM   43  C   UNK N   1      20.918  17.366   3.568  0.00  0.00     0.131 C 
HETATM   44  O   UNK N   1      21.964  16.610   3.071  0.00  0.00    -0.316 OA
HETATM   45  C   UNK N   1      21.253  18.851   3.636  0.00  0.00     0.040 C 
HETATM   46  C   UNK N   1      23.157  16.383   3.684  0.00  0.00     0.261 C 
HETATM   47  O   UNK N   1      23.400  16.844   4.787  0.00  0.00    -0.265 OA
HETATM   48  C   UNK N   1      24.197  15.565   2.986  0.00  0.00     0.146 C 
HETATM   49  C   UNK N   1      23.665  14.229   2.448  0.00  0.00     0.172 C 
HETATM   50  C   UNK N   1      23.261  13.209   3.520  0.00  0.00     0.180 C 
BRANCH  33  51
HETATM   51  C   UNK N   1      24.272  10.633   5.792  0.00  0.00     0.076 C 
BRANCH  51  52
HETATM   52  C   UNK N   1      22.914  10.136   5.437  0.00  0.00     0.231 C 
HETATM   53  O   UNK N   1      22.751   9.487   4.417  0.00  0.00    -0.307 OA
ENDBRANCH  51  52
ENDBRANCH  33  51
BRANCH  36  54
HETATM   54  O   UNK N   1      21.599  12.460   8.936  0.00  0.00    -0.391 OA
HETATM   55  H   UNK N   1      20.809  12.816   9.371  0.00  0.00     0.210 HD
ENDBRANCH  36  54
BRANCH  49  56
HETATM   56  O   UNK N   1      22.674  14.443   1.519  0.00  0.00    -0.313 OA
BRANCH  56  57
HETATM   57  C   UNK N   1      22.337  13.499   0.607  0.00  0.00     0.255 C 
HETATM   58  O   UNK N   1      21.164  13.205   0.455  0.00  0.00    -0.266 OA
HETATM   59  C   UNK N   1      23.371  12.834  -0.249  0.00  0.00     0.126 C 
ENDBRANCH  56  57
ENDBRANCH  49  56
BRANCH  50  60
HETATM   60  O   UNK N   1      22.283  13.725   4.375  0.00  0.00    -0.385 OA
HETATM   61  C   UNK N   1      21.123  13.011   4.075  0.00  0.00     0.202 C 
ENDBRANCH  50  60
ENDBRANCH   1  32
TORSDOF 17
ENDMDL
MODEL 9
REMARK VINA RESULT:      -7.0      1.777      2.409
REMARK  17 active torsions:
REMARK  status: ('A' for Active; 'I' for Inactive)
REMARK    1  A    between atoms: C_18  and  O_1 
REMARK    2  A    between atoms: C_24  and  O_1 
REMARK    3  A    between atoms: C_21  and  O_3 
REMARK    4  A    between atoms: C_22  and  O_3 
REMARK    5  A    between atoms: C_19  and  O_5 
REMARK    6  A    between atoms: C_23  and  O_6 
REMARK    7  A    between atoms: C_27  and  O_7 
REMARK    8  A    between atoms: O_7  and  C_43 
REMARK    9  A    between atoms: C_29  and  O_8 
REMARK   10  A    between atoms: C_34  and  O_9 
REMARK   11  A    between atoms: O_9  and  C_48 
REMARK   12  A    between atoms: C_39  and  O_10 
REMARK   13  A    between atoms: C_17  and  N_16 
REMARK   14  A    between atoms: C_25  and  C_33 
REMARK   15  A    between atoms: C_33  and  C_42 
REMARK   16  A    between atoms: C_43  and  C_47 
REMARK   17  A    between atoms: C_47  and  C_49 
ROOT
HETATM    1  O   UNK N   1      25.870  16.457   3.095  0.00  0.00    -0.350 OA
ENDROOT
BRANCH   1   2
HETATM    2  C   UNK N   1      26.836  16.597   4.111  0.00  0.00     0.291 C 
HETATM    3  O   UNK N   1      26.220  16.559   5.360  0.00  0.00    -0.351 OA
HETATM    4  C   UNK N   1      27.244  16.072   6.169  0.00  0.00     0.152 C 
HETATM    5  C   UNK N   1      28.300  17.155   6.443  0.00  0.00     0.189 C 
HETATM    6  C   UNK N   1      26.680  15.449   7.425  0.00  0.00     0.042 C 
HETATM    7  C   UNK N   1      28.263  18.312   5.399  0.00  0.00     0.286 C 
HETATM    8  C   UNK N   1      27.746  17.842   4.002  0.00  0.00     0.209 C 
BRANCH   5   9
HETATM    9  O   UNK N   1      29.562  16.545   6.501  0.00  0.00    -0.351 OA
BRANCH   9  10
HETATM   10  C   UNK N   1      30.598  17.484   6.242  0.00  0.00     0.264 C 
HETATM   11  O   UNK N   1      31.314  17.093   5.086  0.00  0.00    -0.354 OA
HETATM   12  C   UNK N   1      32.032  15.881   5.303  0.00  0.00     0.153 C 
HETATM   13  C   UNK N   1      32.691  15.739   6.691  0.00  0.00     0.194 C 
HETATM   14  C   UNK N   1      31.211  14.655   4.933  0.00  0.00     0.042 C 
HETATM   15  C   UNK N   1      32.925  17.120   7.300  0.00  0.00     0.087 C 
HETATM   16  C   UNK N   1      31.572  17.828   7.411  0.00  0.00     0.101 C 
HETATM   17  C   UNK N   1      33.531  17.011   8.687  0.00  0.00     0.049 C 
BRANCH  13  18
HETATM   18  O   UNK N   1      33.857  15.012   6.577  0.00  0.00    -0.310 OA
BRANCH  18  19
HETATM   19  C   UNK N   1      33.956  13.722   6.981  0.00  0.00     0.259 C 
HETATM   20  O   UNK N   1      33.353  13.334   7.979  0.00  0.00    -0.265 OA
BRANCH  19  21
HETATM   21  C   UNK N   1      34.763  12.761   6.157  0.00  0.00     0.115 C 
BRANCH  21  22
HETATM   22  C   UNK N   1      34.219  12.537   4.749  0.00  0.00    -0.013 C 
HETATM   23  C   UNK N   1      34.326  11.067   4.407  0.00  0.00     0.010 C 
HETATM   24  C   UNK N   1      35.027  13.328   3.734  0.00  0.00     0.010 C 
ENDBRANCH  21  22
ENDBRANCH  19  21
ENDBRANCH  18  19
ENDBRANCH  13  18
BRANCH  15  25
HETATM   25  O   UNK N   1      33.781  17.868   6.489  0.00  0.00    -0.387 OA
HETATM   26  H   UNK N   1      33.779  18.802   6.223  0.00  0.00     0.210 HD
ENDBRANCH  15  25
ENDBRANCH   9  10
ENDBRANCH   5   9
BRANCH   7  27
HETATM   27  N   UNK N   1      27.437  19.416   5.911  0.00  0.00     0.089 N 
HETATM   28  C   UNK N   1      27.758  20.640   5.188  0.00  0.00     0.310 C 
HETATM   29  C   UNK N   1      27.815  19.685   7.292  0.00  0.00     0.310 C 
ENDBRANCH   7  27
BRANCH   8  30
HETATM   30  O   UNK N   1      28.833  17.562   3.174  0.00  0.00    -0.388 OA
HETATM   31  H   UNK N   1      29.618  17.052   2.917  0.00  0.00     0.210 HD
ENDBRANCH   8  30
ENDBRANCH   1   2
BRANCH   1  32
HETATM   32  C   UNK N   1      24.869  15.535   3.491  0.00  0.00     0.160 C 
HETATM   33  C   UNK N   1      25.106  14.029   3.258  0.00  0.00     0.024 C 
HETATM   34  C   UNK N   1      25.409  13.187   4.502  0.00  0.00     0.014 C 
HETATM   35  C   UNK N   1      24.891  11.739   4.407  0.00  0.00     0.014 C 
HETATM   36  C   UNK N   1      23.371  11.657   4.176  0.00  0.00     0.144 C 
HETATM   37  C   UNK N   1      25.691  10.935   3.390  0.00  0.00     0.012 C 
HETATM   38  C   UNK N   1      22.664  11.939   5.460  0.00  0.00     0.005 C 
HETATM   39  C   UNK N   1      21.738  12.888   5.562  0.00  0.00    -0.002 C 
HETATM   40  C   UNK N   1      21.080  13.097   6.860  0.00  0.00    -0.004 C 
HETATM   41  C   UNK N   1      20.137  14.021   7.067  0.00  0.00    -0.024 C 
HETATM   42  C   UNK N   1      19.630  14.945   5.995  0.00  0.00     0.059 C 
HETATM   43  C   UNK N   1      19.828  16.433   6.321  0.00  0.00     0.131 C 
HETATM   44  O   UNK N   1      20.986  16.974   5.792  0.00  0.00    -0.316 OA
HETATM   45  C   UNK N   1      19.623  16.813   7.783  0.00  0.00     0.040 C 
HETATM   46  C   UNK N   1      22.260  16.639   6.130  0.00  0.00     0.261 C 
HETATM   47  O   UNK N   1      22.488  15.776   6.961  0.00  0.00    -0.265 OA
HETATM   48  C   UNK N   1      23.404  17.351   5.479  0.00  0.00     0.146 C 
HETATM   49  C   UNK N   1      23.302  17.400   3.948  0.00  0.00     0.172 C 
HETATM   50  C   UNK N   1      23.454  16.047   3.242  0.00  0.00     0.180 C 
BRANCH  33  51
HETATM   51  C   UNK N   1      25.641  13.539   1.921  0.00  0.00     0.076 C 
BRANCH  51  52
HETATM   52  C   UNK N   1      24.497  13.285   1.004  0.00  0.00     0.231 C 
HETATM   53  O   UNK N   1      24.063  14.188   0.307  0.00  0.00    -0.307 OA
ENDBRANCH  51  52
ENDBRANCH  33  51
BRANCH  36  54
HETATM   54  O   UNK N   1      23.005  10.373   3.764  0.00  0.00    -0.391 OA
HETATM   55  H   UNK N   1      23.227   9.514   4.156  0.00  0.00     0.210 HD
ENDBRANCH  36  54
BRANCH  49  56
HETATM   56  O   UNK N   1      22.171  18.078   3.560  0.00  0.00    -0.313 OA
BRANCH  56  57
HETATM   57  C   UNK N   1      22.160  19.426   3.423  0.00  0.00     0.255 C 
HETATM   58  O   UNK N   1      23.215  20.038   3.436  0.00  0.00    -0.266 OA
HETATM   59  C   UNK N   1      20.883  20.181   3.219  0.00  0.00     0.126 C 
ENDBRANCH  56  57
ENDBRANCH  49  56
BRANCH  50  60
HETATM   60  O   UNK N   1      22.498  15.128   3.686  0.00  0.00    -0.385 OA
HETATM   61  C   UNK N   1      21.581  15.021   2.640  0.00  0.00     0.202 C 
ENDBRANCH  50  60
ENDBRANCH   1  32
TORSDOF 17
ENDMDL
