REMARK  17 active torsions:
REMARK  status: ('A' for Active; 'I' for Inactive)
REMARK    1  A    between atoms: C_18  and  O_1 
REMARK    2  A    between atoms: C_24  and  O_1 
REMARK    3  A    between atoms: C_21  and  O_3 
REMARK    4  A    between atoms: C_22  and  O_3 
REMARK    5  A    between atoms: C_19  and  O_5 
REMARK    6  A    between atoms: C_23  and  O_6 
REMARK    7  A    between atoms: C_27  and  O_7 
REMARK    8  A    between atoms: O_7  and  C_43 
REMARK    9  A    between atoms: C_29  and  O_8 
REMARK   10  A    between atoms: C_34  and  O_9 
REMARK   11  A    between atoms: O_9  and  C_48 
REMARK   12  A    between atoms: C_39  and  O_10 
REMARK   13  A    between atoms: C_17  and  N_16 
REMARK   14  A    between atoms: C_25  and  C_33 
REMARK   15  A    between atoms: C_33  and  C_42 
REMARK   16  A    between atoms: C_43  and  C_47 
REMARK   17  A    between atoms: C_47  and  C_49 
ROOT
HETATM    1  O   UNK N   1       9.070   1.180  -1.745  0.00  0.00    -0.350 OA
ENDROOT
BRANCH   1   2
HETATM    2  C   UNK N   1       8.014   1.760  -1.016  0.00  0.00     0.291 C 
HETATM    3  O   UNK N   1       6.992   2.142  -1.883  0.00  0.00    -0.351 OA
HETATM    4  C   UNK N   1       5.873   2.069  -1.056  0.00  0.00     0.152 C 
HETATM    5  C   UNK N   1       5.827   3.254  -0.077  0.00  0.00     0.189 C 
HETATM    6  C   UNK N   1       4.614   1.916  -1.876  0.00  0.00     0.042 C 
HETATM    7  C   UNK N   1       7.217   3.934   0.113  0.00  0.00     0.286 C 
HETATM    8  C   UNK N   1       8.404   2.941  -0.098  0.00  0.00     0.209 C 
BRANCH   5   9
HETATM    9  O   UNK N   1       5.294   2.807   1.141  0.00  0.00    -0.351 OA
BRANCH   9  10
HETATM   10  C   UNK N   1       4.083   3.485   1.451  0.00  0.00     0.264 C 
HETATM   11  O   UNK N   1       3.316   2.701   2.345  0.00  0.00    -0.354 OA
HETATM   12  C   UNK N   1       2.857   1.503   1.724  0.00  0.00     0.153 C 
HETATM   13  C   UNK N   1       2.405   1.647   0.256  0.00  0.00     0.194 C 
HETATM   14  C   UNK N   1       3.834   0.352   1.909  0.00  0.00     0.042 C 
HETATM   15  C   UNK N   1       2.002   3.093  -0.026  0.00  0.00     0.087 C 
HETATM   16  C   UNK N   1       3.210   3.989   0.261  0.00  0.00     0.101 C 
HETATM   17  C   UNK N   1       1.595   3.276  -1.476  0.00  0.00     0.049 C 
BRANCH  13  18
HETATM   18  O   UNK N   1       1.382   0.758  -0.003  0.00  0.00    -0.310 OA
BRANCH  18  19
HETATM   19  C   UNK N   1       1.606  -0.514  -0.411  0.00  0.00     0.259 C 
HETATM   20  O   UNK N   1       2.731  -0.869  -0.754  0.00  0.00    -0.265 OA
BRANCH  19  21
HETATM   21  C   UNK N   1       0.473  -1.499  -0.378  0.00  0.00     0.115 C 
BRANCH  21  22
HETATM   22  C   UNK N   1       0.905  -2.952  -0.553  0.00  0.00    -0.013 C 
HETATM   23  C   UNK N   1      -0.327  -3.829  -0.615  0.00  0.00     0.010 C 
HETATM   24  C   UNK N   1       1.756  -3.399   0.624  0.00  0.00     0.010 C 
ENDBRANCH  21  22
ENDBRANCH  19  21
ENDBRANCH  18  19
ENDBRANCH  13  18
BRANCH  15  25
HETATM   25  O   UNK N   1       0.935   3.467   0.795  0.00  0.00    -0.387 OA
HETATM   26  H   UNK N   1       0.789   4.238   1.366  0.00  0.00     0.210 HD
ENDBRANCH  15  25
ENDBRANCH   9  10
ENDBRANCH   5   9
BRANCH   7  27
HETATM   27  N   UNK N   1       7.336   5.083  -0.798  0.00  0.00     0.089 N 
HETATM   28  C   UNK N   1       8.601   5.766  -0.557  0.00  0.00     0.310 C 
HETATM   29  C   UNK N   1       6.310   6.061  -0.458  0.00  0.00     0.310 C 
ENDBRANCH   7  27
BRANCH   8  30
HETATM   30  O   UNK N   1       8.831   2.458   1.138  0.00  0.00    -0.388 OA
HETATM   31  H   UNK N   1       8.688   2.033   1.999  0.00  0.00     0.210 HD
ENDBRANCH   8  30
ENDBRANCH   1   2
BRANCH   1  32
HETATM   32  C   UNK N   1       9.542   0.016  -1.087  0.00  0.00     0.160 C 
HETATM   33  C   UNK N   1       8.584  -1.180  -0.907  0.00  0.00     0.024 C 
HETATM   34  C   UNK N   1       8.848  -2.403  -1.792  0.00  0.00     0.014 C 
HETATM   35  C   UNK N   1       8.470  -3.739  -1.124  0.00  0.00     0.014 C 
HETATM   36  C   UNK N   1       9.215  -3.982   0.201  0.00  0.00     0.144 C 
HETATM   37  C   UNK N   1       6.959  -3.878  -0.991  0.00  0.00     0.012 C 
HETATM   38  C   UNK N   1      10.617  -4.403  -0.094  0.00  0.00     0.005 C 
HETATM   39  C   UNK N   1      11.667  -3.768   0.418  0.00  0.00    -0.002 C 
HETATM   40  C   UNK N   1      13.015  -4.251   0.086  0.00  0.00    -0.004 C 
HETATM   41  C   UNK N   1      14.134  -3.685   0.550  0.00  0.00    -0.024 C 
HETATM   42  C   UNK N   1      14.144  -2.499   1.473  0.00  0.00     0.059 C 
HETATM   43  C   UNK N   1      14.888  -1.282   0.902  0.00  0.00     0.131 C 
HETATM   44  O   UNK N   1      14.066  -0.372   0.262  0.00  0.00    -0.316 OA
HETATM   45  C   UNK N   1      16.141  -1.603   0.096  0.00  0.00     0.040 C 
HETATM   46  C   UNK N   1      13.360  -0.588  -0.880  0.00  0.00     0.261 C 
HETATM   47  O   UNK N   1      13.389  -1.667  -1.448  0.00  0.00    -0.265 OA
HETATM   48  C   UNK N   1      12.542   0.523  -1.459  0.00  0.00     0.146 C 
HETATM   49  C   UNK N   1      11.619   1.200  -0.436  0.00  0.00     0.172 C 
HETATM   50  C   UNK N   1      10.470   0.326   0.083  0.00  0.00     0.180 C 
BRANCH  33  51
HETATM   51  C   UNK N   1       7.163  -0.951  -0.416  0.00  0.00     0.076 C 
BRANCH  51  52
HETATM   52  C   UNK N   1       7.135  -1.076   1.067  0.00  0.00     0.231 C 
HETATM   53  O   UNK N   1       6.503  -1.979   1.590  0.00  0.00    -0.307 OA
ENDBRANCH  51  52
ENDBRANCH  33  51
BRANCH  36  54
HETATM   54  O   UNK N   1       8.607  -5.011   0.925  0.00  0.00    -0.391 OA
HETATM   55  H   UNK N   1       7.777  -5.003   1.427  0.00  0.00     0.210 HD
ENDBRANCH  36  54
BRANCH  49  56
HETATM   56  O   UNK N   1      12.354   1.767   0.578  0.00  0.00    -0.313 OA
BRANCH  56  57
HETATM   57  C   UNK N   1      12.503   3.110   0.685  0.00  0.00     0.255 C 
HETATM   58  O   UNK N   1      13.285   3.562   1.503  0.00  0.00    -0.266 OA
HETATM   59  C   UNK N   1      11.755   4.053  -0.207  0.00  0.00     0.126 C 
ENDBRANCH  56  57
ENDBRANCH  49  56
BRANCH  50  60
HETATM   60  O   UNK N   1      10.947  -0.847   0.675  0.00  0.00    -0.385 OA
HETATM   61  C   UNK N   1      10.417  -0.846   1.966  0.00  0.00     0.202 C 
ENDBRANCH  50  60
ENDBRANCH   1  32
TORSDOF 17
