REMARK  6 active torsions:
REMARK  status: ('A' for Active; 'I' for Inactive)
REMARK    1  A    between atoms: S_3  and  C_18 
REMARK    2  A    between atoms: S_3  and  C_24 
REMARK    3  A    between atoms: S_4  and  N_14 
REMARK    4  A    between atoms: S_4  and  C_22 
REMARK    5  A    between atoms: C_15  and  C_18 
REMARK    6  A    between atoms: C_24  and  C_25 
ROOT
HETATM    1 Cl   UNK N   1       8.909   0.943   0.037  0.00  0.00    -0.083 Cl
HETATM    2  S   UNK N   1       3.938  -2.950  -0.011  0.00  0.00     0.247 S 
HETATM    3  O   UNK N   1       3.745  -3.806   1.252  0.00  0.00    -0.206 OA
HETATM    4  O   UNK N   1       3.907  -3.944  -1.182  0.00  0.00    -0.206 OA
HETATM    5  N   UNK N   1       2.487  -1.953  -0.193  0.00  0.00    -0.188 NA
HETATM    6  N   UNK N   1       3.841   0.021   0.217  0.00  0.00    -0.370 N 
HETATM    7  C   UNK N   1       2.707  -0.779   0.665  0.00  0.00     0.181 C 
HETATM    8  C   UNK N   1       5.357  -1.898   0.030  0.00  0.00     0.102 A 
HETATM    9  C   UNK N   1       5.155  -0.515   0.088  0.00  0.00     0.054 A 
HETATM   10  C   UNK N   1       1.351  -2.729   0.293  0.00  0.00     0.132 C 
HETATM   11  C   UNK N   1       6.643  -2.428   0.007  0.00  0.00     0.054 A 
HETATM   12  C   UNK N   1       6.260   0.341   0.058  0.00  0.00     0.056 A 
HETATM   13  C   UNK N   1       7.753  -1.582   0.025  0.00  0.00     0.102 A 
HETATM   14  C   UNK N   1       7.562  -0.182   0.024  0.00  0.00     0.059 A 
HETATM   15  H   UNK N   1       3.693   0.969  -0.005  0.00  0.00     0.161 HD
ENDROOT
BRANCH   7  16
HETATM   16  C   UNK N   1       1.457   0.089   0.830  0.00  0.00     0.116 C 
BRANCH  16  17
HETATM   17  S   UNK N   1       1.031   1.042  -0.657  0.00  0.00    -0.157 SA
BRANCH  17  18
HETATM   18  C   UNK N   1       1.098   2.589   0.300  0.00  0.00     0.191 C 
BRANCH  18  19
HETATM   19  C   UNK N   1       2.110   3.569  -0.268  0.00  0.00     0.396 C 
HETATM   20  F   UNK N   1       2.195   4.661   0.574  0.00  0.00    -0.170 F 
HETATM   21  F   UNK N   1       1.695   3.993  -1.517  0.00  0.00    -0.170 F 
HETATM   22  F   UNK N   1       3.356   2.978  -0.369  0.00  0.00    -0.170 F 
ENDBRANCH  18  19
ENDBRANCH  17  18
ENDBRANCH  16  17
ENDBRANCH   7  16
BRANCH  13  23
HETATM   23  S   UNK N   1       9.374  -2.346   0.152  0.00  0.00     0.258 S 
HETATM   24  O   UNK N   1       9.580  -2.880   1.577  0.00  0.00    -0.201 OA
HETATM   25  O   UNK N   1       9.499  -3.637  -0.671  0.00  0.00    -0.201 OA
BRANCH  23  26
HETATM   26  N   UNK N   1      10.847  -1.435  -0.181  0.00  0.00    -0.324 N 
HETATM   27  H   UNK N   1      11.729  -1.909  -0.374  0.00  0.00     0.169 HD
HETATM   28  H   UNK N   1      10.816  -0.415  -0.181  0.00  0.00     0.169 HD
ENDBRANCH  23  26
ENDBRANCH  13  23
TORSDOF 6
