MODEL 1
REMARK VINA RESULT:      -6.6      0.000      0.000
REMARK  6 active torsions:
REMARK  status: ('A' for Active; 'I' for Inactive)
REMARK    1  A    between atoms: S_3  and  C_18 
REMARK    2  A    between atoms: S_3  and  C_24 
REMARK    3  A    between atoms: S_4  and  N_14 
REMARK    4  A    between atoms: S_4  and  C_22 
REMARK    5  A    between atoms: C_15  and  C_18 
REMARK    6  A    between atoms: C_24  and  C_25 
ROOT
HETATM    1 Cl   UNK N   1      23.753  19.606   3.592  0.00  0.00    -0.083 Cl
HETATM    2  S   UNK N   1      20.659  14.783   6.243  0.00  0.00     0.247 S 
HETATM    3  O   UNK N   1      20.033  13.771   5.268  0.00  0.00    -0.206 OA
HETATM    4  O   UNK N   1      19.520  15.189   7.190  0.00  0.00    -0.206 OA
HETATM    5  N   UNK N   1      21.819  13.896   7.243  0.00  0.00    -0.188 NA
HETATM    6  N   UNK N   1      23.613  15.180   6.229  0.00  0.00    -0.370 N 
HETATM    7  C   UNK N   1      23.061  13.850   6.457  0.00  0.00     0.181 C 
HETATM    8  C   UNK N   1      21.488  16.133   5.461  0.00  0.00     0.102 A 
HETATM    9  C   UNK N   1      22.879  16.216   5.582  0.00  0.00     0.054 A 
HETATM   10  C   UNK N   1      21.295  12.549   7.441  0.00  0.00     0.132 C 
HETATM   11  C   UNK N   1      20.779  17.090   4.741  0.00  0.00     0.054 A 
HETATM   12  C   UNK N   1      23.552  17.308   5.026  0.00  0.00     0.056 A 
HETATM   13  C   UNK N   1      21.448  18.158   4.143  0.00  0.00     0.102 A 
HETATM   14  C   UNK N   1      22.846  18.285   4.307  0.00  0.00     0.059 A 
HETATM   15  H   UNK N   1      24.530  15.370   6.535  0.00  0.00     0.161 HD
ENDROOT
BRANCH   7  16
HETATM   16  C   UNK N   1      24.116  12.914   7.052  0.00  0.00     0.116 C 
BRANCH  16  17
HETATM   17  S   UNK N   1      24.841  13.527   8.601  0.00  0.00    -0.157 SA
BRANCH  17  18
HETATM   18  C   UNK N   1      24.359  11.990   9.449  0.00  0.00     0.191 C 
BRANCH  18  19
HETATM   19  C   UNK N   1      23.349  12.240  10.556  0.00  0.00     0.396 C 
HETATM   20  F   UNK N   1      22.357  11.282  10.479  0.00  0.00    -0.170 F 
HETATM   21  F   UNK N   1      22.783  13.491  10.393  0.00  0.00    -0.170 F 
HETATM   22  F   UNK N   1      23.957  12.163  11.796  0.00  0.00    -0.170 F 
ENDBRANCH  18  19
ENDBRANCH  17  18
ENDBRANCH  16  17
ENDBRANCH   7  16
BRANCH  13  23
HETATM   23  S   UNK N   1      20.484  19.261   3.103  0.00  0.00     0.258 S 
HETATM   24  O   UNK N   1      20.262  20.593   3.833  0.00  0.00    -0.201 OA
HETATM   25  O   UNK N   1      21.243  19.729   1.852  0.00  0.00    -0.201 OA
BRANCH  23  26
HETATM   26  N   UNK N   1      18.876  18.812   2.533  0.00  0.00    -0.324 N 
HETATM   27  H   UNK N   1      18.096  19.468   2.582  0.00  0.00     0.169 HD
HETATM   28  H   UNK N   1      18.723  17.880   2.146  0.00  0.00     0.169 HD
ENDBRANCH  23  26
ENDBRANCH  13  23
TORSDOF 6
ENDMDL
MODEL 2
REMARK VINA RESULT:      -6.4     12.406     14.039
REMARK  6 active torsions:
REMARK  status: ('A' for Active; 'I' for Inactive)
REMARK    1  A    between atoms: S_3  and  C_18 
REMARK    2  A    between atoms: S_3  and  C_24 
REMARK    3  A    between atoms: S_4  and  N_14 
REMARK    4  A    between atoms: S_4  and  C_22 
REMARK    5  A    between atoms: C_15  and  C_18 
REMARK    6  A    between atoms: C_24  and  C_25 
ROOT
HETATM    1 Cl   UNK N   1      31.255  16.502   8.459  0.00  0.00    -0.083 Cl
HETATM    2  S   UNK N   1      36.639  13.401   9.586  0.00  0.00     0.247 S 
HETATM    3  O   UNK N   1      37.890  14.276   9.771  0.00  0.00    -0.206 OA
HETATM    4  O   UNK N   1      37.024  12.365   8.518  0.00  0.00    -0.206 OA
HETATM    5  N   UNK N   1      36.418  12.483  11.083  0.00  0.00    -0.188 NA
HETATM    6  N   UNK N   1      34.358  13.707  11.480  0.00  0.00    -0.370 N 
HETATM    7  C   UNK N   1      35.685  13.381  11.989  0.00  0.00     0.181 C 
HETATM    8  C   UNK N   1      35.161  14.305   9.241  0.00  0.00     0.102 A 
HETATM    9  C   UNK N   1      34.152  14.319  10.210  0.00  0.00     0.054 A 
HETATM   10  C   UNK N   1      37.741  12.189  11.623  0.00  0.00     0.132 C 
HETATM   11  C   UNK N   1      35.001  14.988   8.040  0.00  0.00     0.054 A 
HETATM   12  C   UNK N   1      32.947  14.974   9.937  0.00  0.00     0.056 A 
HETATM   13  C   UNK N   1      33.821  15.685   7.778  0.00  0.00     0.102 A 
HETATM   14  C   UNK N   1      32.771  15.658   8.723  0.00  0.00     0.059 A 
HETATM   15  H   UNK N   1      33.573  13.496  12.037  0.00  0.00     0.161 HD
ENDROOT
BRANCH   7  16
HETATM   16  C   UNK N   1      35.607  12.854  13.424  0.00  0.00     0.116 C 
BRANCH  16  17
HETATM   17  S   UNK N   1      36.392  13.948  14.644  0.00  0.00    -0.157 SA
BRANCH  17  18
HETATM   18  C   UNK N   1      36.160  12.690  15.939  0.00  0.00     0.191 C 
BRANCH  18  19
HETATM   19  C   UNK N   1      35.147  13.125  16.984  0.00  0.00     0.396 C 
HETATM   20  F   UNK N   1      35.623  14.253  17.624  0.00  0.00    -0.170 F 
HETATM   21  F   UNK N   1      34.977  12.116  17.914  0.00  0.00    -0.170 F 
HETATM   22  F   UNK N   1      33.933  13.420  16.392  0.00  0.00    -0.170 F 
ENDBRANCH  18  19
ENDBRANCH  17  18
ENDBRANCH  16  17
ENDBRANCH   7  16
BRANCH  13  23
HETATM   23  S   UNK N   1      33.756  16.668   6.276  0.00  0.00     0.258 S 
HETATM   24  O   UNK N   1      34.287  18.080   6.563  0.00  0.00    -0.201 OA
HETATM   25  O   UNK N   1      34.743  16.192   5.200  0.00  0.00    -0.201 OA
BRANCH  23  26
HETATM   26  N   UNK N   1      32.236  16.947   5.426  0.00  0.00    -0.324 N 
HETATM   27  H   UNK N   1      31.579  16.187   5.256  0.00  0.00     0.169 HD
HETATM   28  H   UNK N   1      32.010  17.887   5.098  0.00  0.00     0.169 HD
ENDBRANCH  23  26
ENDBRANCH  13  23
TORSDOF 6
ENDMDL
MODEL 3
REMARK VINA RESULT:      -6.3      9.847     10.930
REMARK  6 active torsions:
REMARK  status: ('A' for Active; 'I' for Inactive)
REMARK    1  A    between atoms: S_3  and  C_18 
REMARK    2  A    between atoms: S_3  and  C_24 
REMARK    3  A    between atoms: S_4  and  N_14 
REMARK    4  A    between atoms: S_4  and  C_22 
REMARK    5  A    between atoms: C_15  and  C_18 
REMARK    6  A    between atoms: C_24  and  C_25 
ROOT
HETATM    1 Cl   UNK N   1      27.898  18.698   8.689  0.00  0.00    -0.083 Cl
HETATM    2  S   UNK N   1      32.917  15.686   6.322  0.00  0.00     0.247 S 
HETATM    3  O   UNK N   1      33.797  16.503   5.361  0.00  0.00    -0.206 OA
HETATM    4  O   UNK N   1      32.595  14.386   5.568  0.00  0.00    -0.206 OA
HETATM    5  N   UNK N   1      33.938  15.206   7.685  0.00  0.00    -0.188 NA
HETATM    6  N   UNK N   1      32.589  16.610   9.137  0.00  0.00    -0.370 N 
HETATM    7  C   UNK N   1      33.924  16.350   8.609  0.00  0.00     0.181 C 
HETATM    8  C   UNK N   1      31.507  16.555   6.937  0.00  0.00     0.102 A 
HETATM    9  C   UNK N   1      31.471  16.880   8.297  0.00  0.00     0.054 A 
HETATM   10  C   UNK N   1      35.286  14.985   7.175  0.00  0.00     0.132 C 
HETATM   11  C   UNK N   1      30.459  16.908   6.093  0.00  0.00     0.054 A 
HETATM   12  C   UNK N   1      30.338  17.512   8.821  0.00  0.00     0.056 A 
HETATM   13  C   UNK N   1      29.345  17.581   6.599  0.00  0.00     0.102 A 
HETATM   14  C   UNK N   1      29.270  17.864   7.981  0.00  0.00     0.059 A 
HETATM   15  H   UNK N   1      32.456  16.599  10.113  0.00  0.00     0.161 HD
ENDROOT
BRANCH   7  16
HETATM   16  C   UNK N   1      34.945  16.223   9.742  0.00  0.00     0.116 C 
BRANCH  16  17
HETATM   17  S   UNK N   1      34.490  14.989  10.996  0.00  0.00    -0.157 SA
BRANCH  17  18
HETATM   18  C   UNK N   1      36.029  15.330  11.907  0.00  0.00     0.191 C 
BRANCH  18  19
HETATM   19  C   UNK N   1      36.230  14.372  13.068  0.00  0.00     0.396 C 
HETATM   20  F   UNK N   1      35.011  13.812  13.401  0.00  0.00    -0.170 F 
HETATM   21  F   UNK N   1      36.722  15.063  14.160  0.00  0.00    -0.170 F 
HETATM   22  F   UNK N   1      37.111  13.365  12.721  0.00  0.00    -0.170 F 
ENDBRANCH  18  19
ENDBRANCH  17  18
ENDBRANCH  16  17
ENDBRANCH   7  16
BRANCH  13  23
HETATM   23  S   UNK N   1      28.110  18.140   5.420  0.00  0.00     0.258 S 
HETATM   24  O   UNK N   1      28.185  19.668   5.283  0.00  0.00    -0.201 OA
HETATM   25  O   UNK N   1      28.407  17.697   3.979  0.00  0.00    -0.201 OA
BRANCH  23  26
HETATM   26  N   UNK N   1      26.394  17.815   5.664  0.00  0.00    -0.324 N 
HETATM   27  H   UNK N   1      26.072  16.913   6.012  0.00  0.00     0.169 HD
HETATM   28  H   UNK N   1      25.711  18.545   5.455  0.00  0.00     0.169 HD
ENDBRANCH  23  26
ENDBRANCH  13  23
TORSDOF 6
ENDMDL
MODEL 4
REMARK VINA RESULT:      -6.3      7.722      9.742
REMARK  6 active torsions:
REMARK  status: ('A' for Active; 'I' for Inactive)
REMARK    1  A    between atoms: S_3  and  C_18 
REMARK    2  A    between atoms: S_3  and  C_24 
REMARK    3  A    between atoms: S_4  and  N_14 
REMARK    4  A    between atoms: S_4  and  C_22 
REMARK    5  A    between atoms: C_15  and  C_18 
REMARK    6  A    between atoms: C_24  and  C_25 
ROOT
HETATM    1 Cl   UNK N   1      29.973  18.687   9.615  0.00  0.00    -0.083 Cl
HETATM    2  S   UNK N   1      28.762  15.984   4.039  0.00  0.00     0.247 S 
HETATM    3  O   UNK N   1      28.641  14.451   4.050  0.00  0.00    -0.206 OA
HETATM    4  O   UNK N   1      29.779  16.301   2.932  0.00  0.00    -0.206 OA
HETATM    5  N   UNK N   1      27.216  16.626   3.464  0.00  0.00    -0.188 NA
HETATM    6  N   UNK N   1      26.853  17.605   5.657  0.00  0.00    -0.370 N 
HETATM    7  C   UNK N   1      26.347  16.679   4.650  0.00  0.00     0.181 C 
HETATM    8  C   UNK N   1      29.132  16.698   5.612  0.00  0.00     0.102 A 
HETATM    9  C   UNK N   1      28.151  17.478   6.233  0.00  0.00     0.054 A 
HETATM   10  C   UNK N   1      26.680  15.685   2.487  0.00  0.00     0.132 C 
HETATM   11  C   UNK N   1      30.365  16.489   6.222  0.00  0.00     0.054 A 
HETATM   12  C   UNK N   1      28.441  18.106   7.448  0.00  0.00     0.056 A 
HETATM   13  C   UNK N   1      30.646  17.073   7.458  0.00  0.00     0.102 A 
HETATM   14  C   UNK N   1      29.686  17.912   8.067  0.00  0.00     0.059 A 
HETATM   15  H   UNK N   1      26.275  18.346   5.951  0.00  0.00     0.161 HD
ENDROOT
BRANCH   7  16
HETATM   16  C   UNK N   1      24.886  16.983   4.313  0.00  0.00     0.116 C 
BRANCH  16  17
HETATM   17  S   UNK N   1      24.394  18.692   4.685  0.00  0.00    -0.157 SA
BRANCH  17  18
HETATM   18  C   UNK N   1      25.187  19.268   3.151  0.00  0.00     0.191 C 
BRANCH  18  19
HETATM   19  C   UNK N   1      26.223  20.347   3.413  0.00  0.00     0.396 C 
HETATM   20  F   UNK N   1      25.958  20.933   4.635  0.00  0.00    -0.170 F 
HETATM   21  F   UNK N   1      26.150  21.310   2.424  0.00  0.00    -0.170 F 
HETATM   22  F   UNK N   1      27.495  19.804   3.439  0.00  0.00    -0.170 F 
ENDBRANCH  18  19
ENDBRANCH  17  18
ENDBRANCH  16  17
ENDBRANCH   7  16
BRANCH  13  23
HETATM   23  S   UNK N   1      32.197  16.629   8.249  0.00  0.00     0.258 S 
HETATM   24  O   UNK N   1      33.067  15.834   7.265  0.00  0.00    -0.201 OA
HETATM   25  O   UNK N   1      33.098  17.840   8.533  0.00  0.00    -0.201 OA
BRANCH  23  26
HETATM   26  N   UNK N   1      32.231  15.665   9.726  0.00  0.00    -0.324 N 
HETATM   27  H   UNK N   1      32.773  15.960  10.537  0.00  0.00     0.169 HD
HETATM   28  H   UNK N   1      31.697  14.796   9.769  0.00  0.00     0.169 HD
ENDBRANCH  23  26
ENDBRANCH  13  23
TORSDOF 6
ENDMDL
MODEL 5
REMARK VINA RESULT:      -6.1      5.012      6.291
REMARK  6 active torsions:
REMARK  status: ('A' for Active; 'I' for Inactive)
REMARK    1  A    between atoms: S_3  and  C_18 
REMARK    2  A    between atoms: S_3  and  C_24 
REMARK    3  A    between atoms: S_4  and  N_14 
REMARK    4  A    between atoms: S_4  and  C_22 
REMARK    5  A    between atoms: C_15  and  C_18 
REMARK    6  A    between atoms: C_24  and  C_25 
ROOT
HETATM    1 Cl   UNK N   1      20.600  16.528   3.463  0.00  0.00    -0.083 Cl
HETATM    2  S   UNK N   1      25.847  20.005   3.957  0.00  0.00     0.247 S 
HETATM    3  O   UNK N   1      25.835  21.083   5.054  0.00  0.00    -0.206 OA
HETATM    4  O   UNK N   1      26.259  20.739   2.672  0.00  0.00    -0.206 OA
HETATM    5  N   UNK N   1      27.180  18.901   4.324  0.00  0.00    -0.188 NA
HETATM    6  N   UNK N   1      25.558  17.141   4.732  0.00  0.00    -0.370 N 
HETATM    7  C   UNK N   1      26.638  17.940   5.297  0.00  0.00     0.181 C 
HETATM    8  C   UNK N   1      24.349  19.076   3.832  0.00  0.00     0.102 A 
HETATM    9  C   UNK N   1      24.377  17.723   4.185  0.00  0.00     0.054 A 
HETATM   10  C   UNK N   1      28.252  19.685   4.931  0.00  0.00     0.132 C 
HETATM   11  C   UNK N   1      23.171  19.672   3.394  0.00  0.00     0.054 A 
HETATM   12  C   UNK N   1      23.221  16.951   4.035  0.00  0.00     0.056 A 
HETATM   13  C   UNK N   1      22.000  18.919   3.287  0.00  0.00     0.102 A 
HETATM   14  C   UNK N   1      22.029  17.539   3.585  0.00  0.00     0.059 A 
HETATM   15  H   UNK N   1      25.647  16.160   4.727  0.00  0.00     0.161 HD
ENDROOT
BRANCH   7  16
HETATM   16  C   UNK N   1      27.712  17.045   5.921  0.00  0.00     0.116 C 
BRANCH  16  17
HETATM   17  S   UNK N   1      27.917  17.292   7.709  0.00  0.00    -0.157 SA
BRANCH  17  18
HETATM   18  C   UNK N   1      29.720  17.421   7.498  0.00  0.00     0.191 C 
BRANCH  18  19
HETATM   19  C   UNK N   1      30.439  17.610   8.822  0.00  0.00     0.396 C 
HETATM   20  F   UNK N   1      29.785  16.876   9.794  0.00  0.00    -0.170 F 
HETATM   21  F   UNK N   1      30.417  18.947   9.175  0.00  0.00    -0.170 F 
HETATM   22  F   UNK N   1      31.748  17.175   8.732  0.00  0.00    -0.170 F 
ENDBRANCH  18  19
ENDBRANCH  17  18
ENDBRANCH  16  17
ENDBRANCH   7  16
BRANCH  13  23
HETATM   23  S   UNK N   1      20.489  19.796   2.867  0.00  0.00     0.258 S 
HETATM   24  O   UNK N   1      20.119  20.757   4.005  0.00  0.00    -0.201 OA
HETATM   25  O   UNK N   1      20.664  20.774   1.695  0.00  0.00    -0.201 OA
BRANCH  23  26
HETATM   26  N   UNK N   1      18.988  18.931   2.533  0.00  0.00    -0.324 N 
HETATM   27  H   UNK N   1      18.089  19.411   2.540  0.00  0.00     0.169 HD
HETATM   28  H   UNK N   1      19.021  17.931   2.328  0.00  0.00     0.169 HD
ENDBRANCH  23  26
ENDBRANCH  13  23
TORSDOF 6
ENDMDL
MODEL 6
REMARK VINA RESULT:      -6.1      4.031      4.670
REMARK  6 active torsions:
REMARK  status: ('A' for Active; 'I' for Inactive)
REMARK    1  A    between atoms: S_3  and  C_18 
REMARK    2  A    between atoms: S_3  and  C_24 
REMARK    3  A    between atoms: S_4  and  N_14 
REMARK    4  A    between atoms: S_4  and  C_22 
REMARK    5  A    between atoms: C_15  and  C_18 
REMARK    6  A    between atoms: C_24  and  C_25 
ROOT
HETATM    1 Cl   UNK N   1      23.450  21.045   2.822  0.00  0.00    -0.083 Cl
HETATM    2  S   UNK N   1      23.621  15.558   5.940  0.00  0.00     0.247 S 
HETATM    3  O   UNK N   1      23.384  14.297   5.092  0.00  0.00    -0.206 OA
HETATM    4  O   UNK N   1      22.632  15.449   7.111  0.00  0.00    -0.206 OA
HETATM    5  N   UNK N   1      25.231  15.408   6.660  0.00  0.00    -0.188 NA
HETATM    6  N   UNK N   1      25.958  17.304   5.329  0.00  0.00    -0.370 N 
HETATM    7  C   UNK N   1      26.166  15.894   5.634  0.00  0.00     0.181 C 
HETATM    8  C   UNK N   1      23.534  17.073   5.036  0.00  0.00     0.102 A 
HETATM    9  C   UNK N   1      24.709  17.814   4.870  0.00  0.00     0.054 A 
HETATM   10  C   UNK N   1      25.467  13.994   6.931  0.00  0.00     0.132 C 
HETATM   11  C   UNK N   1      22.330  17.520   4.500  0.00  0.00     0.054 A 
HETATM   12  C   UNK N   1      24.655  19.047   4.213  0.00  0.00     0.056 A 
HETATM   13  C   UNK N   1      22.277  18.727   3.801  0.00  0.00     0.102 A 
HETATM   14  C   UNK N   1      23.444  19.513   3.678  0.00  0.00     0.059 A 
HETATM   15  H   UNK N   1      26.711  17.929   5.443  0.00  0.00     0.161 HD
ENDROOT
BRANCH   7  16
HETATM   16  C   UNK N   1      27.633  15.620   5.978  0.00  0.00     0.116 C 
BRANCH  16  17
HETATM   17  S   UNK N   1      28.694  17.089   5.863  0.00  0.00    -0.157 SA
BRANCH  17  18
HETATM   18  C   UNK N   1      28.897  17.100   7.672  0.00  0.00     0.191 C 
BRANCH  18  19
HETATM   19  C   UNK N   1      28.529  18.443   8.280  0.00  0.00     0.396 C 
HETATM   20  F   UNK N   1      27.697  18.229   9.362  0.00  0.00    -0.170 F 
HETATM   21  F   UNK N   1      27.862  19.210   7.342  0.00  0.00    -0.170 F 
HETATM   22  F   UNK N   1      29.662  19.112   8.705  0.00  0.00    -0.170 F 
ENDBRANCH  18  19
ENDBRANCH  17  18
ENDBRANCH  16  17
ENDBRANCH   7  16
BRANCH  13  23
HETATM   23  S   UNK N   1      20.723  19.155   3.008  0.00  0.00     0.258 S 
HETATM   24  O   UNK N   1      19.691  18.048   3.268  0.00  0.00    -0.201 OA
HETATM   25  O   UNK N   1      20.030  20.366   3.651  0.00  0.00    -0.201 OA
BRANCH  23  26
HETATM   26  N   UNK N   1      20.625  19.431   1.269  0.00  0.00    -0.324 N 
HETATM   27  H   UNK N   1      21.404  19.198   0.653  0.00  0.00     0.169 HD
HETATM   28  H   UNK N   1      19.775  19.831   0.872  0.00  0.00     0.169 HD
ENDBRANCH  23  26
ENDBRANCH  13  23
TORSDOF 6
ENDMDL
MODEL 7
REMARK VINA RESULT:      -6.1     12.112     13.398
REMARK  6 active torsions:
REMARK  status: ('A' for Active; 'I' for Inactive)
REMARK    1  A    between atoms: S_3  and  C_18 
REMARK    2  A    between atoms: S_3  and  C_24 
REMARK    3  A    between atoms: S_4  and  N_14 
REMARK    4  A    between atoms: S_4  and  C_22 
REMARK    5  A    between atoms: C_15  and  C_18 
REMARK    6  A    between atoms: C_24  and  C_25 
ROOT
HETATM    1 Cl   UNK N   1      35.034  13.121   3.374  0.00  0.00    -0.083 Cl
HETATM    2  S   UNK N   1      34.543  16.996   8.336  0.00  0.00     0.247 S 
HETATM    3  O   UNK N   1      33.160  17.054   9.006  0.00  0.00    -0.206 OA
HETATM    4  O   UNK N   1      34.918  18.459   8.053  0.00  0.00    -0.206 OA
HETATM    5  N   UNK N   1      35.694  16.437   9.559  0.00  0.00    -0.188 NA
HETATM    6  N   UNK N   1      36.018  14.406   8.268  0.00  0.00    -0.370 N 
HETATM    7  C   UNK N   1      35.599  14.969   9.546  0.00  0.00     0.181 C 
HETATM    8  C   UNK N   1      34.630  15.925   6.933  0.00  0.00     0.102 A 
HETATM    9  C   UNK N   1      35.404  14.764   7.033  0.00  0.00     0.054 A 
HETATM   10  C   UNK N   1      35.259  16.960  10.850  0.00  0.00     0.132 C 
HETATM   11  C   UNK N   1      33.946  16.224   5.760  0.00  0.00     0.054 A 
HETATM   12  C   UNK N   1      35.539  13.932   5.917  0.00  0.00     0.056 A 
HETATM   13  C   UNK N   1      34.037  15.374   4.656  0.00  0.00     0.102 A 
HETATM   14  C   UNK N   1      34.863  14.230   4.724  0.00  0.00     0.059 A 
HETATM   15  H   UNK N   1      36.755  13.752   8.258  0.00  0.00     0.161 HD
ENDROOT
BRANCH   7  16
HETATM   16  C   UNK N   1      36.346  14.307  10.707  0.00  0.00     0.116 C 
BRANCH  16  17
HETATM   17  S   UNK N   1      35.292  13.249  11.741  0.00  0.00    -0.157 SA
BRANCH  17  18
HETATM   18  C   UNK N   1      36.658  13.022  12.923  0.00  0.00     0.191 C 
BRANCH  18  19
HETATM   19  C   UNK N   1      36.427  13.783  14.217  0.00  0.00     0.396 C 
HETATM   20  F   UNK N   1      35.118  13.594  14.618  0.00  0.00    -0.170 F 
HETATM   21  F   UNK N   1      36.644  15.132  14.007  0.00  0.00    -0.170 F 
HETATM   22  F   UNK N   1      37.274  13.325  15.209  0.00  0.00    -0.170 F 
ENDBRANCH  18  19
ENDBRANCH  17  18
ENDBRANCH  16  17
ENDBRANCH   7  16
BRANCH  13  23
HETATM   23  S   UNK N   1      33.002  15.748   3.236  0.00  0.00     0.258 S 
HETATM   24  O   UNK N   1      33.864  15.781   1.966  0.00  0.00    -0.201 OA
HETATM   25  O   UNK N   1      32.014  14.622   2.896  0.00  0.00    -0.201 OA
BRANCH  23  26
HETATM   26  N   UNK N   1      32.060  17.237   3.153  0.00  0.00    -0.324 N 
HETATM   27  H   UNK N   1      31.041  17.216   3.118  0.00  0.00     0.169 HD
HETATM   28  H   UNK N   1      32.543  18.135   3.140  0.00  0.00     0.169 HD
ENDBRANCH  23  26
ENDBRANCH  13  23
TORSDOF 6
ENDMDL
MODEL 8
REMARK VINA RESULT:      -6.0      8.349     10.485
REMARK  6 active torsions:
REMARK  status: ('A' for Active; 'I' for Inactive)
REMARK    1  A    between atoms: S_3  and  C_18 
REMARK    2  A    between atoms: S_3  and  C_24 
REMARK    3  A    between atoms: S_4  and  N_14 
REMARK    4  A    between atoms: S_4  and  C_22 
REMARK    5  A    between atoms: C_15  and  C_18 
REMARK    6  A    between atoms: C_24  and  C_25 
ROOT
HETATM    1 Cl   UNK N   1      33.207  17.822   8.654  0.00  0.00    -0.083 Cl
HETATM    2  S   UNK N   1      29.360  14.887   4.598  0.00  0.00     0.247 S 
HETATM    3  O   UNK N   1      28.209  14.084   5.228  0.00  0.00    -0.206 OA
HETATM    4  O   UNK N   1      30.056  13.911   3.638  0.00  0.00    -0.206 OA
HETATM    5  N   UNK N   1      28.629  16.128   3.569  0.00  0.00    -0.188 NA
HETATM    6  N   UNK N   1      29.507  17.828   5.065  0.00  0.00    -0.370 N 
HETATM    7  C   UNK N   1      28.310  17.247   4.469  0.00  0.00     0.181 C 
HETATM    8  C   UNK N   1      30.431  15.667   5.767  0.00  0.00     0.102 A 
HETATM    9  C   UNK N   1      30.427  17.064   5.840  0.00  0.00     0.054 A 
HETATM   10  C   UNK N   1      27.406  15.571   3.001  0.00  0.00     0.132 C 
HETATM   11  C   UNK N   1      31.256  14.914   6.596  0.00  0.00     0.054 A 
HETATM   12  C   UNK N   1      31.311  17.707   6.712  0.00  0.00     0.056 A 
HETATM   13  C   UNK N   1      32.107  15.546   7.504  0.00  0.00     0.102 A 
HETATM   14  C   UNK N   1      32.156  16.958   7.546  0.00  0.00     0.059 A 
HETATM   15  H   UNK N   1      29.687  18.786   4.927  0.00  0.00     0.161 HD
ENDROOT
BRANCH   7  16
HETATM   16  C   UNK N   1      27.450  18.326   3.807  0.00  0.00     0.116 C 
BRANCH  16  17
HETATM   17  S   UNK N   1      26.038  18.855   4.821  0.00  0.00    -0.157 SA
BRANCH  17  18
HETATM   18  C   UNK N   1      26.765  20.515   4.990  0.00  0.00     0.191 C 
BRANCH  18  19
HETATM   19  C   UNK N   1      27.165  20.820   6.424  0.00  0.00     0.396 C 
HETATM   20  F   UNK N   1      26.036  21.177   7.136  0.00  0.00    -0.170 F 
HETATM   21  F   UNK N   1      28.062  21.873   6.441  0.00  0.00    -0.170 F 
HETATM   22  F   UNK N   1      27.741  19.711   7.015  0.00  0.00    -0.170 F 
ENDBRANCH  18  19
ENDBRANCH  17  18
ENDBRANCH  16  17
ENDBRANCH   7  16
BRANCH  13  23
HETATM   23  S   UNK N   1      33.023  14.504   8.645  0.00  0.00     0.258 S 
HETATM   24  O   UNK N   1      32.520  13.057   8.535  0.00  0.00    -0.201 OA
HETATM   25  O   UNK N   1      34.500  14.336   8.257  0.00  0.00    -0.201 OA
BRANCH  23  26
HETATM   26  N   UNK N   1      33.028  14.824  10.379  0.00  0.00    -0.324 N 
HETATM   27  H   UNK N   1      33.858  14.650  10.946  0.00  0.00     0.169 HD
HETATM   28  H   UNK N   1      32.186  15.191  10.823  0.00  0.00     0.169 HD
ENDBRANCH  23  26
ENDBRANCH  13  23
TORSDOF 6
ENDMDL
MODEL 9
REMARK VINA RESULT:      -5.9      2.140      2.522
REMARK  6 active torsions:
REMARK  status: ('A' for Active; 'I' for Inactive)
REMARK    1  A    between atoms: S_3  and  C_18 
REMARK    2  A    between atoms: S_3  and  C_24 
REMARK    3  A    between atoms: S_4  and  N_14 
REMARK    4  A    between atoms: S_4  and  C_22 
REMARK    5  A    between atoms: C_15  and  C_18 
REMARK    6  A    between atoms: C_24  and  C_25 
ROOT
HETATM    1 Cl   UNK N   1      24.529  19.471   3.132  0.00  0.00    -0.083 Cl
HETATM    2  S   UNK N   1      20.571  16.386   6.964  0.00  0.00     0.247 S 
HETATM    3  O   UNK N   1      19.514  15.509   6.271  0.00  0.00    -0.206 OA
HETATM    4  O   UNK N   1      19.782  17.279   7.933  0.00  0.00    -0.206 OA
HETATM    5  N   UNK N   1      21.547  15.319   7.985  0.00  0.00    -0.188 NA
HETATM    6  N   UNK N   1      23.460  15.774   6.561  0.00  0.00    -0.370 N 
HETATM    7  C   UNK N   1      22.569  14.750   7.094  0.00  0.00     0.181 C 
HETATM    8  C   UNK N   1      21.638  17.256   5.857  0.00  0.00     0.102 A 
HETATM    9  C   UNK N   1      22.987  16.889   5.811  0.00  0.00     0.054 A 
HETATM   10  C   UNK N   1      20.673  14.266   8.490  0.00  0.00     0.132 C 
HETATM   11  C   UNK N   1      21.152  18.279   5.049  0.00  0.00     0.054 A 
HETATM   12  C   UNK N   1      23.864  17.603   4.990  0.00  0.00     0.056 A 
HETATM   13  C   UNK N   1      22.011  18.966   4.190  0.00  0.00     0.102 A 
HETATM   14  C   UNK N   1      23.387  18.644   4.178  0.00  0.00     0.059 A 
HETATM   15  H   UNK N   1      24.428  15.691   6.725  0.00  0.00     0.161 HD
ENDROOT
BRANCH   7  16
HETATM   16  C   UNK N   1      23.366  13.614   7.740  0.00  0.00     0.116 C 
BRANCH  16  17
HETATM   17  S   UNK N   1      24.356  12.655   6.557  0.00  0.00    -0.157 SA
BRANCH  17  18
HETATM   18  C   UNK N   1      22.853  12.237   5.619  0.00  0.00     0.191 C 
BRANCH  18  19
HETATM   19  C   UNK N   1      22.118  11.050   6.217  0.00  0.00     0.396 C 
HETATM   20  F   UNK N   1      21.831  10.149   5.210  0.00  0.00    -0.170 F 
HETATM   21  F   UNK N   1      20.935  11.478   6.791  0.00  0.00    -0.170 F 
HETATM   22  F   UNK N   1      22.898  10.426   7.173  0.00  0.00    -0.170 F 
ENDBRANCH  18  19
ENDBRANCH  17  18
ENDBRANCH  16  17
ENDBRANCH   7  16
BRANCH  13  23
HETATM   23  S   UNK N   1      21.279  20.163   3.069  0.00  0.00     0.258 S 
HETATM   24  O   UNK N   1      20.101  20.863   3.763  0.00  0.00    -0.201 OA
HETATM   25  O   UNK N   1      22.201  21.355   2.771  0.00  0.00    -0.201 OA
BRANCH  23  26
HETATM   26  N   UNK N   1      20.626  19.676   1.505  0.00  0.00    -0.324 N 
HETATM   27  H   UNK N   1      20.900  18.796   1.069  0.00  0.00     0.169 HD
HETATM   28  H   UNK N   1      19.961  20.286   1.027  0.00  0.00     0.169 HD
ENDBRANCH  23  26
ENDBRANCH  13  23
TORSDOF 6
ENDMDL
