REMARK  3 active torsions:
REMARK  status: ('A' for Active; 'I' for Inactive)
REMARK    1  A    between atoms: S_2  and  N_8 
REMARK    2  A    between atoms: S_2  and  C_15 
REMARK    3  A    between atoms: C_9  and  C_11 
ROOT
HETATM    1 Cl   UNK N   1       8.030   2.007  -0.269  0.00  0.00    -0.083 Cl
HETATM    2  O   UNK N   1       2.783  -2.212   0.112  0.00  0.00    -0.268 OA
HETATM    3  N   UNK N   1       2.902   1.813   0.184  0.00  0.00    -0.368 N 
HETATM    4  N   UNK N   1       1.684  -0.290   0.350  0.00  0.00    -0.336 N 
HETATM    5  C   UNK N   1       1.621   1.163   0.416  0.00  0.00     0.184 A 
HETATM    6  C   UNK N   1       4.114   1.100   0.011  0.00  0.00     0.047 A 
HETATM    7  C   UNK N   1       4.105  -0.291   0.009  0.00  0.00     0.060 A 
HETATM    8  C   UNK N   1       2.826  -0.997   0.152  0.00  0.00     0.255 A 
HETATM    9  C   UNK N   1       5.309  -0.998  -0.072  0.00  0.00     0.046 A 
HETATM   10  C   UNK N   1       6.523  -0.315  -0.159  0.00  0.00     0.102 A 
HETATM   11  C   UNK N   1       5.322   1.794  -0.114  0.00  0.00     0.055 A 
HETATM   12  C   UNK N   1       6.532   1.093  -0.200  0.00  0.00     0.059 A 
HETATM   13  H   UNK N   1       2.928   2.796   0.146  0.00  0.00     0.161 HD
HETATM   14  H   UNK N   1       0.844  -0.792   0.455  0.00  0.00     0.164 HD
ENDROOT
BRANCH  10  15
HETATM   15  S   UNK N   1       8.027  -1.271   0.029  0.00  0.00     0.258 S 
HETATM   16  O   UNK N   1       8.189  -1.274   1.551  0.00  0.00    -0.201 OA
HETATM   17  O   UNK N   1       7.918  -2.790  -0.185  0.00  0.00    -0.201 OA
BRANCH  15  18
HETATM   18  N   UNK N   1       9.649  -0.758  -0.447  0.00  0.00    -0.324 N 
HETATM   19  H   UNK N   1      10.374  -1.421  -0.722  0.00  0.00     0.169 HD
HETATM   20  H   UNK N   1       9.869   0.238  -0.447  0.00  0.00     0.169 HD
ENDBRANCH  15  18
ENDBRANCH  10  15
BRANCH   5  21
HETATM   21  C   UNK N   1       0.599   1.683  -0.577  0.00  0.00     0.042 C 
HETATM   22  C   UNK N   1      -0.795   1.242  -0.171  0.00  0.00     0.009 C 
ENDBRANCH   5  21
TORSDOF 3
