MODEL 1
REMARK VINA RESULT:      -6.5      0.000      0.000
REMARK  3 active torsions:
REMARK  status: ('A' for Active; 'I' for Inactive)
REMARK    1  A    between atoms: S_2  and  N_8 
REMARK    2  A    between atoms: S_2  and  C_15 
REMARK    3  A    between atoms: C_9  and  C_11 
ROOT
HETATM    1 Cl   UNK N   1      20.877  17.717   4.969  0.00  0.00    -0.083 Cl
HETATM    2  O   UNK N   1      26.008  21.178   2.291  0.00  0.00    -0.268 OA
HETATM    3  N   UNK N   1      25.933  18.610   5.393  0.00  0.00    -0.368 N 
HETATM    4  N   UNK N   1      27.102  20.202   3.966  0.00  0.00    -0.336 N 
HETATM    5  C   UNK N   1      27.177  19.314   5.118  0.00  0.00     0.184 A 
HETATM    6  C   UNK N   1      24.735  18.842   4.673  0.00  0.00     0.047 A 
HETATM    7  C   UNK N   1      24.727  19.744   3.614  0.00  0.00     0.060 A 
HETATM    8  C   UNK N   1      25.977  20.416   3.239  0.00  0.00     0.255 A 
HETATM    9  C   UNK N   1      23.528  20.042   2.958  0.00  0.00     0.046 A 
HETATM   10  C   UNK N   1      22.337  19.432   3.356  0.00  0.00     0.102 A 
HETATM   11  C   UNK N   1      23.554  18.197   5.054  0.00  0.00     0.055 A 
HETATM   12  C   UNK N   1      22.350  18.487   4.400  0.00  0.00     0.059 A 
HETATM   13  H   UNK N   1      25.923  17.942   6.114  0.00  0.00     0.161 HD
HETATM   14  H   UNK N   1      27.922  20.677   3.698  0.00  0.00     0.164 HD
ENDROOT
BRANCH  10  15
HETATM   15  S   UNK N   1      20.810  20.071   2.669  0.00  0.00     0.258 S 
HETATM   16  O   UNK N   1      20.254  20.857   3.859  0.00  0.00    -0.201 OA
HETATM   17  O   UNK N   1      20.928  21.234   1.670  0.00  0.00    -0.201 OA
BRANCH  15  18
HETATM   18  N   UNK N   1      19.385  19.117   2.244  0.00  0.00    -0.324 N 
HETATM   19  H   UNK N   1      19.450  18.224   1.756  0.00  0.00     0.169 HD
HETATM   20  H   UNK N   1      18.463  19.473   2.497  0.00  0.00     0.169 HD
ENDBRANCH  15  18
ENDBRANCH  10  15
BRANCH   5  21
HETATM   21  C   UNK N   1      28.298  18.310   4.926  0.00  0.00     0.042 C 
HETATM   22  C   UNK N   1      27.928  17.314   3.843  0.00  0.00     0.009 C 
ENDBRANCH   5  21
TORSDOF 3
ENDMDL
MODEL 2
REMARK VINA RESULT:      -6.2     10.047     10.767
REMARK  3 active torsions:
REMARK  status: ('A' for Active; 'I' for Inactive)
REMARK    1  A    between atoms: S_2  and  N_8 
REMARK    2  A    between atoms: S_2  and  C_15 
REMARK    3  A    between atoms: C_9  and  C_11 
ROOT
HETATM    1 Cl   UNK N   1      27.143  23.350  -7.472  0.00  0.00    -0.083 Cl
HETATM    2  O   UNK N   1      30.810  22.912  -1.829  0.00  0.00    -0.268 OA
HETATM    3  N   UNK N   1      30.960  20.731  -5.212  0.00  0.00    -0.368 N 
HETATM    4  N   UNK N   1      31.684  21.186  -2.931  0.00  0.00    -0.336 N 
HETATM    5  C   UNK N   1      31.800  20.321  -4.096  0.00  0.00     0.184 A 
HETATM    6  C   UNK N   1      30.043  21.808  -5.137  0.00  0.00     0.047 A 
HETATM    7  C   UNK N   1      29.951  22.561  -3.971  0.00  0.00     0.060 A 
HETATM    8  C   UNK N   1      30.838  22.244  -2.845  0.00  0.00     0.255 A 
HETATM    9  C   UNK N   1      28.986  23.567  -3.862  0.00  0.00     0.046 A 
HETATM   10  C   UNK N   1      28.116  23.827  -4.922  0.00  0.00     0.102 A 
HETATM   11  C   UNK N   1      29.201  22.086  -6.219  0.00  0.00     0.055 A 
HETATM   12  C   UNK N   1      28.234  23.095  -6.120  0.00  0.00     0.059 A 
HETATM   13  H   UNK N   1      31.032  20.235  -6.059  0.00  0.00     0.161 HD
HETATM   14  H   UNK N   1      32.258  20.991  -2.155  0.00  0.00     0.164 HD
ENDROOT
BRANCH  10  15
HETATM   15  S   UNK N   1      26.733  24.922  -4.609  0.00  0.00     0.258 S 
HETATM   16  O   UNK N   1      26.375  24.546  -3.169  0.00  0.00    -0.201 OA
HETATM   17  O   UNK N   1      27.059  26.407  -4.375  0.00  0.00    -0.201 OA
BRANCH  15  18
HETATM   18  N   UNK N   1      25.135  24.815  -5.355  0.00  0.00    -0.324 N 
HETATM   19  H   UNK N   1      24.985  24.972  -6.352  0.00  0.00     0.169 HD
HETATM   20  H   UNK N   1      24.333  24.589  -4.768  0.00  0.00     0.169 HD
ENDBRANCH  15  18
ENDBRANCH  10  15
BRANCH   5  21
HETATM   21  C   UNK N   1      33.246  20.249  -4.547  0.00  0.00     0.042 C 
HETATM   22  C   UNK N   1      34.160  20.781  -3.459  0.00  0.00     0.009 C 
ENDBRANCH   5  21
TORSDOF 3
ENDMDL
MODEL 3
REMARK VINA RESULT:      -6.0      2.473      3.106
REMARK  3 active torsions:
REMARK  status: ('A' for Active; 'I' for Inactive)
REMARK    1  A    between atoms: S_2  and  N_8 
REMARK    2  A    between atoms: S_2  and  C_15 
REMARK    3  A    between atoms: C_9  and  C_11 
ROOT
HETATM    1 Cl   UNK N   1      20.809  21.003   1.910  0.00  0.00    -0.083 Cl
HETATM    2  O   UNK N   1      24.850  16.825   5.330  0.00  0.00    -0.268 OA
HETATM    3  N   UNK N   1      25.662  20.319   3.498  0.00  0.00    -0.368 N 
HETATM    4  N   UNK N   1      26.371  18.328   4.711  0.00  0.00    -0.336 N 
HETATM    5  C   UNK N   1      26.774  19.564   4.056  0.00  0.00     0.184 A 
HETATM    6  C   UNK N   1      24.325  19.848   3.503  0.00  0.00     0.047 A 
HETATM    7  C   UNK N   1      24.022  18.632   4.105  0.00  0.00     0.060 A 
HETATM    8  C   UNK N   1      25.094  17.871   4.759  0.00  0.00     0.255 A 
HETATM    9  C   UNK N   1      22.721  18.121   4.035  0.00  0.00     0.046 A 
HETATM   10  C   UNK N   1      21.721  18.831   3.368  0.00  0.00     0.102 A 
HETATM   11  C   UNK N   1      23.322  20.585   2.866  0.00  0.00     0.055 A 
HETATM   12  C   UNK N   1      22.016  20.083   2.794  0.00  0.00     0.059 A 
HETATM   13  H   UNK N   1      25.846  21.199   3.098  0.00  0.00     0.161 HD
HETATM   14  H   UNK N   1      27.070  17.790   5.148  0.00  0.00     0.164 HD
ENDROOT
BRANCH  10  15
HETATM   15  S   UNK N   1      20.166  17.991   3.072  0.00  0.00     0.258 S 
HETATM   16  O   UNK N   1      20.556  17.033   1.945  0.00  0.00    -0.201 OA
HETATM   17  O   UNK N   1      19.731  16.945   4.112  0.00  0.00    -0.201 OA
BRANCH  15  18
HETATM   18  N   UNK N   1      18.715  18.712   2.369  0.00  0.00    -0.324 N 
HETATM   19  H   UNK N   1      18.753  19.364   1.585  0.00  0.00     0.169 HD
HETATM   20  H   UNK N   1      17.805  18.467   2.760  0.00  0.00     0.169 HD
ENDBRANCH  15  18
ENDBRANCH  10  15
BRANCH   5  21
HETATM   21  C   UNK N   1      27.546  20.438   5.026  0.00  0.00     0.042 C 
HETATM   22  C   UNK N   1      26.601  21.049   6.044  0.00  0.00     0.009 C 
ENDBRANCH   5  21
TORSDOF 3
ENDMDL
MODEL 4
REMARK VINA RESULT:      -5.8     10.498     12.302
REMARK  3 active torsions:
REMARK  status: ('A' for Active; 'I' for Inactive)
REMARK    1  A    between atoms: S_2  and  N_8 
REMARK    2  A    between atoms: S_2  and  C_15 
REMARK    3  A    between atoms: C_9  and  C_11 
ROOT
HETATM    1 Cl   UNK N   1      32.791  24.778  -4.828  0.00  0.00    -0.083 Cl
HETATM    2  O   UNK N   1      26.311  23.975  -3.142  0.00  0.00    -0.268 OA
HETATM    3  N   UNK N   1      28.313  27.271  -4.305  0.00  0.00    -0.368 N 
HETATM    4  N   UNK N   1      26.294  26.173  -3.496  0.00  0.00    -0.336 N 
HETATM    5  C   UNK N   1      26.930  27.426  -3.877  0.00  0.00     0.184 A 
HETATM    6  C   UNK N   1      29.005  26.035  -4.259  0.00  0.00     0.047 A 
HETATM    7  C   UNK N   1      28.345  24.886  -3.836  0.00  0.00     0.060 A 
HETATM    8  C   UNK N   1      26.924  24.971  -3.476  0.00  0.00     0.255 A 
HETATM    9  C   UNK N   1      29.047  23.684  -3.705  0.00  0.00     0.046 A 
HETATM   10  C   UNK N   1      30.409  23.628  -4.004  0.00  0.00     0.102 A 
HETATM   11  C   UNK N   1      30.361  25.981  -4.598  0.00  0.00     0.055 A 
HETATM   12  C   UNK N   1      31.071  24.779  -4.473  0.00  0.00     0.059 A 
HETATM   13  H   UNK N   1      28.790  28.062  -4.642  0.00  0.00     0.161 HD
HETATM   14  H   UNK N   1      25.344  26.200  -3.238  0.00  0.00     0.164 HD
ENDROOT
BRANCH  10  15
HETATM   15  S   UNK N   1      31.298  22.142  -3.542  0.00  0.00     0.258 S 
HETATM   16  O   UNK N   1      31.435  22.335  -2.030  0.00  0.00    -0.201 OA
HETATM   17  O   UNK N   1      30.498  20.828  -3.525  0.00  0.00    -0.201 OA
BRANCH  15  18
HETATM   18  N   UNK N   1      32.974  21.765  -3.952  0.00  0.00    -0.324 N 
HETATM   19  H   UNK N   1      33.317  20.808  -4.033  0.00  0.00     0.169 HD
HETATM   20  H   UNK N   1      33.625  22.534  -4.115  0.00  0.00     0.169 HD
ENDBRANCH  15  18
ENDBRANCH  10  15
BRANCH   5  21
HETATM   21  C   UNK N   1      26.131  28.101  -4.975  0.00  0.00     0.042 C 
HETATM   22  C   UNK N   1      25.006  27.192  -5.436  0.00  0.00     0.009 C 
ENDBRANCH   5  21
TORSDOF 3
ENDMDL
MODEL 5
REMARK VINA RESULT:      -5.8     18.604     20.670
REMARK  3 active torsions:
REMARK  status: ('A' for Active; 'I' for Inactive)
REMARK    1  A    between atoms: S_2  and  N_8 
REMARK    2  A    between atoms: S_2  and  C_15 
REMARK    3  A    between atoms: C_9  and  C_11 
ROOT
HETATM    1 Cl   UNK N   1      35.621  14.969  18.060  0.00  0.00    -0.083 Cl
HETATM    2  O   UNK N   1      34.763   8.280  18.036  0.00  0.00    -0.268 OA
HETATM    3  N   UNK N   1      34.940  10.874  21.111  0.00  0.00    -0.368 N 
HETATM    4  N   UNK N   1      34.795   8.605  20.239  0.00  0.00    -0.336 N 
HETATM    5  C   UNK N   1      34.874   9.454  21.419  0.00  0.00     0.184 A 
HETATM    6  C   UNK N   1      35.022  11.380  19.790  0.00  0.00     0.047 A 
HETATM    7  C   UNK N   1      34.990  10.503  18.710  0.00  0.00     0.060 A 
HETATM    8  C   UNK N   1      34.836   9.065  18.962  0.00  0.00     0.255 A 
HETATM    9  C   UNK N   1      35.159  10.989  17.410  0.00  0.00     0.046 A 
HETATM   10  C   UNK N   1      35.353  12.353  17.187  0.00  0.00     0.102 A 
HETATM   11  C   UNK N   1      35.177  12.753  19.575  0.00  0.00     0.055 A 
HETATM   12  C   UNK N   1      35.343  13.248  18.275  0.00  0.00     0.059 A 
HETATM   13  H   UNK N   1      34.929  11.516  21.857  0.00  0.00     0.161 HD
HETATM   14  H   UNK N   1      34.704   7.634  20.375  0.00  0.00     0.164 HD
ENDROOT
BRANCH  10  15
HETATM   15  S   UNK N   1      35.845  12.862  15.541  0.00  0.00     0.258 S 
HETATM   16  O   UNK N   1      36.224  11.518  14.915  0.00  0.00    -0.201 OA
HETATM   17  O   UNK N   1      34.720  13.250  14.566  0.00  0.00    -0.201 OA
BRANCH  15  18
HETATM   18  N   UNK N   1      37.283  13.803  15.132  0.00  0.00    -0.324 N 
HETATM   19  H   UNK N   1      38.228  13.432  15.237  0.00  0.00     0.169 HD
HETATM   20  H   UNK N   1      37.165  14.752  14.777  0.00  0.00     0.169 HD
ENDBRANCH  15  18
ENDBRANCH  10  15
BRANCH   5  21
HETATM   21  C   UNK N   1      33.693   9.185  22.331  0.00  0.00     0.042 C 
HETATM   22  C   UNK N   1      32.723  10.351  22.288  0.00  0.00     0.009 C 
ENDBRANCH   5  21
TORSDOF 3
ENDMDL
MODEL 6
REMARK VINA RESULT:      -5.7     15.056     16.892
REMARK  3 active torsions:
REMARK  status: ('A' for Active; 'I' for Inactive)
REMARK    1  A    between atoms: S_2  and  N_8 
REMARK    2  A    between atoms: S_2  and  C_15 
REMARK    3  A    between atoms: C_9  and  C_11 
ROOT
HETATM    1 Cl   UNK N   1      34.514  12.064  10.183  0.00  0.00    -0.083 Cl
HETATM    2  O   UNK N   1      37.302  15.132  15.501  0.00  0.00    -0.268 OA
HETATM    3  N   UNK N   1      34.635  12.120  15.333  0.00  0.00    -0.368 N 
HETATM    4  N   UNK N   1      35.951  13.738  16.591  0.00  0.00    -0.336 N 
HETATM    5  C   UNK N   1      34.964  12.668  16.640  0.00  0.00     0.184 A 
HETATM    6  C   UNK N   1      35.147  12.642  14.120  0.00  0.00     0.047 A 
HETATM    7  C   UNK N   1      36.050  13.701  14.148  0.00  0.00     0.060 A 
HETATM    8  C   UNK N   1      36.483  14.235  15.445  0.00  0.00     0.255 A 
HETATM    9  C   UNK N   1      36.489  14.277  12.952  0.00  0.00     0.046 A 
HETATM   10  C   UNK N   1      36.033  13.792  11.726  0.00  0.00     0.102 A 
HETATM   11  C   UNK N   1      34.713  12.123  12.896  0.00  0.00     0.055 A 
HETATM   12  C   UNK N   1      35.152  12.693  11.693  0.00  0.00     0.059 A 
HETATM   13  H   UNK N   1      34.026  11.348  15.289  0.00  0.00     0.161 HD
HETATM   14  H   UNK N   1      36.252  14.126  17.444  0.00  0.00     0.164 HD
ENDROOT
BRANCH  10  15
HETATM   15  S   UNK N   1      36.409  14.754  10.262  0.00  0.00     0.258 S 
HETATM   16  O   UNK N   1      36.708  16.124  10.875  0.00  0.00    -0.201 OA
HETATM   17  O   UNK N   1      37.773  14.506   9.597  0.00  0.00    -0.201 OA
BRANCH  15  18
HETATM   18  N   UNK N   1      35.258  15.228   9.008  0.00  0.00    -0.324 N 
HETATM   19  H   UNK N   1      35.310  16.127   8.529  0.00  0.00     0.169 HD
HETATM   20  H   UNK N   1      34.514  14.579   8.753  0.00  0.00     0.169 HD
ENDBRANCH  15  18
ENDBRANCH  10  15
BRANCH   5  21
HETATM   21  C   UNK N   1      35.450  11.557  17.551  0.00  0.00     0.042 C 
HETATM   22  C   UNK N   1      35.308  11.973  19.003  0.00  0.00     0.009 C 
ENDBRANCH   5  21
TORSDOF 3
ENDMDL
MODEL 7
REMARK VINA RESULT:      -5.7     10.751     12.540
REMARK  3 active torsions:
REMARK  status: ('A' for Active; 'I' for Inactive)
REMARK    1  A    between atoms: S_2  and  N_8 
REMARK    2  A    between atoms: S_2  and  C_15 
REMARK    3  A    between atoms: C_9  and  C_11 
ROOT
HETATM    1 Cl   UNK N   1      32.524  13.379   6.065  0.00  0.00    -0.083 Cl
HETATM    2  O   UNK N   1      35.736  17.461  10.366  0.00  0.00    -0.268 OA
HETATM    3  N   UNK N   1      34.429  13.681  10.842  0.00  0.00    -0.368 N 
HETATM    4  N   UNK N   1      35.442  15.716  11.718  0.00  0.00    -0.336 N 
HETATM    5  C   UNK N   1      34.982  14.364  12.002  0.00  0.00     0.184 A 
HETATM    6  C   UNK N   1      34.260  14.305   9.581  0.00  0.00     0.047 A 
HETATM    7  C   UNK N   1      34.678  15.619   9.398  0.00  0.00     0.060 A 
HETATM    8  C   UNK N   1      35.323  16.326  10.511  0.00  0.00     0.255 A 
HETATM    9  C   UNK N   1      34.433  16.268   8.183  0.00  0.00     0.046 A 
HETATM   10  C   UNK N   1      33.776  15.601   7.148  0.00  0.00     0.102 A 
HETATM   11  C   UNK N   1      33.635  13.615   8.538  0.00  0.00     0.055 A 
HETATM   12  C   UNK N   1      33.389  14.257   7.316  0.00  0.00     0.059 A 
HETATM   13  H   UNK N   1      34.158  12.740  10.938  0.00  0.00     0.161 HD
HETATM   14  H   UNK N   1      35.867  16.220  12.449  0.00  0.00     0.164 HD
ENDROOT
BRANCH  10  15
HETATM   15  S   UNK N   1      33.245  16.574   5.740  0.00  0.00     0.258 S 
HETATM   16  O   UNK N   1      34.097  17.834   5.912  0.00  0.00    -0.201 OA
HETATM   17  O   UNK N   1      33.765  16.142   4.359  0.00  0.00    -0.201 OA
BRANCH  15  18
HETATM   18  N   UNK N   1      31.653  17.311   5.529  0.00  0.00    -0.324 N 
HETATM   19  H   UNK N   1      31.197  17.377   4.619  0.00  0.00     0.169 HD
HETATM   20  H   UNK N   1      31.173  17.685   6.347  0.00  0.00     0.169 HD
ENDBRANCH  15  18
ENDBRANCH  10  15
BRANCH   5  21
HETATM   21  C   UNK N   1      36.117  13.542  12.583  0.00  0.00     0.042 C 
HETATM   22  C   UNK N   1      37.177  13.293  11.526  0.00  0.00     0.009 C 
ENDBRANCH   5  21
TORSDOF 3
ENDMDL
MODEL 8
REMARK VINA RESULT:      -5.6     10.703     12.217
REMARK  3 active torsions:
REMARK  status: ('A' for Active; 'I' for Inactive)
REMARK    1  A    between atoms: S_2  and  N_8 
REMARK    2  A    between atoms: S_2  and  C_15 
REMARK    3  A    between atoms: C_9  and  C_11 
ROOT
HETATM    1 Cl   UNK N   1      30.242  23.017  -2.208  0.00  0.00    -0.083 Cl
HETATM    2  O   UNK N   1      27.007  23.737  -8.081  0.00  0.00    -0.268 OA
HETATM    3  N   UNK N   1      26.157  25.228  -4.437  0.00  0.00    -0.368 N 
HETATM    4  N   UNK N   1      25.607  24.887  -6.786  0.00  0.00    -0.336 N 
HETATM    5  C   UNK N   1      25.196  25.449  -5.507  0.00  0.00     0.184 A 
HETATM    6  C   UNK N   1      27.332  24.453  -4.597  0.00  0.00     0.047 A 
HETATM    7  C   UNK N   1      27.636  23.904  -5.839  0.00  0.00     0.060 A 
HETATM    8  C   UNK N   1      26.744  24.170  -6.975  0.00  0.00     0.255 A 
HETATM    9  C   UNK N   1      28.746  23.065  -5.981  0.00  0.00     0.046 A 
HETATM   10  C   UNK N   1      29.559  22.781  -4.882  0.00  0.00     0.102 A 
HETATM   11  C   UNK N   1      28.162  24.205  -3.499  0.00  0.00     0.055 A 
HETATM   12  C   UNK N   1      29.279  23.369  -3.634  0.00  0.00     0.059 A 
HETATM   13  H   UNK N   1      25.982  25.636  -3.559  0.00  0.00     0.161 HD
HETATM   14  H   UNK N   1      25.023  25.038  -7.563  0.00  0.00     0.164 HD
ENDROOT
BRANCH  10  15
HETATM   15  S   UNK N   1      30.782  21.484  -5.070  0.00  0.00     0.258 S 
HETATM   16  O   UNK N   1      30.101  20.580  -6.100  0.00  0.00    -0.201 OA
HETATM   17  O   UNK N   1      32.044  21.829  -5.879  0.00  0.00    -0.201 OA
BRANCH  15  18
HETATM   18  N   UNK N   1      31.215  20.282  -3.851  0.00  0.00    -0.324 N 
HETATM   19  H   UNK N   1      32.182  20.012  -3.668  0.00  0.00     0.169 HD
HETATM   20  H   UNK N   1      30.472  19.841  -3.309  0.00  0.00     0.169 HD
ENDBRANCH  15  18
ENDBRANCH  10  15
BRANCH   5  21
HETATM   21  C   UNK N   1      24.933  26.936  -5.655  0.00  0.00     0.042 C 
HETATM   22  C   UNK N   1      25.481  27.685  -4.455  0.00  0.00     0.009 C 
ENDBRANCH   5  21
TORSDOF 3
ENDMDL
MODEL 9
REMARK VINA RESULT:      -5.6     12.272     14.706
REMARK  3 active torsions:
REMARK  status: ('A' for Active; 'I' for Inactive)
REMARK    1  A    between atoms: S_2  and  N_8 
REMARK    2  A    between atoms: S_2  and  C_15 
REMARK    3  A    between atoms: C_9  and  C_11 
ROOT
HETATM    1 Cl   UNK N   1      34.861  11.006  11.778  0.00  0.00    -0.083 Cl
HETATM    2  O   UNK N   1      35.345  17.585  10.380  0.00  0.00    -0.268 OA
HETATM    3  N   UNK N   1      34.377  14.481   8.005  0.00  0.00    -0.368 N 
HETATM    4  N   UNK N   1      34.858  16.845   8.337  0.00  0.00    -0.336 N 
HETATM    5  C   UNK N   1      34.526  15.791   7.390  0.00  0.00     0.184 A 
HETATM    6  C   UNK N   1      34.628  14.234   9.377  0.00  0.00     0.047 A 
HETATM    7  C   UNK N   1      34.991  15.284  10.215  0.00  0.00     0.060 A 
HETATM    8  C   UNK N   1      35.071  16.642   9.663  0.00  0.00     0.255 A 
HETATM    9  C   UNK N   1      35.327  15.031  11.548  0.00  0.00     0.046 A 
HETATM   10  C   UNK N   1      35.293  13.729  12.049  0.00  0.00     0.102 A 
HETATM   11  C   UNK N   1      34.555  12.930   9.879  0.00  0.00     0.055 A 
HETATM   12  C   UNK N   1      34.885  12.669  11.215  0.00  0.00     0.059 A 
HETATM   13  H   UNK N   1      34.087  13.729   7.440  0.00  0.00     0.161 HD
HETATM   14  H   UNK N   1      34.931  17.765   7.995  0.00  0.00     0.164 HD
ENDROOT
BRANCH  10  15
HETATM   15  S   UNK N   1      36.005  13.445  13.669  0.00  0.00     0.258 S 
HETATM   16  O   UNK N   1      36.559  14.834  13.997  0.00  0.00    -0.201 OA
HETATM   17  O   UNK N   1      35.026  13.313  14.847  0.00  0.00    -0.201 OA
BRANCH  15  18
HETATM   18  N   UNK N   1      37.430  12.461  14.018  0.00  0.00    -0.324 N 
HETATM   19  H   UNK N   1      38.224  12.401  13.379  0.00  0.00     0.169 HD
HETATM   20  H   UNK N   1      37.460  11.932  14.890  0.00  0.00     0.169 HD
ENDBRANCH  15  18
ENDBRANCH  10  15
BRANCH   5  21
HETATM   21  C   UNK N   1      33.258  16.149   6.640  0.00  0.00     0.042 C 
HETATM   22  C   UNK N   1      33.496  17.362   5.760  0.00  0.00     0.009 C 
ENDBRANCH   5  21
TORSDOF 3
ENDMDL
