REMARK  9 active torsions:
REMARK  status: ('A' for Active; 'I' for Inactive)
REMARK    1  A    between atoms: S_2  and  C_22 
REMARK    2  A    between atoms: S_2  and  C_27 
REMARK    3  A    between atoms: O_4  and  C_24 
REMARK    4  A    between atoms: C_25  and  O_7 
REMARK    5  A    between atoms: C_17  and  N_9 
REMARK       I    between atoms: N_9  and  C_23 
REMARK    6  A    between atoms: C_19  and  C_24 
REMARK    7  A    between atoms: C_20  and  C_22 
REMARK    8  A    between atoms: C_23  and  C_25 
REMARK    9  A    between atoms: C_25  and  C_26 
ROOT
HETATM    1  S   UNK N   1       4.693  -1.493   1.099  0.00  0.00    -0.136 SA
HETATM    2  O   UNK N   1       8.096   1.211   0.959  0.00  0.00    -0.271 OA
HETATM    3  N   UNK N   1       6.257   0.299  -0.013  0.00  0.00    -0.293 N 
HETATM    4  C   UNK N   1       6.096  -1.120   0.004  0.00  0.00     0.187 A 
HETATM    5  C   UNK N   1       7.557  -1.190   0.713  0.00  0.00     0.210 A 
HETATM    6  C   UNK N   1       7.443   0.279   0.521  0.00  0.00     0.251 A 
HETATM    7  C   UNK N   1       5.271   1.332  -0.102  0.00  0.00     0.116 C 
HETATM    8  C   UNK N   1       3.962   0.955  -0.048  0.00  0.00    -0.027 C 
HETATM    9  C   UNK N   1       3.588  -0.512   0.012  0.00  0.00     0.113 C 
ENDROOT
BRANCH   5  10
HETATM   10  N   UNK N   1       8.599  -1.694  -0.147  0.00  0.00    -0.343 N 
HETATM   11  C   UNK N   1       9.766  -2.136   0.385  0.00  0.00     0.251 C 
HETATM   12  O   UNK N   1       9.942  -2.114   1.597  0.00  0.00    -0.270 OA
HETATM   13  H   UNK N   1       8.464  -1.718  -1.121  0.00  0.00     0.163 HD
BRANCH  11  14
HETATM   14  C   UNK N   1      10.848  -2.659  -0.509  0.00  0.00     0.243 C 
BRANCH  14  15
HETATM   15  O   UNK N   1      11.080  -4.004  -0.205  0.00  0.00    -0.381 OA
HETATM   16  H   UNK N   1      10.352  -4.609   0.007  0.00  0.00     0.211 HD
ENDBRANCH  14  15
BRANCH  14  17
HETATM   17  C   UNK N   1      12.105  -1.839  -0.354  0.00  0.00    -0.021 A 
HETATM   18  C   UNK N   1      12.094  -0.480  -0.699  0.00  0.00     0.010 A 
HETATM   19  C   UNK N   1      13.249   0.294  -0.552  0.00  0.00     0.001 A 
HETATM   20  C   UNK N   1      14.421  -0.284  -0.058  0.00  0.00     0.000 A 
HETATM   21  C   UNK N   1      14.441  -1.638   0.287  0.00  0.00     0.001 A 
HETATM   22  C   UNK N   1      13.288  -2.414   0.138  0.00  0.00     0.010 A 
ENDBRANCH  14  17
ENDBRANCH  11  14
ENDBRANCH   5  10
BRANCH   7  23
HETATM   23  C   UNK N   1       5.688   2.777  -0.164  0.00  0.00     0.194 C 
HETATM   24  O   UNK N   1       6.857   3.068  -0.349  0.00  0.00    -0.645 OA
BRANCH  23  25
HETATM   25  O   UNK N   1       4.788   3.774  -0.060  0.00  0.00    -0.772 OA
HETATM   26  H   UNK N   1       5.076   4.663   0.012  0.00  0.00     0.167 HD
ENDBRANCH  23  25
ENDBRANCH   7  23
BRANCH   8  27
HETATM   27  C   UNK N   1       2.856   1.964  -0.009  0.00  0.00     0.120 C 
BRANCH  27  28
HETATM   28  S   UNK N   1       1.856   1.930  -1.518  0.00  0.00    -0.087 SA
BRANCH  28  29
HETATM   29  C   UNK N   1       0.360   1.938  -0.541  0.00  0.00     0.175 A 
HETATM   30  N   UNK N   1      -0.290   0.852  -0.109  0.00  0.00    -0.262 N 
HETATM   31  N   UNK N   1      -1.325   1.283   0.588  0.00  0.00    -0.223 N 
HETATM   32  C   UNK N   1       0.046  -0.542  -0.331  0.00  0.00     0.181 C 
HETATM   33  N   UNK N   1      -1.313   2.609   0.587  0.00  0.00    -0.005 NA
ATOM     34  HN  UNK N   1      -2.017   0.695   1.050  1.00  0.00     0.206 HD
HETATM   35  N   UNK N   1      -0.270   3.044  -0.111  0.00  0.00    -0.261 N 
ATOM     36  HN  UNK N   1      -0.003   4.014  -0.284  1.00  0.00     0.186 HD
ENDBRANCH  28  29
ENDBRANCH  27  28
ENDBRANCH   8  27
TORSDOF 9
