MODEL 1
REMARK VINA RESULT:      -7.4      0.000      0.000
REMARK  9 active torsions:
REMARK  status: ('A' for Active; 'I' for Inactive)
REMARK    1  A    between atoms: S_2  and  C_22 
REMARK    2  A    between atoms: S_2  and  C_27 
REMARK    3  A    between atoms: O_4  and  C_24 
REMARK    4  A    between atoms: C_25  and  O_7 
REMARK    5  A    between atoms: C_17  and  N_9 
REMARK       I    between atoms: N_9  and  C_23 
REMARK    6  A    between atoms: C_19  and  C_24 
REMARK    7  A    between atoms: C_20  and  C_22 
REMARK    8  A    between atoms: C_23  and  C_25 
REMARK    9  A    between atoms: C_25  and  C_26 
ROOT
HETATM    1  S   UNK N   1      36.449  15.311  10.933  0.00  0.00    -0.136 SA
HETATM    2  O   UNK N   1      34.497  11.628   9.694  0.00  0.00    -0.271 OA
HETATM    3  N   UNK N   1      34.395  13.832  10.236  0.00  0.00    -0.293 N 
HETATM    4  C   UNK N   1      35.035  14.282  11.431  0.00  0.00     0.187 A 
HETATM    5  C   UNK N   1      35.391  12.723  11.723  0.00  0.00     0.210 A 
HETATM    6  C   UNK N   1      34.632  12.571  10.455  0.00  0.00     0.251 A 
HETATM    7  C   UNK N   1      34.088  14.547   9.036  0.00  0.00     0.116 C 
HETATM    8  C   UNK N   1      34.563  15.821   8.927  0.00  0.00    -0.027 C 
HETATM    9  C   UNK N   1      35.305  16.464  10.080  0.00  0.00     0.113 C 
ENDROOT
BRANCH   5  10
HETATM   10  N   UNK N   1      34.625  12.142  12.798  0.00  0.00    -0.343 N 
HETATM   11  C   UNK N   1      35.235  11.354  13.719  0.00  0.00     0.251 C 
HETATM   12  O   UNK N   1      36.438  11.134  13.648  0.00  0.00    -0.270 OA
HETATM   13  H   UNK N   1      33.660  12.316  12.865  0.00  0.00     0.163 HD
BRANCH  11  14
HETATM   14  C   UNK N   1      34.439  10.750  14.835  0.00  0.00     0.243 C 
BRANCH  14  15
HETATM   15  O   UNK N   1      33.079  10.831  14.521  0.00  0.00    -0.381 OA
HETATM   16  H   UNK N   1      32.446  11.262  15.116  0.00  0.00     0.211 HD
ENDBRANCH  14  15
BRANCH  14  17
HETATM   17  C   UNK N   1      34.741  11.448  16.139  0.00  0.00    -0.021 A 
HETATM   18  C   UNK N   1      35.073  10.691  17.271  0.00  0.00     0.010 A 
HETATM   19  C   UNK N   1      35.364  11.324  18.483  0.00  0.00     0.001 A 
HETATM   20  C   UNK N   1      35.327  12.718  18.570  0.00  0.00     0.000 A 
HETATM   21  C   UNK N   1      34.996  13.481  17.447  0.00  0.00     0.001 A 
HETATM   22  C   UNK N   1      34.702  12.849  16.236  0.00  0.00     0.010 A 
ENDBRANCH  14  17
ENDBRANCH  11  14
ENDBRANCH   5  10
BRANCH   7  23
HETATM   23  C   UNK N   1      33.345  13.869   7.916  0.00  0.00     0.194 C 
HETATM   24  O   UNK N   1      32.142  14.027   7.798  0.00  0.00    -0.645 OA
BRANCH  23  25
HETATM   25  O   UNK N   1      33.985  13.115   7.002  0.00  0.00    -0.772 OA
HETATM   26  H   UNK N   1      34.450  12.345   7.268  0.00  0.00     0.167 HD
ENDBRANCH  23  25
ENDBRANCH   7  23
BRANCH   8  27
HETATM   27  C   UNK N   1      34.404  16.612   7.665  0.00  0.00     0.120 C 
BRANCH  27  28
HETATM   28  S   UNK N   1      33.744  18.267   7.983  0.00  0.00    -0.087 SA
BRANCH  28  29
HETATM   29  C   UNK N   1      32.086  17.607   8.051  0.00  0.00     0.175 A 
HETATM   30  N   UNK N   1      31.370  17.198   6.998  0.00  0.00    -0.262 N 
HETATM   31  N   UNK N   1      30.216  16.765   7.471  0.00  0.00    -0.223 N 
HETATM   32  C   UNK N   1      31.751  17.204   5.598  0.00  0.00     0.181 C 
HETATM   33  N   UNK N   1      30.220  16.903   8.790  0.00  0.00    -0.005 NA
ATOM     34  HN  UNK N   1      29.450  16.388   6.915  1.00  0.00     0.206 HD
HETATM   35  N   UNK N   1      31.377  17.426   9.179  0.00  0.00    -0.261 N 
ATOM     36  HN  UNK N   1      31.668  17.644  10.133  1.00  0.00     0.186 HD
ENDBRANCH  28  29
ENDBRANCH  27  28
ENDBRANCH   8  27
TORSDOF 9
ENDMDL
MODEL 2
REMARK VINA RESULT:      -7.3      2.189      2.727
REMARK  9 active torsions:
REMARK  status: ('A' for Active; 'I' for Inactive)
REMARK    1  A    between atoms: S_2  and  C_22 
REMARK    2  A    between atoms: S_2  and  C_27 
REMARK    3  A    between atoms: O_4  and  C_24 
REMARK    4  A    between atoms: C_25  and  O_7 
REMARK    5  A    between atoms: C_17  and  N_9 
REMARK       I    between atoms: N_9  and  C_23 
REMARK    6  A    between atoms: C_19  and  C_24 
REMARK    7  A    between atoms: C_20  and  C_22 
REMARK    8  A    between atoms: C_23  and  C_25 
REMARK    9  A    between atoms: C_25  and  C_26 
ROOT
HETATM    1  S   UNK N   1      35.197  12.499   8.364  0.00  0.00    -0.136 SA
HETATM    2  O   UNK N   1      33.981  15.224  11.528  0.00  0.00    -0.271 OA
HETATM    3  N   UNK N   1      35.319  14.717   9.764  0.00  0.00    -0.293 N 
HETATM    4  C   UNK N   1      35.956  13.439   9.722  0.00  0.00     0.187 A 
HETATM    5  C   UNK N   1      35.312  13.167  11.190  0.00  0.00     0.210 A 
HETATM    6  C   UNK N   1      34.816  14.547  10.952  0.00  0.00     0.251 A 
HETATM    7  C   UNK N   1      34.958  15.596   8.695  0.00  0.00     0.116 C 
HETATM    8  C   UNK N   1      35.122  15.135   7.422  0.00  0.00    -0.027 C 
HETATM    9  C   UNK N   1      35.750  13.779   7.173  0.00  0.00     0.113 C 
ENDROOT
BRANCH   5  10
HETATM   10  N   UNK N   1      36.274  13.195  12.263  0.00  0.00    -0.343 N 
HETATM   11  C   UNK N   1      35.879  12.953  13.538  0.00  0.00     0.251 C 
HETATM   12  O   UNK N   1      34.705  12.706  13.786  0.00  0.00    -0.270 OA
HETATM   13  H   UNK N   1      37.219  13.389  12.072  0.00  0.00     0.163 HD
BRANCH  11  14
HETATM   14  C   UNK N   1      36.879  12.983  14.653  0.00  0.00     0.243 C 
BRANCH  14  15
HETATM   15  O   UNK N   1      37.995  12.225  14.284  0.00  0.00    -0.381 OA
HETATM   16  H   UNK N   1      38.717  12.049  14.908  0.00  0.00     0.211 HD
ENDBRANCH  14  15
BRANCH  14  17
HETATM   17  C   UNK N   1      36.264  12.464  15.929  0.00  0.00    -0.021 A 
HETATM   18  C   UNK N   1      36.322  11.094  16.221  0.00  0.00     0.010 A 
HETATM   19  C   UNK N   1      35.764  10.600  17.404  0.00  0.00     0.001 A 
HETATM   20  C   UNK N   1      35.147  11.473  18.304  0.00  0.00     0.000 A 
HETATM   21  C   UNK N   1      35.083  12.840  18.021  0.00  0.00     0.001 A 
HETATM   22  C   UNK N   1      35.638  13.334  16.837  0.00  0.00     0.010 A 
ENDBRANCH  14  17
ENDBRANCH  11  14
ENDBRANCH   5  10
BRANCH   7  23
HETATM   23  C   UNK N   1      34.340  16.937   8.989  0.00  0.00     0.194 C 
HETATM   24  O   UNK N   1      35.044  17.929   9.067  0.00  0.00    -0.645 OA
BRANCH  23  25
HETATM   25  O   UNK N   1      33.009  17.082   9.130  0.00  0.00    -0.772 OA
HETATM   26  H   UNK N   1      32.634  17.186   9.983  0.00  0.00     0.167 HD
ENDBRANCH  23  25
ENDBRANCH   7  23
BRANCH   8  27
HETATM   27  C   UNK N   1      34.662  15.925   6.236  0.00  0.00     0.120 C 
BRANCH  27  28
HETATM   28  S   UNK N   1      33.509  14.985   5.204  0.00  0.00    -0.087 SA
BRANCH  28  29
HETATM   29  C   UNK N   1      32.129  15.857   5.931  0.00  0.00     0.175 A 
HETATM   30  N   UNK N   1      31.540  16.943   5.417  0.00  0.00    -0.262 N 
HETATM   31  N   UNK N   1      30.558  17.265   6.239  0.00  0.00    -0.223 N 
HETATM   32  C   UNK N   1      31.875  17.652   4.196  0.00  0.00     0.181 C 
HETATM   33  N   UNK N   1      30.541  16.395   7.239  0.00  0.00    -0.005 NA
ATOM     34  HN  UNK N   1      29.920  18.051   6.123  1.00  0.00     0.206 HD
HETATM   35  N   UNK N   1      31.512  15.504   7.071  0.00  0.00    -0.261 N 
ATOM     36  HN  UNK N   1      31.741  14.717   7.679  1.00  0.00     0.186 HD
ENDBRANCH  28  29
ENDBRANCH  27  28
ENDBRANCH   8  27
TORSDOF 9
ENDMDL
MODEL 3
REMARK VINA RESULT:      -7.3      4.021      9.620
REMARK  9 active torsions:
REMARK  status: ('A' for Active; 'I' for Inactive)
REMARK    1  A    between atoms: S_2  and  C_22 
REMARK    2  A    between atoms: S_2  and  C_27 
REMARK    3  A    between atoms: O_4  and  C_24 
REMARK    4  A    between atoms: C_25  and  O_7 
REMARK    5  A    between atoms: C_17  and  N_9 
REMARK       I    between atoms: N_9  and  C_23 
REMARK    6  A    between atoms: C_19  and  C_24 
REMARK    7  A    between atoms: C_20  and  C_22 
REMARK    8  A    between atoms: C_23  and  C_25 
REMARK    9  A    between atoms: C_25  and  C_26 
ROOT
HETATM    1  S   UNK N   1      34.857  15.305   5.709  0.00  0.00    -0.136 SA
HETATM    2  O   UNK N   1      33.099  18.100   8.539  0.00  0.00    -0.271 OA
HETATM    3  N   UNK N   1      33.708  15.987   7.969  0.00  0.00    -0.293 N 
HETATM    4  C   UNK N   1      33.334  15.481   6.687  0.00  0.00     0.187 A 
HETATM    5  C   UNK N   1      32.534  16.879   6.465  0.00  0.00     0.210 A 
HETATM    6  C   UNK N   1      33.050  17.102   7.840  0.00  0.00     0.251 A 
HETATM    7  C   UNK N   1      34.800  15.620   8.816  0.00  0.00     0.116 C 
HETATM    8  C   UNK N   1      35.714  14.741   8.315  0.00  0.00    -0.027 C 
HETATM    9  C   UNK N   1      35.511  14.120   6.948  0.00  0.00     0.113 C 
ENDROOT
BRANCH   5  10
HETATM   10  N   UNK N   1      31.099  16.744   6.520  0.00  0.00    -0.343 N 
HETATM   11  C   UNK N   1      30.335  17.177   5.486  0.00  0.00     0.251 C 
HETATM   12  O   UNK N   1      30.857  17.679   4.498  0.00  0.00    -0.270 OA
HETATM   13  H   UNK N   1      30.674  16.339   7.308  0.00  0.00     0.163 HD
BRANCH  11  14
HETATM   14  C   UNK N   1      28.845  17.037   5.544  0.00  0.00     0.243 C 
BRANCH  14  15
HETATM   15  O   UNK N   1      28.420  16.239   4.478  0.00  0.00    -0.381 OA
HETATM   16  H   UNK N   1      27.540  15.829   4.470  0.00  0.00     0.211 HD
ENDBRANCH  14  15
BRANCH  14  17
HETATM   17  C   UNK N   1      28.185  18.394   5.508  0.00  0.00    -0.021 A 
HETATM   18  C   UNK N   1      28.051  19.132   6.693  0.00  0.00     0.010 A 
HETATM   19  C   UNK N   1      27.450  20.394   6.672  0.00  0.00     0.001 A 
HETATM   20  C   UNK N   1      26.980  20.927   5.469  0.00  0.00     0.000 A 
HETATM   21  C   UNK N   1      27.108  20.197   4.285  0.00  0.00     0.001 A 
HETATM   22  C   UNK N   1      27.707  18.934   4.303  0.00  0.00     0.010 A 
ENDBRANCH  14  17
ENDBRANCH  11  14
ENDBRANCH   5  10
BRANCH   7  23
HETATM   23  C   UNK N   1      34.960  16.259  10.170  0.00  0.00     0.194 C 
HETATM   24  O   UNK N   1      35.596  17.292  10.286  0.00  0.00    -0.645 OA
BRANCH  23  25
HETATM   25  O   UNK N   1      34.379  15.737  11.267  0.00  0.00    -0.772 OA
HETATM   26  H   UNK N   1      33.578  15.256  11.193  0.00  0.00     0.167 HD
ENDBRANCH  23  25
ENDBRANCH   7  23
BRANCH   8  27
HETATM   27  C   UNK N   1      36.957  14.386   9.071  0.00  0.00     0.120 C 
BRANCH  27  28
HETATM   28  S   UNK N   1      37.075  12.606   9.380  0.00  0.00    -0.087 SA
BRANCH  28  29
HETATM   29  C   UNK N   1      36.084  12.784  10.856  0.00  0.00     0.175 A 
HETATM   30  N   UNK N   1      34.874  12.248  11.047  0.00  0.00    -0.262 N 
HETATM   31  N   UNK N   1      34.494  12.596  12.262  0.00  0.00    -0.223 N 
HETATM   32  C   UNK N   1      34.100  11.431  10.131  0.00  0.00     0.181 C 
HETATM   33  N   UNK N   1      35.452  13.331  12.811  0.00  0.00    -0.005 NA
ATOM     34  HN  UNK N   1      33.613  12.341  12.705  1.00  0.00     0.206 HD
HETATM   35  N   UNK N   1      36.457  13.463  11.953  0.00  0.00    -0.261 N 
ATOM     36  HN  UNK N   1      37.330  13.974  12.097  1.00  0.00     0.186 HD
ENDBRANCH  28  29
ENDBRANCH  27  28
ENDBRANCH   8  27
TORSDOF 9
ENDMDL
MODEL 4
REMARK VINA RESULT:      -7.3      2.989      9.059
REMARK  9 active torsions:
REMARK  status: ('A' for Active; 'I' for Inactive)
REMARK    1  A    between atoms: S_2  and  C_22 
REMARK    2  A    between atoms: S_2  and  C_27 
REMARK    3  A    between atoms: O_4  and  C_24 
REMARK    4  A    between atoms: C_25  and  O_7 
REMARK    5  A    between atoms: C_17  and  N_9 
REMARK       I    between atoms: N_9  and  C_23 
REMARK    6  A    between atoms: C_19  and  C_24 
REMARK    7  A    between atoms: C_20  and  C_22 
REMARK    8  A    between atoms: C_23  and  C_25 
REMARK    9  A    between atoms: C_25  and  C_26 
ROOT
HETATM    1  S   UNK N   1      37.058  13.283   9.086  0.00  0.00    -0.136 SA
HETATM    2  O   UNK N   1      35.559  16.405  11.715  0.00  0.00    -0.271 OA
HETATM    3  N   UNK N   1      35.508  14.262  10.965  0.00  0.00    -0.293 N 
HETATM    4  C   UNK N   1      35.465  14.021   9.558  0.00  0.00     0.187 A 
HETATM    5  C   UNK N   1      35.374  15.634   9.373  0.00  0.00     0.210 A 
HETATM    6  C   UNK N   1      35.402  15.554  10.856  0.00  0.00     0.251 A 
HETATM    7  C   UNK N   1      36.002  13.434  12.022  0.00  0.00     0.116 C 
HETATM    8  C   UNK N   1      36.642  12.283  11.668  0.00  0.00    -0.027 C 
HETATM    9  C   UNK N   1      36.734  11.872  10.213  0.00  0.00     0.113 C 
ENDROOT
BRANCH   5  10
HETATM   10  N   UNK N   1      34.076  16.101   8.954  0.00  0.00    -0.343 N 
HETATM   11  C   UNK N   1      33.885  17.412   8.666  0.00  0.00     0.251 C 
HETATM   12  O   UNK N   1      34.812  18.208   8.756  0.00  0.00    -0.270 OA
HETATM   13  H   UNK N   1      33.327  15.467   8.876  0.00  0.00     0.163 HD
BRANCH  11  14
HETATM   14  C   UNK N   1      32.536  17.897   8.232  0.00  0.00     0.243 C 
BRANCH  14  15
HETATM   15  O   UNK N   1      31.564  17.369   9.088  0.00  0.00    -0.381 OA
HETATM   16  H   UNK N   1      30.796  16.885   8.746  0.00  0.00     0.211 HD
ENDBRANCH  14  15
BRANCH  14  17
HETATM   17  C   UNK N   1      32.270  17.508   6.798  0.00  0.00    -0.021 A 
HETATM   18  C   UNK N   1      30.995  17.060   6.425  0.00  0.00     0.010 A 
HETATM   19  C   UNK N   1      30.732  16.705   5.099  0.00  0.00     0.001 A 
HETATM   20  C   UNK N   1      31.741  16.797   4.137  0.00  0.00     0.000 A 
HETATM   21  C   UNK N   1      33.015  17.241   4.500  0.00  0.00     0.001 A 
HETATM   22  C   UNK N   1      33.280  17.594   5.826  0.00  0.00     0.010 A 
ENDBRANCH  14  17
ENDBRANCH  11  14
ENDBRANCH   5  10
BRANCH   7  23
HETATM   23  C   UNK N   1      35.885  13.879  13.454  0.00  0.00     0.194 C 
HETATM   24  O   UNK N   1      34.951  13.500  14.138  0.00  0.00    -0.645 OA
BRANCH  23  25
HETATM   25  O   UNK N   1      36.819  14.665  14.025  0.00  0.00    -0.772 OA
HETATM   26  H   UNK N   1      36.779  15.596  13.921  0.00  0.00     0.167 HD
ENDBRANCH  23  25
ENDBRANCH   7  23
BRANCH   8  27
HETATM   27  C   UNK N   1      37.304  11.408  12.688  0.00  0.00     0.120 C 
BRANCH  27  28
HETATM   28  S   UNK N   1      36.698   9.704  12.612  0.00  0.00    -0.087 SA
BRANCH  28  29
HETATM   29  C   UNK N   1      35.314  10.137  13.656  0.00  0.00     0.175 A 
HETATM   30  N   UNK N   1      35.345  10.221  14.990  0.00  0.00    -0.262 N 
HETATM   31  N   UNK N   1      34.135  10.584  15.375  0.00  0.00    -0.223 N 
HETATM   32  C   UNK N   1      36.467   9.979  15.878  0.00  0.00     0.181 C 
HETATM   33  N   UNK N   1      33.373  10.722  14.299  0.00  0.00    -0.005 NA
ATOM     34  HN  UNK N   1      33.837  10.733  16.338  1.00  0.00     0.206 HD
HETATM   35  N   UNK N   1      34.085  10.449  13.211  0.00  0.00    -0.261 N 
ATOM     36  HN  UNK N   1      33.766  10.472  12.242  1.00  0.00     0.186 HD
ENDBRANCH  28  29
ENDBRANCH  27  28
ENDBRANCH   8  27
TORSDOF 9
ENDMDL
MODEL 5
REMARK VINA RESULT:      -7.2      2.323      2.871
REMARK  9 active torsions:
REMARK  status: ('A' for Active; 'I' for Inactive)
REMARK    1  A    between atoms: S_2  and  C_22 
REMARK    2  A    between atoms: S_2  and  C_27 
REMARK    3  A    between atoms: O_4  and  C_24 
REMARK    4  A    between atoms: C_25  and  O_7 
REMARK    5  A    between atoms: C_17  and  N_9 
REMARK       I    between atoms: N_9  and  C_23 
REMARK    6  A    between atoms: C_19  and  C_24 
REMARK    7  A    between atoms: C_20  and  C_22 
REMARK    8  A    between atoms: C_23  and  C_25 
REMARK    9  A    between atoms: C_25  and  C_26 
ROOT
HETATM    1  S   UNK N   1      34.911  11.100   9.543  0.00  0.00    -0.136 SA
HETATM    2  O   UNK N   1      34.491  13.917  12.830  0.00  0.00    -0.271 OA
HETATM    3  N   UNK N   1      35.712  13.032  11.131  0.00  0.00    -0.293 N 
HETATM    4  C   UNK N   1      35.827  11.612  11.028  0.00  0.00     0.187 A 
HETATM    5  C   UNK N   1      34.985  11.530  12.416  0.00  0.00     0.210 A 
HETATM    6  C   UNK N   1      35.067  13.005  12.261  0.00  0.00     0.251 A 
HETATM    7  C   UNK N   1      35.813  14.035  10.117  0.00  0.00     0.116 C 
HETATM    8  C   UNK N   1      35.920  13.612   8.825  0.00  0.00    -0.027 C 
HETATM    9  C   UNK N   1      36.017  12.134   8.508  0.00  0.00     0.113 C 
ENDROOT
BRANCH   5  10
HETATM   10  N   UNK N   1      35.777  11.136  13.556  0.00  0.00    -0.343 N 
HETATM   11  C   UNK N   1      35.174  10.625  14.659  0.00  0.00     0.251 C 
HETATM   12  O   UNK N   1      33.957  10.492  14.694  0.00  0.00    -0.270 OA
HETATM   13  H   UNK N   1      36.755  11.237  13.534  0.00  0.00     0.163 HD
BRANCH  11  14
HETATM   14  C   UNK N   1      35.996  10.217  15.842  0.00  0.00     0.243 C 
BRANCH  14  15
HETATM   15  O   UNK N   1      35.724   8.880  16.146  0.00  0.00    -0.381 OA
HETATM   16  H   UNK N   1      34.819   8.568  16.300  0.00  0.00     0.211 HD
ENDBRANCH  14  15
BRANCH  14  17
HETATM   17  C   UNK N   1      35.711  11.115  17.021  0.00  0.00    -0.021 A 
HETATM   18  C   UNK N   1      35.715  10.580  18.317  0.00  0.00     0.010 A 
HETATM   19  C   UNK N   1      35.460  11.402  19.419  0.00  0.00     0.001 A 
HETATM   20  C   UNK N   1      35.202  12.763  19.233  0.00  0.00     0.000 A 
HETATM   21  C   UNK N   1      35.195  13.303  17.944  0.00  0.00     0.001 A 
HETATM   22  C   UNK N   1      35.446  12.482  16.841  0.00  0.00     0.010 A 
ENDBRANCH  14  17
ENDBRANCH  11  14
ENDBRANCH   5  10
BRANCH   7  23
HETATM   23  C   UNK N   1      35.715  15.493  10.478  0.00  0.00     0.194 C 
HETATM   24  O   UNK N   1      36.727  16.158  10.615  0.00  0.00    -0.645 OA
BRANCH  23  25
HETATM   25  O   UNK N   1      34.522  16.105  10.616  0.00  0.00    -0.772 OA
HETATM   26  H   UNK N   1      33.740  15.597  10.710  0.00  0.00     0.167 HD
ENDBRANCH  23  25
ENDBRANCH   7  23
BRANCH   8  27
HETATM   27  C   UNK N   1      35.908  14.577   7.680  0.00  0.00     0.120 C 
BRANCH  27  28
HETATM   28  S   UNK N   1      34.553  14.240   6.526  0.00  0.00    -0.087 SA
BRANCH  28  29
HETATM   29  C   UNK N   1      33.429  15.171   7.557  0.00  0.00     0.175 A 
HETATM   30  N   UNK N   1      33.232  16.493   7.493  0.00  0.00    -0.262 N 
HETATM   31  N   UNK N   1      32.317  16.783   8.400  0.00  0.00    -0.223 N 
HETATM   32  C   UNK N   1      33.869  17.453   6.612  0.00  0.00     0.181 C 
HETATM   33  N   UNK N   1      31.955  15.662   9.009  0.00  0.00    -0.005 NA
ATOM     34  HN  UNK N   1      31.950  17.712   8.597  1.00  0.00     0.206 HD
HETATM   35  N   UNK N   1      32.635  14.640   8.501  0.00  0.00    -0.261 N 
ATOM     36  HN  UNK N   1      32.567  13.657   8.771  1.00  0.00     0.186 HD
ENDBRANCH  28  29
ENDBRANCH  27  28
ENDBRANCH   8  27
TORSDOF 9
ENDMDL
MODEL 6
REMARK VINA RESULT:      -6.8      3.022      8.844
REMARK  9 active torsions:
REMARK  status: ('A' for Active; 'I' for Inactive)
REMARK    1  A    between atoms: S_2  and  C_22 
REMARK    2  A    between atoms: S_2  and  C_27 
REMARK    3  A    between atoms: O_4  and  C_24 
REMARK    4  A    between atoms: C_25  and  O_7 
REMARK    5  A    between atoms: C_17  and  N_9 
REMARK       I    between atoms: N_9  and  C_23 
REMARK    6  A    between atoms: C_19  and  C_24 
REMARK    7  A    between atoms: C_20  and  C_22 
REMARK    8  A    between atoms: C_23  and  C_25 
REMARK    9  A    between atoms: C_25  and  C_26 
ROOT
HETATM    1  S   UNK N   1      34.309  11.508   8.915  0.00  0.00    -0.136 SA
HETATM    2  O   UNK N   1      37.112  14.751   9.647  0.00  0.00    -0.271 OA
HETATM    3  N   UNK N   1      35.311  13.517  10.275  0.00  0.00    -0.293 N 
HETATM    4  C   UNK N   1      34.270  13.278   9.327  0.00  0.00     0.187 A 
HETATM    5  C   UNK N   1      35.097  14.238   8.308  0.00  0.00     0.210 A 
HETATM    6  C   UNK N   1      35.981  14.318   9.499  0.00  0.00     0.251 A 
HETATM    7  C   UNK N   1      35.703  12.751  11.418  0.00  0.00     0.116 C 
HETATM    8  C   UNK N   1      35.095  11.545  11.602  0.00  0.00    -0.027 C 
HETATM    9  C   UNK N   1      33.987  11.094  10.672  0.00  0.00     0.113 C 
ENDROOT
BRANCH   5  10
HETATM   10  N   UNK N   1      34.484  15.526   8.094  0.00  0.00    -0.343 N 
HETATM   11  C   UNK N   1      34.619  16.154   6.899  0.00  0.00     0.251 C 
HETATM   12  O   UNK N   1      35.257  15.631   5.994  0.00  0.00    -0.270 OA
HETATM   13  H   UNK N   1      33.967  15.950   8.815  0.00  0.00     0.163 HD
BRANCH  11  14
HETATM   14  C   UNK N   1      33.983  17.491   6.678  0.00  0.00     0.243 C 
BRANCH  14  15
HETATM   15  O   UNK N   1      34.698  18.460   7.389  0.00  0.00    -0.381 OA
HETATM   16  H   UNK N   1      34.914  19.320   6.998  0.00  0.00     0.211 HD
ENDBRANCH  14  15
BRANCH  14  17
HETATM   17  C   UNK N   1      32.534  17.464   7.098  0.00  0.00    -0.021 A 
HETATM   18  C   UNK N   1      31.580  16.868   6.261  0.00  0.00     0.010 A 
HETATM   19  C   UNK N   1      30.235  16.827   6.641  0.00  0.00     0.001 A 
HETATM   20  C   UNK N   1      29.835  17.381   7.860  0.00  0.00     0.000 A 
HETATM   21  C   UNK N   1      30.780  17.978   8.700  0.00  0.00     0.001 A 
HETATM   22  C   UNK N   1      32.124  18.022   8.320  0.00  0.00     0.010 A 
ENDBRANCH  14  17
ENDBRANCH  11  14
ENDBRANCH   5  10
BRANCH   7  23
HETATM   23  C   UNK N   1      36.807  13.239  12.318  0.00  0.00     0.194 C 
HETATM   24  O   UNK N   1      36.540  13.876  13.322  0.00  0.00    -0.645 OA
BRANCH  23  25
HETATM   25  O   UNK N   1      38.099  12.954  12.064  0.00  0.00    -0.772 OA
HETATM   26  H   UNK N   1      38.555  12.327  12.592  0.00  0.00     0.167 HD
ENDBRANCH  23  25
ENDBRANCH   7  23
BRANCH   8  27
HETATM   27  C   UNK N   1      35.518  10.612  12.694  0.00  0.00     0.120 C 
BRANCH  27  28
HETATM   28  S   UNK N   1      34.150  10.212  13.810  0.00  0.00    -0.087 SA
BRANCH  28  29
HETATM   29  C   UNK N   1      34.828  11.302  15.053  0.00  0.00     0.175 A 
HETATM   30  N   UNK N   1      35.767  10.971  15.946  0.00  0.00    -0.262 N 
HETATM   31  N   UNK N   1      36.004  12.054  16.663  0.00  0.00    -0.223 N 
HETATM   32  C   UNK N   1      36.427   9.691  16.120  0.00  0.00     0.181 C 
HETATM   33  N   UNK N   1      35.228  13.033  16.221  0.00  0.00    -0.005 NA
ATOM     34  HN  UNK N   1      36.673  12.124  17.429  1.00  0.00     0.206 HD
HETATM   35  N   UNK N   1      34.483  12.591  15.214  0.00  0.00    -0.261 N 
ATOM     36  HN  UNK N   1      33.795  13.118  14.676  1.00  0.00     0.186 HD
ENDBRANCH  28  29
ENDBRANCH  27  28
ENDBRANCH   8  27
TORSDOF 9
ENDMDL
MODEL 7
REMARK VINA RESULT:      -6.8      6.110      9.556
REMARK  9 active torsions:
REMARK  status: ('A' for Active; 'I' for Inactive)
REMARK    1  A    between atoms: S_2  and  C_22 
REMARK    2  A    between atoms: S_2  and  C_27 
REMARK    3  A    between atoms: O_4  and  C_24 
REMARK    4  A    between atoms: C_25  and  O_7 
REMARK    5  A    between atoms: C_17  and  N_9 
REMARK       I    between atoms: N_9  and  C_23 
REMARK    6  A    between atoms: C_19  and  C_24 
REMARK    7  A    between atoms: C_20  and  C_22 
REMARK    8  A    between atoms: C_23  and  C_25 
REMARK    9  A    between atoms: C_25  and  C_26 
ROOT
HETATM    1  S   UNK N   1      27.944  16.306   5.379  0.00  0.00    -0.136 SA
HETATM    2  O   UNK N   1      29.164  19.018   8.552  0.00  0.00    -0.271 OA
HETATM    3  N   UNK N   1      28.697  18.620   6.365  0.00  0.00    -0.293 N 
HETATM    4  C   UNK N   1      29.284  17.485   5.727  0.00  0.00     0.187 A 
HETATM    5  C   UNK N   1      30.083  17.225   7.118  0.00  0.00     0.210 A 
HETATM    6  C   UNK N   1      29.345  18.463   7.482  0.00  0.00     0.251 A 
HETATM    7  C   UNK N   1      27.487  19.320   6.058  0.00  0.00     0.116 C 
HETATM    8  C   UNK N   1      26.685  18.790   5.092  0.00  0.00    -0.027 C 
HETATM    9  C   UNK N   1      27.119  17.559   4.324  0.00  0.00     0.113 C 
ENDROOT
BRANCH   5  10
HETATM   10  N   UNK N   1      31.491  17.525   7.047  0.00  0.00    -0.343 N 
HETATM   11  C   UNK N   1      32.343  17.018   7.973  0.00  0.00     0.251 C 
HETATM   12  O   UNK N   1      31.924  16.301   8.874  0.00  0.00    -0.270 OA
HETATM   13  H   UNK N   1      31.836  18.097   6.325  0.00  0.00     0.163 HD
BRANCH  11  14
HETATM   14  C   UNK N   1      33.806  17.330   7.898  0.00  0.00     0.243 C 
BRANCH  14  15
HETATM   15  O   UNK N   1      34.125  17.706   6.590  0.00  0.00    -0.381 OA
HETATM   16  H   UNK N   1      34.352  17.048   5.914  0.00  0.00     0.211 HD
ENDBRANCH  14  15
BRANCH  14  17
HETATM   17  C   UNK N   1      34.624  16.142   8.341  0.00  0.00    -0.021 A 
HETATM   18  C   UNK N   1      35.215  16.141   9.612  0.00  0.00     0.010 A 
HETATM   19  C   UNK N   1      35.968  15.043  10.039  0.00  0.00     0.001 A 
HETATM   20  C   UNK N   1      36.134  13.939   9.199  0.00  0.00     0.000 A 
HETATM   21  C   UNK N   1      35.549  13.932   7.930  0.00  0.00     0.001 A 
HETATM   22  C   UNK N   1      34.798  15.030   7.501  0.00  0.00     0.010 A 
ENDBRANCH  14  17
ENDBRANCH  11  14
ENDBRANCH   5  10
BRANCH   7  23
HETATM   23  C   UNK N   1      27.097  20.543   6.844  0.00  0.00     0.194 C 
HETATM   24  O   UNK N   1      27.334  21.654   6.404  0.00  0.00    -0.645 OA
BRANCH  23  25
HETATM   25  O   UNK N   1      26.446  20.445   8.020  0.00  0.00    -0.772 OA
HETATM   26  H   UNK N   1      26.918  20.240   8.804  0.00  0.00     0.167 HD
ENDBRANCH  23  25
ENDBRANCH   7  23
BRANCH   8  27
HETATM   27  C   UNK N   1      25.342  19.375   4.780  0.00  0.00     0.120 C 
BRANCH  27  28
HETATM   28  S   UNK N   1      24.131  18.098   4.351  0.00  0.00    -0.087 SA
BRANCH  28  29
HETATM   29  C   UNK N   1      23.074  19.333   3.609  0.00  0.00     0.175 A 
HETATM   30  N   UNK N   1      21.740  19.276   3.548  0.00  0.00    -0.262 N 
HETATM   31  N   UNK N   1      21.341  20.380   2.944  0.00  0.00    -0.223 N 
HETATM   32  C   UNK N   1      20.863  18.232   4.044  0.00  0.00     0.181 C 
HETATM   33  N   UNK N   1      22.409  21.105   2.639  0.00  0.00    -0.005 NA
ATOM     34  HN  UNK N   1      20.375  20.634   2.746  1.00  0.00     0.206 HD
HETATM   35  N   UNK N   1      23.506  20.473   3.044  0.00  0.00    -0.261 N 
ATOM     36  HN  UNK N   1      24.472  20.788   2.947  1.00  0.00     0.186 HD
ENDBRANCH  28  29
ENDBRANCH  27  28
ENDBRANCH   8  27
TORSDOF 9
ENDMDL
MODEL 8
REMARK VINA RESULT:      -6.8     16.990     20.260
REMARK  9 active torsions:
REMARK  status: ('A' for Active; 'I' for Inactive)
REMARK    1  A    between atoms: S_2  and  C_22 
REMARK    2  A    between atoms: S_2  and  C_27 
REMARK    3  A    between atoms: O_4  and  C_24 
REMARK    4  A    between atoms: C_25  and  O_7 
REMARK    5  A    between atoms: C_17  and  N_9 
REMARK       I    between atoms: N_9  and  C_23 
REMARK    6  A    between atoms: C_19  and  C_24 
REMARK    7  A    between atoms: C_20  and  C_22 
REMARK    8  A    between atoms: C_23  and  C_25 
REMARK    9  A    between atoms: C_25  and  C_26 
ROOT
HETATM    1  S   UNK N   1      32.494  25.297  -4.974  0.00  0.00    -0.136 SA
HETATM    2  O   UNK N   1      30.777  22.855  -1.812  0.00  0.00    -0.271 OA
HETATM    3  N   UNK N   1      31.515  23.088  -3.947  0.00  0.00    -0.293 N 
HETATM    4  C   UNK N   1      31.065  24.202  -4.718  0.00  0.00     0.187 A 
HETATM    5  C   UNK N   1      30.123  24.588  -3.450  0.00  0.00     0.210 A 
HETATM    6  C   UNK N   1      30.750  23.346  -2.927  0.00  0.00     0.251 A 
HETATM    7  C   UNK N   1      32.715  22.317  -4.065  0.00  0.00     0.116 C 
HETATM    8  C   UNK N   1      33.651  22.747  -4.958  0.00  0.00    -0.027 C 
HETATM    9  C   UNK N   1      33.372  23.943  -5.845  0.00  0.00     0.113 C 
ENDROOT
BRANCH   5  10
HETATM   10  N   UNK N   1      28.719  24.345  -3.672  0.00  0.00    -0.343 N 
HETATM   11  C   UNK N   1      27.874  25.385  -3.881  0.00  0.00     0.251 C 
HETATM   12  O   UNK N   1      28.296  26.535  -3.888  0.00  0.00    -0.270 OA
HETATM   13  H   UNK N   1      28.373  23.425  -3.671  0.00  0.00     0.163 HD
BRANCH  11  14
HETATM   14  C   UNK N   1      26.415  25.133  -4.111  0.00  0.00     0.243 C 
BRANCH  14  15
HETATM   15  O   UNK N   1      26.004  24.069  -3.301  0.00  0.00    -0.381 OA
HETATM   16  H   UNK N   1      26.549  23.753  -2.563  0.00  0.00     0.211 HD
ENDBRANCH  14  15
BRANCH  14  17
HETATM   17  C   UNK N   1      26.151  24.844  -5.568  0.00  0.00    -0.021 A 
HETATM   18  C   UNK N   1      26.045  25.906  -6.477  0.00  0.00     0.010 A 
HETATM   19  C   UNK N   1      25.809  25.653  -7.832  0.00  0.00     0.001 A 
HETATM   20  C   UNK N   1      25.680  24.338  -8.287  0.00  0.00     0.000 A 
HETATM   21  C   UNK N   1      25.783  23.274  -7.387  0.00  0.00     0.001 A 
HETATM   22  C   UNK N   1      26.016  23.525  -6.032  0.00  0.00     0.010 A 
ENDBRANCH  14  17
ENDBRANCH  11  14
ENDBRANCH   5  10
BRANCH   7  23
HETATM   23  C   UNK N   1      32.949  21.134  -3.165  0.00  0.00     0.194 C 
HETATM   24  O   UNK N   1      33.326  21.303  -2.018  0.00  0.00    -0.645 OA
BRANCH  23  25
HETATM   25  O   UNK N   1      32.712  19.875  -3.582  0.00  0.00    -0.772 OA
HETATM   26  H   UNK N   1      32.191  19.722  -4.346  0.00  0.00     0.167 HD
ENDBRANCH  23  25
ENDBRANCH   7  23
BRANCH   8  27
HETATM   27  C   UNK N   1      34.990  22.086  -5.071  0.00  0.00     0.120 C 
BRANCH  27  28
HETATM   28  S   UNK N   1      35.203  21.259  -6.668  0.00  0.00    -0.087 SA
BRANCH  28  29
HETATM   29  C   UNK N   1      35.153  19.665  -5.862  0.00  0.00     0.175 A 
HETATM   30  N   UNK N   1      34.692  18.534  -6.408  0.00  0.00    -0.262 N 
HETATM   31  N   UNK N   1      34.846  17.587  -5.502  0.00  0.00    -0.223 N 
HETATM   32  C   UNK N   1      34.132  18.341  -7.733  0.00  0.00     0.181 C 
HETATM   33  N   UNK N   1      35.393  18.122  -4.419  0.00  0.00    -0.005 NA
ATOM     34  HN  UNK N   1      34.589  16.607  -5.617  1.00  0.00     0.206 HD
HETATM   35  N   UNK N   1      35.596  19.419  -4.618  0.00  0.00    -0.261 N 
ATOM     36  HN  UNK N   1      36.003  20.089  -3.963  1.00  0.00     0.186 HD
ENDBRANCH  28  29
ENDBRANCH  27  28
ENDBRANCH   8  27
TORSDOF 9
ENDMDL
MODEL 9
REMARK VINA RESULT:      -6.7      3.427      9.073
REMARK  9 active torsions:
REMARK  status: ('A' for Active; 'I' for Inactive)
REMARK    1  A    between atoms: S_2  and  C_22 
REMARK    2  A    between atoms: S_2  and  C_27 
REMARK    3  A    between atoms: O_4  and  C_24 
REMARK    4  A    between atoms: C_25  and  O_7 
REMARK    5  A    between atoms: C_17  and  N_9 
REMARK       I    between atoms: N_9  and  C_23 
REMARK    6  A    between atoms: C_19  and  C_24 
REMARK    7  A    between atoms: C_20  and  C_22 
REMARK    8  A    between atoms: C_23  and  C_25 
REMARK    9  A    between atoms: C_25  and  C_26 
ROOT
HETATM    1  S   UNK N   1      34.784  11.619   8.675  0.00  0.00    -0.136 SA
HETATM    2  O   UNK N   1      36.713  14.976  10.655  0.00  0.00    -0.271 OA
HETATM    3  N   UNK N   1      34.985  13.512  10.483  0.00  0.00    -0.293 N 
HETATM    4  C   UNK N   1      34.373  13.308   9.209  0.00  0.00     0.187 A 
HETATM    5  C   UNK N   1      35.365  14.465   8.645  0.00  0.00     0.210 A 
HETATM    6  C   UNK N   1      35.769  14.466  10.075  0.00  0.00     0.251 A 
HETATM    7  C   UNK N   1      35.058  12.639  11.615  0.00  0.00     0.116 C 
HETATM    8  C   UNK N   1      34.588  11.369  11.458  0.00  0.00    -0.027 C 
HETATM    9  C   UNK N   1      33.935  10.948  10.157  0.00  0.00     0.113 C 
ENDROOT
BRANCH   5  10
HETATM   10  N   UNK N   1      34.700  15.709   8.347  0.00  0.00    -0.343 N 
HETATM   11  C   UNK N   1      34.710  16.201   7.082  0.00  0.00     0.251 C 
HETATM   12  O   UNK N   1      35.280  15.592   6.185  0.00  0.00    -0.270 OA
HETATM   13  H   UNK N   1      34.237  16.203   9.061  0.00  0.00     0.163 HD
BRANCH  11  14
HETATM   14  C   UNK N   1      34.019  17.493   6.774  0.00  0.00     0.243 C 
BRANCH  14  15
HETATM   15  O   UNK N   1      34.678  18.532   7.438  0.00  0.00    -0.381 OA
HETATM   16  H   UNK N   1      35.526  18.881   7.120  0.00  0.00     0.211 HD
ENDBRANCH  14  15
BRANCH  14  17
HETATM   17  C   UNK N   1      32.566  17.425   7.172  0.00  0.00    -0.021 A 
HETATM   18  C   UNK N   1      32.142  18.037   8.360  0.00  0.00     0.010 A 
HETATM   19  C   UNK N   1      30.797  17.989   8.738  0.00  0.00     0.001 A 
HETATM   20  C   UNK N   1      29.866  17.331   7.930  0.00  0.00     0.000 A 
HETATM   21  C   UNK N   1      30.280  16.716   6.745  0.00  0.00     0.001 A 
HETATM   22  C   UNK N   1      31.625  16.761   6.368  0.00  0.00     0.010 A 
ENDBRANCH  14  17
ENDBRANCH  11  14
ENDBRANCH   5  10
BRANCH   7  23
HETATM   23  C   UNK N   1      35.712  13.101  12.889  0.00  0.00     0.194 C 
HETATM   24  O   UNK N   1      35.036  13.576  13.785  0.00  0.00    -0.645 OA
BRANCH  23  25
HETATM   25  O   UNK N   1      37.037  12.966  13.089  0.00  0.00    -0.772 OA
HETATM   26  H   UNK N   1      37.594  12.691  12.387  0.00  0.00     0.167 HD
ENDBRANCH  23  25
ENDBRANCH   7  23
BRANCH   8  27
HETATM   27  C   UNK N   1      34.729  10.341  12.538  0.00  0.00     0.120 C 
BRANCH  27  28
HETATM   28  S   UNK N   1      35.846   9.001  12.054  0.00  0.00    -0.087 SA
BRANCH  28  29
HETATM   29  C   UNK N   1      36.994   9.478  13.336  0.00  0.00     0.175 A 
HETATM   30  N   UNK N   1      38.279   9.114  13.402  0.00  0.00    -0.262 N 
HETATM   31  N   UNK N   1      38.780   9.687  14.480  0.00  0.00    -0.223 N 
HETATM   32  C   UNK N   1      39.019   8.266  12.486  0.00  0.00     0.181 C 
HETATM   33  N   UNK N   1      37.824  10.393  15.068  0.00  0.00    -0.005 NA
ATOM     34  HN  UNK N   1      39.742   9.602  14.806  1.00  0.00     0.206 HD
HETATM   35  N   UNK N   1      36.697  10.280  14.373  0.00  0.00    -0.261 N 
ATOM     36  HN  UNK N   1      35.796  10.711  14.582  1.00  0.00     0.186 HD
ENDBRANCH  28  29
ENDBRANCH  27  28
ENDBRANCH   8  27
TORSDOF 9
ENDMDL
