MODEL 1
REMARK VINA RESULT:      -8.4      0.000      0.000
REMARK  11 active torsions:
REMARK  status: ('A' for Active; 'I' for Inactive)
REMARK    1  A    between atoms: S_2  and  C_29 
REMARK    2  A    between atoms: S_2  and  C_40 
REMARK    3  A    between atoms: O_5  and  C_31 
REMARK    4  A    between atoms: O_10  and  C_44 
REMARK    5  A    between atoms: C_23  and  N_12 
REMARK       I    between atoms: N_12  and  C_28 
REMARK    6  A    between atoms: N_13  and  C_30 
REMARK       I    between atoms: N_13  and  C_33 
REMARK       I    between atoms: N_14  and  C_33 
REMARK    7  A    between atoms: N_15  and  C_41 
REMARK    8  A    between atoms: C_25  and  C_31 
REMARK    9  A    between atoms: C_26  and  C_29 
REMARK   10  A    between atoms: C_28  and  C_30 
REMARK   11  A    between atoms: C_30  and  C_32 
ROOT
HETATM    1  O   UNK N   1      24.685  15.547   2.552  0.00  0.00    -0.271 OA
HETATM    2  N   UNK N   1      25.055  16.005   4.717  0.00  0.00    -0.343 N 
HETATM    3  C   UNK N   1      24.306  15.483   3.714  0.00  0.00     0.245 C 
HETATM    4  H   UNK N   1      24.769  15.847   5.645  0.00  0.00     0.163 HD
ENDROOT
BRANCH   2   5
HETATM    5  C   UNK N   1      26.247  16.779   4.492  0.00  0.00     0.210 A 
HETATM    6  C   UNK N   1      27.034  17.047   5.883  0.00  0.00     0.187 A 
HETATM    7  S   UNK N   1      27.804  18.688   6.036  0.00  0.00    -0.136 SA
HETATM    8  N   UNK N   1      28.027  16.142   5.393  0.00  0.00    -0.293 N 
HETATM    9  C   UNK N   1      29.018  17.997   7.224  0.00  0.00     0.113 C 
HETATM   10  C   UNK N   1      29.914  16.944   6.603  0.00  0.00    -0.027 C 
HETATM   11  C   UNK N   1      29.403  16.021   5.744  0.00  0.00     0.116 C 
HETATM   12  C   UNK N   1      27.409  15.892   4.277  0.00  0.00     0.251 A 
HETATM   13  O   UNK N   1      27.861  15.388   3.262  0.00  0.00    -0.271 OA
BRANCH  10  14
HETATM   14  C   UNK N   1      31.370  16.975   6.925  0.00  0.00     0.120 C 
BRANCH  14  15
HETATM   15  S   UNK N   1      31.750  16.163   8.495  0.00  0.00    -0.087 SA
BRANCH  15  16
HETATM   16  C   UNK N   1      33.218  17.169   8.597  0.00  0.00     0.175 A 
HETATM   17  N   UNK N   1      34.269  16.930   9.388  0.00  0.00    -0.262 N 
HETATM   18  N   UNK N   1      35.115  17.925   9.207  0.00  0.00    -0.223 N 
HETATM   19  C   UNK N   1      34.467  15.817  10.299  0.00  0.00     0.181 C 
HETATM   20  N   UNK N   1      34.597  18.765   8.319  0.00  0.00    -0.005 NA
ATOM     21  HN  UNK N   1      36.018  18.030   9.670  1.00  0.00     0.206 HD
HETATM   22  N   UNK N   1      33.411  18.318   7.925  0.00  0.00    -0.261 N 
ATOM     23  HN  UNK N   1      32.779  18.754   7.252  1.00  0.00     0.186 HD
ENDBRANCH  15  16
ENDBRANCH  14  15
ENDBRANCH  10  14
BRANCH  11  24
HETATM   24  C   UNK N   1      30.250  14.953   5.106  0.00  0.00     0.194 C 
HETATM   25  O   UNK N   1      30.443  13.900   5.688  0.00  0.00    -0.645 OA
BRANCH  24  26
HETATM   26  O   UNK N   1      30.845  15.144   3.914  0.00  0.00    -0.772 OA
HETATM   27  H   UNK N   1      30.331  15.367   3.163  0.00  0.00     0.167 HD
ENDBRANCH  24  26
ENDBRANCH  11  24
ENDBRANCH   2   5
BRANCH   3  28
HETATM   28  C   UNK N   1      22.924  15.001   4.057  0.00  0.00     0.211 C 
BRANCH  28  29
HETATM   29  N   UNK N   1      23.024  14.748   5.477  0.00  0.00    -0.325 N 
HETATM   30  C   UNK N   1      22.192  14.165   6.366  0.00  0.00     0.326 C 
HETATM   31  O   UNK N   1      21.034  13.921   6.057  0.00  0.00    -0.247 OA
HETATM   32  N   UNK N   1      22.678  13.809   7.606  0.00  0.00    -0.260 N 
HETATM   33  C   UNK N   1      21.767  13.241   8.588  0.00  0.00     0.157 C 
HETATM   34  C   UNK N   1      24.005  13.963   7.956  0.00  0.00     0.319 C 
HETATM   35  C   UNK N   1      22.436  12.132   9.399  0.00  0.00     0.146 C 
HETATM   36  N   UNK N   1      23.711  12.549   9.954  0.00  0.00    -0.343 N 
HETATM   37  C   UNK N   1      24.506  13.405   9.231  0.00  0.00     0.312 C 
HETATM   38  O   UNK N   1      25.637  13.688   9.593  0.00  0.00    -0.262 OA
HETATM   39  O   UNK N   1      24.805  14.519   7.213  0.00  0.00    -0.262 OA
HETATM   40  H   UNK N   1      23.867  15.066   5.875  0.00  0.00     0.165 HD
BRANCH  36  41
HETATM   41  C   UNK N   1      24.098  11.918  11.215  0.00  0.00     0.122 C 
HETATM   42  C   UNK N   1      23.073  11.922  12.343  0.00  0.00     0.026 C 
ENDBRANCH  36  41
ENDBRANCH  28  29
BRANCH  28  43
HETATM   43  C   UNK N   1      21.845  15.955   3.587  0.00  0.00    -0.026 A 
HETATM   44  C   UNK N   1      21.198  15.668   2.375  0.00  0.00     0.012 A 
HETATM   45  C   UNK N   1      20.194  16.503   1.887  0.00  0.00     0.037 A 
HETATM   46  C   UNK N   1      19.820  17.636   2.611  0.00  0.00     0.065 A 
HETATM   47  C   UNK N   1      20.456  17.933   3.822  0.00  0.00     0.037 A 
HETATM   48  C   UNK N   1      21.468  17.095   4.311  0.00  0.00     0.012 A 
BRANCH  46  49
HETATM   49  O   UNK N   1      18.850  18.438   2.143  0.00  0.00    -0.361 OA
HETATM   50  H   UNK N   1      18.152  18.097   1.619  0.00  0.00     0.217 HD
ENDBRANCH  46  49
ENDBRANCH  28  43
ENDBRANCH   3  28
TORSDOF 11
ENDMDL
MODEL 2
REMARK VINA RESULT:      -8.2      8.380     13.658
REMARK  11 active torsions:
REMARK  status: ('A' for Active; 'I' for Inactive)
REMARK    1  A    between atoms: S_2  and  C_29 
REMARK    2  A    between atoms: S_2  and  C_40 
REMARK    3  A    between atoms: O_5  and  C_31 
REMARK    4  A    between atoms: O_10  and  C_44 
REMARK    5  A    between atoms: C_23  and  N_12 
REMARK       I    between atoms: N_12  and  C_28 
REMARK    6  A    between atoms: N_13  and  C_30 
REMARK       I    between atoms: N_13  and  C_33 
REMARK       I    between atoms: N_14  and  C_33 
REMARK    7  A    between atoms: N_15  and  C_41 
REMARK    8  A    between atoms: C_25  and  C_31 
REMARK    9  A    between atoms: C_26  and  C_29 
REMARK   10  A    between atoms: C_28  and  C_30 
REMARK   11  A    between atoms: C_30  and  C_32 
ROOT
HETATM    1  O   UNK N   1      37.014  12.712  13.909  0.00  0.00    -0.271 OA
HETATM    2  N   UNK N   1      35.265  13.782  12.998  0.00  0.00    -0.343 N 
HETATM    3  C   UNK N   1      35.808  12.917  13.891  0.00  0.00     0.245 C 
HETATM    4  H   UNK N   1      34.308  13.998  13.078  0.00  0.00     0.163 HD
ENDROOT
BRANCH   2   5
HETATM    5  C   UNK N   1      36.017  14.399  11.938  0.00  0.00     0.210 A 
HETATM    6  C   UNK N   1      35.605  13.780  10.499  0.00  0.00     0.187 A 
HETATM    7  S   UNK N   1      36.976  13.575   9.321  0.00  0.00    -0.136 SA
HETATM    8  N   UNK N   1      34.985  15.041  10.233  0.00  0.00    -0.293 N 
HETATM    9  C   UNK N   1      35.786  13.686   7.930  0.00  0.00     0.113 C 
HETATM   10  C   UNK N   1      35.095  15.034   7.855  0.00  0.00    -0.027 C 
HETATM   11  C   UNK N   1      34.674  15.659   8.987  0.00  0.00     0.116 C 
HETATM   12  C   UNK N   1      35.283  15.558  11.388  0.00  0.00     0.251 A 
HETATM   13  O   UNK N   1      35.275  16.734  11.711  0.00  0.00    -0.271 OA
BRANCH  10  14
HETATM   14  C   UNK N   1      34.929  15.669   6.516  0.00  0.00     0.120 C 
BRANCH  14  15
HETATM   15  S   UNK N   1      33.934  14.664   5.389  0.00  0.00    -0.087 SA
BRANCH  15  16
HETATM   16  C   UNK N   1      32.501  15.575   5.931  0.00  0.00     0.175 A 
HETATM   17  N   UNK N   1      32.137  16.783   5.488  0.00  0.00    -0.262 N 
HETATM   18  N   UNK N   1      31.061  17.128   6.167  0.00  0.00    -0.223 N 
HETATM   19  C   UNK N   1      32.786  17.597   4.476  0.00  0.00     0.181 C 
HETATM   20  N   UNK N   1      30.764  16.151   7.015  0.00  0.00    -0.005 NA
ATOM     21  HN  UNK N   1      30.542  17.999   6.057  1.00  0.00     0.206 HD
HETATM   22  N   UNK N   1      31.650  15.170   6.890  0.00  0.00    -0.261 N 
ATOM     23  HN  UNK N   1      31.679  14.294   7.411  1.00  0.00     0.186 HD
ENDBRANCH  15  16
ENDBRANCH  14  15
ENDBRANCH  10  14
BRANCH  11  24
HETATM   24  C   UNK N   1      33.978  16.993   8.964  0.00  0.00     0.194 C 
HETATM   25  O   UNK N   1      34.629  18.020   8.887  0.00  0.00    -0.645 OA
BRANCH  24  26
HETATM   26  O   UNK N   1      32.640  17.091   9.071  0.00  0.00    -0.772 OA
HETATM   27  H   UNK N   1      32.086  16.659   8.451  0.00  0.00     0.167 HD
ENDBRANCH  24  26
ENDBRANCH  11  24
ENDBRANCH   2   5
BRANCH   3  28
HETATM   28  C   UNK N   1      34.865  12.089  14.718  0.00  0.00     0.211 C 
BRANCH  28  29
HETATM   29  N   UNK N   1      35.123  10.749  14.240  0.00  0.00    -0.325 N 
HETATM   30  C   UNK N   1      34.610  10.024  13.223  0.00  0.00     0.326 C 
HETATM   31  O   UNK N   1      33.609  10.408  12.636  0.00  0.00    -0.247 OA
HETATM   32  N   UNK N   1      35.255   8.870  12.831  0.00  0.00    -0.260 N 
HETATM   33  C   UNK N   1      34.669   8.052  11.780  0.00  0.00     0.157 C 
HETATM   34  C   UNK N   1      36.448   8.459  13.390  0.00  0.00     0.319 C 
HETATM   35  C   UNK N   1      35.738   7.469  10.858  0.00  0.00     0.146 C 
HETATM   36  N   UNK N   1      36.797   6.805  11.596  0.00  0.00    -0.343 N 
HETATM   37  C   UNK N   1      37.184   7.313  12.812  0.00  0.00     0.312 C 
HETATM   38  O   UNK N   1      38.149   6.869  13.414  0.00  0.00    -0.262 OA
HETATM   39  O   UNK N   1      36.949   9.049  14.340  0.00  0.00    -0.262 OA
HETATM   40  H   UNK N   1      35.809  10.270  14.759  0.00  0.00     0.165 HD
BRANCH  36  41
HETATM   41  C   UNK N   1      37.453   5.691  10.912  0.00  0.00     0.122 C 
HETATM   42  C   UNK N   1      38.585   6.030   9.949  0.00  0.00     0.026 C 
ENDBRANCH  36  41
ENDBRANCH  28  29
BRANCH  28  43
HETATM   43  C   UNK N   1      35.019  12.347  16.203  0.00  0.00    -0.026 A 
HETATM   44  C   UNK N   1      35.176  11.237  17.049  0.00  0.00     0.012 A 
HETATM   45  C   UNK N   1      35.326  11.405  18.425  0.00  0.00     0.037 A 
HETATM   46  C   UNK N   1      35.326  12.688  18.973  0.00  0.00     0.065 A 
HETATM   47  C   UNK N   1      35.171  13.803  18.140  0.00  0.00     0.037 A 
HETATM   48  C   UNK N   1      35.017  13.634  16.758  0.00  0.00     0.012 A 
BRANCH  46  49
HETATM   49  O   UNK N   1      35.474  12.849  20.297  0.00  0.00    -0.361 OA
HETATM   50  H   UNK N   1      35.923  12.210  20.814  0.00  0.00     0.217 HD
ENDBRANCH  46  49
ENDBRANCH  28  43
ENDBRANCH   3  28
TORSDOF 11
ENDMDL
MODEL 3
REMARK VINA RESULT:      -8.1      4.153      9.594
REMARK  11 active torsions:
REMARK  status: ('A' for Active; 'I' for Inactive)
REMARK    1  A    between atoms: S_2  and  C_29 
REMARK    2  A    between atoms: S_2  and  C_40 
REMARK    3  A    between atoms: O_5  and  C_31 
REMARK    4  A    between atoms: O_10  and  C_44 
REMARK    5  A    between atoms: C_23  and  N_12 
REMARK       I    between atoms: N_12  and  C_28 
REMARK    6  A    between atoms: N_13  and  C_30 
REMARK       I    between atoms: N_13  and  C_33 
REMARK       I    between atoms: N_14  and  C_33 
REMARK    7  A    between atoms: N_15  and  C_41 
REMARK    8  A    between atoms: C_25  and  C_31 
REMARK    9  A    between atoms: C_26  and  C_29 
REMARK   10  A    between atoms: C_28  and  C_30 
REMARK   11  A    between atoms: C_30  and  C_32 
ROOT
HETATM    1  O   UNK N   1      28.633  15.046   4.369  0.00  0.00    -0.271 OA
HETATM    2  N   UNK N   1      27.009  15.874   3.060  0.00  0.00    -0.343 N 
HETATM    3  C   UNK N   1      28.077  16.023   3.883  0.00  0.00     0.245 C 
HETATM    4  H   UNK N   1      26.651  16.673   2.610  0.00  0.00     0.163 HD
ENDROOT
BRANCH   2   5
HETATM    5  C   UNK N   1      26.372  14.608   2.813  0.00  0.00     0.210 A 
HETATM    6  C   UNK N   1      25.516  14.129   4.103  0.00  0.00     0.187 A 
HETATM    7  S   UNK N   1      25.557  12.342   4.441  0.00  0.00    -0.136 SA
HETATM    8  N   UNK N   1      24.351  14.399   3.319  0.00  0.00    -0.293 N 
HETATM    9  C   UNK N   1      23.941  12.476   5.297  0.00  0.00     0.113 C 
HETATM   10  C   UNK N   1      22.820  12.911   4.373  0.00  0.00    -0.027 C 
HETATM   11  C   UNK N   1      23.029  13.880   3.443  0.00  0.00     0.116 C 
HETATM   12  C   UNK N   1      25.009  14.809   2.276  0.00  0.00     0.251 A 
HETATM   13  O   UNK N   1      24.605  14.938   1.133  0.00  0.00    -0.271 OA
BRANCH  10  14
HETATM   14  C   UNK N   1      21.504  12.219   4.485  0.00  0.00     0.120 C 
BRANCH  14  15
HETATM   15  S   UNK N   1      20.785  12.360   6.138  0.00  0.00    -0.087 SA
BRANCH  15  16
HETATM   16  C   UNK N   1      20.219  13.991   5.693  0.00  0.00     0.175 A 
HETATM   17  N   UNK N   1      20.710  15.139   6.171  0.00  0.00    -0.262 N 
HETATM   18  N   UNK N   1      19.993  16.109   5.637  0.00  0.00    -0.223 N 
HETATM   19  C   UNK N   1      21.800  15.323   7.111  0.00  0.00     0.181 C 
HETATM   20  N   UNK N   1      19.076  15.570   4.843  0.00  0.00    -0.005 NA
ATOM     21  HN  UNK N   1      20.124  17.107   5.804  1.00  0.00     0.206 HD
HETATM   22  N   UNK N   1      19.193  14.248   4.863  0.00  0.00    -0.261 N 
ATOM     23  HN  UNK N   1      18.625  13.570   4.354  1.00  0.00     0.186 HD
ENDBRANCH  15  16
ENDBRANCH  14  15
ENDBRANCH  10  14
BRANCH  11  24
HETATM   24  C   UNK N   1      21.948  14.350   2.508  0.00  0.00     0.194 C 
HETATM   25  O   UNK N   1      21.705  13.725   1.490  0.00  0.00    -0.645 OA
BRANCH  24  26
HETATM   26  O   UNK N   1      21.258  15.483   2.742  0.00  0.00    -0.772 OA
HETATM   27  H   UNK N   1      21.541  16.292   2.363  0.00  0.00     0.167 HD
ENDBRANCH  24  26
ENDBRANCH  11  24
ENDBRANCH   2   5
BRANCH   3  28
HETATM   28  C   UNK N   1      28.428  17.417   4.322  0.00  0.00     0.211 C 
BRANCH  28  29
HETATM   29  N   UNK N   1      27.133  18.053   4.410  0.00  0.00    -0.325 N 
HETATM   30  C   UNK N   1      26.652  19.224   3.939  0.00  0.00     0.326 C 
HETATM   31  O   UNK N   1      27.415  20.065   3.487  0.00  0.00    -0.247 OA
HETATM   32  N   UNK N   1      25.290  19.437   3.936  0.00  0.00    -0.260 N 
HETATM   33  C   UNK N   1      24.774  20.722   3.491  0.00  0.00     0.157 C 
HETATM   34  C   UNK N   1      24.386  18.471   4.332  0.00  0.00     0.319 C 
HETATM   35  C   UNK N   1      23.485  20.563   2.687  0.00  0.00     0.146 C 
HETATM   36  N   UNK N   1      22.504  19.744   3.376  0.00  0.00    -0.343 N 
HETATM   37  C   UNK N   1      22.936  18.689   4.142  0.00  0.00     0.312 C 
HETATM   38  O   UNK N   1      22.150  17.897   4.640  0.00  0.00    -0.262 OA
HETATM   39  O   UNK N   1      24.754  17.402   4.804  0.00  0.00    -0.262 OA
HETATM   40  H   UNK N   1      26.469  17.528   4.913  0.00  0.00     0.165 HD
BRANCH  36  41
HETATM   41  C   UNK N   1      21.102  20.054   3.098  0.00  0.00     0.122 C 
HETATM   42  C   UNK N   1      20.751  20.497   1.682  0.00  0.00     0.026 C 
ENDBRANCH  36  41
ENDBRANCH  28  29
BRANCH  28  43
HETATM   43  C   UNK N   1      29.302  17.431   5.559  0.00  0.00    -0.026 A 
HETATM   44  C   UNK N   1      28.692  17.716   6.791  0.00  0.00     0.012 A 
HETATM   45  C   UNK N   1      29.439  17.741   7.968  0.00  0.00     0.037 A 
HETATM   46  C   UNK N   1      30.808  17.476   7.929  0.00  0.00     0.065 A 
HETATM   47  C   UNK N   1      31.429  17.189   6.707  0.00  0.00     0.037 A 
HETATM   48  C   UNK N   1      30.679  17.167   5.523  0.00  0.00     0.012 A 
BRANCH  46  49
HETATM   49  O   UNK N   1      31.526  17.496   9.062  0.00  0.00    -0.361 OA
HETATM   50  H   UNK N   1      31.990  18.266   9.327  0.00  0.00     0.217 HD
ENDBRANCH  46  49
ENDBRANCH  28  43
ENDBRANCH   3  28
TORSDOF 11
ENDMDL
MODEL 4
REMARK VINA RESULT:      -7.9      2.904      3.922
REMARK  11 active torsions:
REMARK  status: ('A' for Active; 'I' for Inactive)
REMARK    1  A    between atoms: S_2  and  C_29 
REMARK    2  A    between atoms: S_2  and  C_40 
REMARK    3  A    between atoms: O_5  and  C_31 
REMARK    4  A    between atoms: O_10  and  C_44 
REMARK    5  A    between atoms: C_23  and  N_12 
REMARK       I    between atoms: N_12  and  C_28 
REMARK    6  A    between atoms: N_13  and  C_30 
REMARK       I    between atoms: N_13  and  C_33 
REMARK       I    between atoms: N_14  and  C_33 
REMARK    7  A    between atoms: N_15  and  C_41 
REMARK    8  A    between atoms: C_25  and  C_31 
REMARK    9  A    between atoms: C_26  and  C_29 
REMARK   10  A    between atoms: C_28  and  C_30 
REMARK   11  A    between atoms: C_30  and  C_32 
ROOT
HETATM    1  O   UNK N   1      24.929  16.990   3.809  0.00  0.00    -0.271 OA
HETATM    2  N   UNK N   1      26.363  15.827   5.083  0.00  0.00    -0.343 N 
HETATM    3  C   UNK N   1      25.235  15.929   4.337  0.00  0.00     0.245 C 
HETATM    4  H   UNK N   1      26.630  14.937   5.408  0.00  0.00     0.163 HD
ENDROOT
BRANCH   2   5
HETATM    5  C   UNK N   1      27.191  16.953   5.423  0.00  0.00     0.210 A 
HETATM    6  C   UNK N   1      28.242  16.567   6.594  0.00  0.00     0.187 A 
HETATM    7  S   UNK N   1      28.557  17.877   7.817  0.00  0.00    -0.136 SA
HETATM    8  N   UNK N   1      29.256  16.652   5.591  0.00  0.00    -0.293 N 
HETATM    9  C   UNK N   1      30.198  17.139   8.170  0.00  0.00     0.113 C 
HETATM   10  C   UNK N   1      31.126  17.168   6.971  0.00  0.00    -0.027 C 
HETATM   11  C   UNK N   1      30.656  16.886   5.726  0.00  0.00     0.116 C 
HETATM   12  C   UNK N   1      28.435  16.943   4.626  0.00  0.00     0.251 A 
HETATM   13  O   UNK N   1      28.696  17.416   3.532  0.00  0.00    -0.271 OA
BRANCH  10  14
HETATM   14  C   UNK N   1      32.550  17.553   7.188  0.00  0.00     0.120 C 
BRANCH  14  15
HETATM   15  S   UNK N   1      33.269  16.760   8.645  0.00  0.00    -0.087 SA
BRANCH  15  16
HETATM   16  C   UNK N   1      34.397  15.909   7.558  0.00  0.00     0.175 A 
HETATM   17  N   UNK N   1      35.240  14.937   7.921  0.00  0.00    -0.262 N 
HETATM   18  N   UNK N   1      35.929  14.610   6.846  0.00  0.00    -0.223 N 
HETATM   19  C   UNK N   1      35.409  14.346   9.237  0.00  0.00     0.181 C 
HETATM   20  N   UNK N   1      35.519  15.367   5.834  0.00  0.00    -0.005 NA
ATOM     21  HN  UNK N   1      36.654  13.894   6.798  1.00  0.00     0.206 HD
HETATM   22  N   UNK N   1      34.565  16.189   6.253  0.00  0.00    -0.261 N 
ATOM     23  HN  UNK N   1      34.064  16.886   5.702  1.00  0.00     0.186 HD
ENDBRANCH  15  16
ENDBRANCH  14  15
ENDBRANCH  10  14
BRANCH  11  24
HETATM   24  C   UNK N   1      31.537  16.895   4.507  0.00  0.00     0.194 C 
HETATM   25  O   UNK N   1      32.216  15.920   4.237  0.00  0.00    -0.645 OA
BRANCH  24  26
HETATM   26  O   UNK N   1      31.634  17.981   3.716  0.00  0.00    -0.772 OA
HETATM   27  H   UNK N   1      32.018  17.909   2.864  0.00  0.00     0.167 HD
ENDBRANCH  24  26
ENDBRANCH  11  24
ENDBRANCH   2   5
BRANCH   3  28
HETATM   28  C   UNK N   1      24.289  14.761   4.343  0.00  0.00     0.211 C 
BRANCH  28  29
HETATM   29  N   UNK N   1      23.125  15.303   5.007  0.00  0.00    -0.325 N 
HETATM   30  C   UNK N   1      22.186  14.752   5.806  0.00  0.00     0.326 C 
HETATM   31  O   UNK N   1      22.108  13.538   5.918  0.00  0.00    -0.247 OA
HETATM   32  N   UNK N   1      21.350  15.580   6.525  0.00  0.00    -0.260 N 
HETATM   33  C   UNK N   1      20.295  14.990   7.336  0.00  0.00     0.157 C 
HETATM   34  C   UNK N   1      21.477  16.955   6.516  0.00  0.00     0.319 C 
HETATM   35  C   UNK N   1      20.110  15.744   8.652  0.00  0.00     0.146 C 
HETATM   36  N   UNK N   1      19.965  17.175   8.450  0.00  0.00    -0.343 N 
HETATM   37  C   UNK N   1      20.670  17.781   7.439  0.00  0.00     0.312 C 
HETATM   38  O   UNK N   1      20.680  18.995   7.305  0.00  0.00    -0.262 OA
HETATM   39  O   UNK N   1      22.281  17.520   5.785  0.00  0.00    -0.262 OA
HETATM   40  H   UNK N   1      22.990  16.264   4.843  0.00  0.00     0.165 HD
BRANCH  36  41
HETATM   41  C   UNK N   1      19.148  17.881   9.437  0.00  0.00     0.122 C 
HETATM   42  C   UNK N   1      17.690  17.457   9.570  0.00  0.00     0.026 C 
ENDBRANCH  36  41
ENDBRANCH  28  29
BRANCH  28  43
HETATM   43  C   UNK N   1      24.098  14.166   2.963  0.00  0.00    -0.026 A 
HETATM   44  C   UNK N   1      24.946  13.115   2.578  0.00  0.00     0.012 A 
HETATM   45  C   UNK N   1      24.820  12.520   1.323  0.00  0.00     0.037 A 
HETATM   46  C   UNK N   1      23.839  12.967   0.437  0.00  0.00     0.065 A 
HETATM   47  C   UNK N   1      22.986  14.014   0.809  0.00  0.00     0.037 A 
HETATM   48  C   UNK N   1      23.114  14.613   2.069  0.00  0.00     0.012 A 
BRANCH  46  49
HETATM   49  O   UNK N   1      23.716  12.393  -0.770  0.00  0.00    -0.361 OA
HETATM   50  H   UNK N   1      24.256  12.657  -1.488  0.00  0.00     0.217 HD
ENDBRANCH  46  49
ENDBRANCH  28  43
ENDBRANCH   3  28
TORSDOF 11
ENDMDL
MODEL 5
REMARK VINA RESULT:      -7.7      3.735      9.547
REMARK  11 active torsions:
REMARK  status: ('A' for Active; 'I' for Inactive)
REMARK    1  A    between atoms: S_2  and  C_29 
REMARK    2  A    between atoms: S_2  and  C_40 
REMARK    3  A    between atoms: O_5  and  C_31 
REMARK    4  A    between atoms: O_10  and  C_44 
REMARK    5  A    between atoms: C_23  and  N_12 
REMARK       I    between atoms: N_12  and  C_28 
REMARK    6  A    between atoms: N_13  and  C_30 
REMARK       I    between atoms: N_13  and  C_33 
REMARK       I    between atoms: N_14  and  C_33 
REMARK    7  A    between atoms: N_15  and  C_41 
REMARK    8  A    between atoms: C_25  and  C_31 
REMARK    9  A    between atoms: C_26  and  C_29 
REMARK   10  A    between atoms: C_28  and  C_30 
REMARK   11  A    between atoms: C_30  and  C_32 
ROOT
HETATM    1  O   UNK N   1      26.584  15.894   7.233  0.00  0.00    -0.271 OA
HETATM    2  N   UNK N   1      26.797  15.780   5.002  0.00  0.00    -0.343 N 
HETATM    3  C   UNK N   1      26.939  16.424   6.188  0.00  0.00     0.245 C 
HETATM    4  H   UNK N   1      27.184  16.192   4.197  0.00  0.00     0.163 HD
ENDROOT
BRANCH   2   5
HETATM    5  C   UNK N   1      26.109  14.524   4.862  0.00  0.00     0.210 A 
HETATM    6  C   UNK N   1      24.504  14.732   4.944  0.00  0.00     0.187 A 
HETATM    7  S   UNK N   1      23.595  13.418   5.815  0.00  0.00    -0.136 SA
HETATM    8  N   UNK N   1      24.482  14.427   3.548  0.00  0.00    -0.293 N 
HETATM    9  C   UNK N   1      22.090  13.835   4.854  0.00  0.00     0.113 C 
HETATM   10  C   UNK N   1      22.257  13.597   3.366  0.00  0.00    -0.027 C 
HETATM   11  C   UNK N   1      23.417  13.931   2.739  0.00  0.00     0.116 C 
HETATM   12  C   UNK N   1      25.768  14.274   3.446  0.00  0.00     0.251 A 
HETATM   13  O   UNK N   1      26.394  13.731   2.551  0.00  0.00    -0.271 OA
BRANCH  10  14
HETATM   14  C   UNK N   1      21.137  12.951   2.624  0.00  0.00     0.120 C 
BRANCH  14  15
HETATM   15  S   UNK N   1      19.525  13.642   3.061  0.00  0.00    -0.087 SA
BRANCH  15  16
HETATM   16  C   UNK N   1      19.940  15.080   2.093  0.00  0.00     0.175 A 
HETATM   17  N   UNK N   1      20.007  16.332   2.555  0.00  0.00    -0.262 N 
HETATM   18  N   UNK N   1      20.292  17.103   1.524  0.00  0.00    -0.223 N 
HETATM   19  C   UNK N   1      19.793  16.797   3.914  0.00  0.00     0.181 C 
HETATM   20  N   UNK N   1      20.399  16.340   0.442  0.00  0.00    -0.005 NA
ATOM     21  HN  UNK N   1      20.412  18.116   1.552  1.00  0.00     0.206 HD
HETATM   22  N   UNK N   1      20.180  15.073   0.770  0.00  0.00    -0.261 N 
ATOM     23  HN  UNK N   1      20.193  14.263   0.149  1.00  0.00     0.186 HD
ENDBRANCH  15  16
ENDBRANCH  14  15
ENDBRANCH  10  14
BRANCH  11  24
HETATM   24  C   UNK N   1      23.630  13.721   1.264  0.00  0.00     0.194 C 
HETATM   25  O   UNK N   1      23.205  14.535   0.464  0.00  0.00    -0.645 OA
BRANCH  24  26
HETATM   26  O   UNK N   1      24.246  12.620   0.792  0.00  0.00    -0.772 OA
HETATM   27  H   UNK N   1      25.036  12.316   1.194  0.00  0.00     0.167 HD
ENDBRANCH  24  26
ENDBRANCH  11  24
ENDBRANCH   2   5
BRANCH   3  28
HETATM   28  C   UNK N   1      27.365  17.865   6.150  0.00  0.00     0.211 C 
BRANCH  28  29
HETATM   29  N   UNK N   1      28.802  17.763   6.037  0.00  0.00    -0.325 N 
HETATM   30  C   UNK N   1      29.780  17.539   6.942  0.00  0.00     0.326 C 
HETATM   31  O   UNK N   1      29.534  17.587   8.139  0.00  0.00    -0.247 OA
HETATM   32  N   UNK N   1      31.043  17.213   6.497  0.00  0.00    -0.260 N 
HETATM   33  C   UNK N   1      32.113  17.035   7.467  0.00  0.00     0.157 C 
HETATM   34  C   UNK N   1      31.337  17.037   5.159  0.00  0.00     0.319 C 
HETATM   35  C   UNK N   1      33.043  15.888   7.074  0.00  0.00     0.146 C 
HETATM   36  N   UNK N   1      33.508  16.003   5.703  0.00  0.00    -0.343 N 
HETATM   37  C   UNK N   1      32.660  16.517   4.752  0.00  0.00     0.312 C 
HETATM   38  O   UNK N   1      32.955  16.520   3.566  0.00  0.00    -0.262 OA
HETATM   39  O   UNK N   1      30.509  17.261   4.285  0.00  0.00    -0.262 OA
HETATM   40  H   UNK N   1      29.135  17.883   5.118  0.00  0.00     0.165 HD
BRANCH  36  41
HETATM   41  C   UNK N   1      34.830  15.442   5.426  0.00  0.00     0.122 C 
HETATM   42  C   UNK N   1      35.512  14.670   6.549  0.00  0.00     0.026 C 
ENDBRANCH  36  41
ENDBRANCH  28  29
BRANCH  28  43
HETATM   43  C   UNK N   1      26.631  18.657   5.088  0.00  0.00    -0.026 A 
HETATM   44  C   UNK N   1      27.376  19.554   4.306  0.00  0.00     0.012 A 
HETATM   45  C   UNK N   1      26.762  20.311   3.309  0.00  0.00     0.037 A 
HETATM   46  C   UNK N   1      25.393  20.176   3.077  0.00  0.00     0.065 A 
HETATM   47  C   UNK N   1      24.639  19.284   3.848  0.00  0.00     0.037 A 
HETATM   48  C   UNK N   1      25.254  18.525   4.853  0.00  0.00     0.012 A 
BRANCH  46  49
HETATM   49  O   UNK N   1      24.804  20.902   2.114  0.00  0.00    -0.361 OA
HETATM   50  H   UNK N   1      25.140  21.741   1.867  0.00  0.00     0.217 HD
ENDBRANCH  46  49
ENDBRANCH  28  43
ENDBRANCH   3  28
TORSDOF 11
ENDMDL
MODEL 6
REMARK VINA RESULT:      -7.6      7.942     12.476
REMARK  11 active torsions:
REMARK  status: ('A' for Active; 'I' for Inactive)
REMARK    1  A    between atoms: S_2  and  C_29 
REMARK    2  A    between atoms: S_2  and  C_40 
REMARK    3  A    between atoms: O_5  and  C_31 
REMARK    4  A    between atoms: O_10  and  C_44 
REMARK    5  A    between atoms: C_23  and  N_12 
REMARK       I    between atoms: N_12  and  C_28 
REMARK    6  A    between atoms: N_13  and  C_30 
REMARK       I    between atoms: N_13  and  C_33 
REMARK       I    between atoms: N_14  and  C_33 
REMARK    7  A    between atoms: N_15  and  C_41 
REMARK    8  A    between atoms: C_25  and  C_31 
REMARK    9  A    between atoms: C_26  and  C_29 
REMARK   10  A    between atoms: C_28  and  C_30 
REMARK   11  A    between atoms: C_30  and  C_32 
ROOT
HETATM    1  O   UNK N   1      37.932  12.899  10.954  0.00  0.00    -0.271 OA
HETATM    2  N   UNK N   1      36.315  13.261   9.441  0.00  0.00    -0.343 N 
HETATM    3  C   UNK N   1      36.948  13.540  10.608  0.00  0.00     0.245 C 
HETATM    4  H   UNK N   1      35.591  13.860   9.147  0.00  0.00     0.163 HD
ENDROOT
BRANCH   2   5
HETATM    5  C   UNK N   1      36.649  12.135   8.610  0.00  0.00     0.210 A 
HETATM    6  C   UNK N   1      35.396  11.718   7.671  0.00  0.00     0.187 A 
HETATM    7  S   UNK N   1      35.179   9.930   7.416  0.00  0.00    -0.136 SA
HETATM    8  N   UNK N   1      36.163  12.225   6.576  0.00  0.00    -0.293 N 
HETATM    9  C   UNK N   1      34.319  10.269   5.832  0.00  0.00     0.113 C 
HETATM   10  C   UNK N   1      35.215  10.940   4.809  0.00  0.00    -0.027 C 
HETATM   11  C   UNK N   1      36.078  11.921   5.185  0.00  0.00     0.116 C 
HETATM   12  C   UNK N   1      37.174  12.589   7.306  0.00  0.00     0.251 A 
HETATM   13  O   UNK N   1      38.308  12.858   6.943  0.00  0.00    -0.271 OA
BRANCH  10  14
HETATM   14  C   UNK N   1      35.153  10.466   3.397  0.00  0.00     0.120 C 
BRANCH  14  15
HETATM   15  S   UNK N   1      33.495  10.607   2.690  0.00  0.00    -0.087 SA
BRANCH  15  16
HETATM   16  C   UNK N   1      33.872  12.301   2.284  0.00  0.00     0.175 A 
HETATM   17  N   UNK N   1      33.337  13.376   2.873  0.00  0.00    -0.262 N 
HETATM   18  N   UNK N   1      33.834  14.432   2.258  0.00  0.00    -0.223 N 
HETATM   19  C   UNK N   1      32.378  13.416   3.961  0.00  0.00     0.181 C 
HETATM   20  N   UNK N   1      34.662  14.017   1.306  0.00  0.00    -0.005 NA
ATOM     21  HN  UNK N   1      33.620  15.404   2.478  1.00  0.00     0.206 HD
HETATM   22  N   UNK N   1      34.701  12.690   1.299  0.00  0.00    -0.261 N 
ATOM     23  HN  UNK N   1      35.246  12.091   0.678  1.00  0.00     0.186 HD
ENDBRANCH  15  16
ENDBRANCH  14  15
ENDBRANCH  10  14
BRANCH  11  24
HETATM   24  C   UNK N   1      36.982  12.622   4.207  0.00  0.00     0.194 C 
HETATM   25  O   UNK N   1      38.074  12.151   3.939  0.00  0.00    -0.645 OA
BRANCH  24  26
HETATM   26  O   UNK N   1      36.636  13.795   3.644  0.00  0.00    -0.772 OA
HETATM   27  H   UNK N   1      37.268  14.285   3.156  0.00  0.00     0.167 HD
ENDBRANCH  24  26
ENDBRANCH  11  24
ENDBRANCH   2   5
BRANCH   3  28
HETATM   28  C   UNK N   1      36.292  14.522  11.538  0.00  0.00     0.211 C 
BRANCH  28  29
HETATM   29  N   UNK N   1      35.227  15.061  10.722  0.00  0.00    -0.325 N 
HETATM   30  C   UNK N   1      35.024  16.272  10.160  0.00  0.00     0.326 C 
HETATM   31  O   UNK N   1      35.725  17.223  10.478  0.00  0.00    -0.247 OA
HETATM   32  N   UNK N   1      34.049  16.409   9.195  0.00  0.00    -0.260 N 
HETATM   33  C   UNK N   1      33.785  17.727   8.636  0.00  0.00     0.157 C 
HETATM   34  C   UNK N   1      33.312  15.340   8.727  0.00  0.00     0.319 C 
HETATM   35  C   UNK N   1      33.487  17.652   7.140  0.00  0.00     0.146 C 
HETATM   36  N   UNK N   1      32.465  16.669   6.831  0.00  0.00    -0.343 N 
HETATM   37  C   UNK N   1      32.406  15.513   7.571  0.00  0.00     0.312 C 
HETATM   38  O   UNK N   1      31.649  14.601   7.274  0.00  0.00    -0.262 OA
HETATM   39  O   UNK N   1      33.418  14.223   9.218  0.00  0.00    -0.262 OA
HETATM   40  H   UNK N   1      34.504  14.417  10.541  0.00  0.00     0.165 HD
BRANCH  36  41
HETATM   41  C   UNK N   1      31.638  16.950   5.658  0.00  0.00     0.122 C 
HETATM   42  C   UNK N   1      32.343  17.492   4.419  0.00  0.00     0.026 C 
ENDBRANCH  36  41
ENDBRANCH  28  29
BRANCH  28  43
HETATM   43  C   UNK N   1      35.913  13.898  12.865  0.00  0.00    -0.026 A 
HETATM   44  C   UNK N   1      36.514  14.411  14.026  0.00  0.00     0.012 A 
HETATM   45  C   UNK N   1      36.207  13.884  15.280  0.00  0.00     0.037 A 
HETATM   46  C   UNK N   1      35.290  12.838  15.389  0.00  0.00     0.065 A 
HETATM   47  C   UNK N   1      34.683  12.318  14.239  0.00  0.00     0.037 A 
HETATM   48  C   UNK N   1      34.994  12.845  12.978  0.00  0.00     0.012 A 
BRANCH  46  49
HETATM   49  O   UNK N   1      34.992  12.334  16.596  0.00  0.00    -0.361 OA
HETATM   50  H   UNK N   1      34.113  12.343  16.921  0.00  0.00     0.217 HD
ENDBRANCH  46  49
ENDBRANCH  28  43
ENDBRANCH   3  28
TORSDOF 11
ENDMDL
MODEL 7
REMARK VINA RESULT:      -7.5      1.943      2.278
REMARK  11 active torsions:
REMARK  status: ('A' for Active; 'I' for Inactive)
REMARK    1  A    between atoms: S_2  and  C_29 
REMARK    2  A    between atoms: S_2  and  C_40 
REMARK    3  A    between atoms: O_5  and  C_31 
REMARK    4  A    between atoms: O_10  and  C_44 
REMARK    5  A    between atoms: C_23  and  N_12 
REMARK       I    between atoms: N_12  and  C_28 
REMARK    6  A    between atoms: N_13  and  C_30 
REMARK       I    between atoms: N_13  and  C_33 
REMARK       I    between atoms: N_14  and  C_33 
REMARK    7  A    between atoms: N_15  and  C_41 
REMARK    8  A    between atoms: C_25  and  C_31 
REMARK    9  A    between atoms: C_26  and  C_29 
REMARK   10  A    between atoms: C_28  and  C_30 
REMARK   11  A    between atoms: C_30  and  C_32 
ROOT
HETATM    1  O   UNK N   1      24.329  17.847   4.450  0.00  0.00    -0.271 OA
HETATM    2  N   UNK N   1      25.352  16.224   3.286  0.00  0.00    -0.343 N 
HETATM    3  C   UNK N   1      24.259  16.766   3.880  0.00  0.00     0.245 C 
HETATM    4  H   UNK N   1      25.236  15.405   2.752  0.00  0.00     0.163 HD
ENDROOT
BRANCH   2   5
HETATM    5  C   UNK N   1      26.672  16.786   3.397  0.00  0.00     0.210 A 
HETATM    6  C   UNK N   1      27.187  16.755   4.933  0.00  0.00     0.187 A 
HETATM    7  S   UNK N   1      28.158  18.202   5.454  0.00  0.00    -0.136 SA
HETATM    8  N   UNK N   1      28.103  15.742   4.513  0.00  0.00    -0.293 N 
HETATM    9  C   UNK N   1      28.977  17.179   6.737  0.00  0.00     0.113 C 
HETATM   10  C   UNK N   1      29.803  16.050   6.151  0.00  0.00    -0.027 C 
HETATM   11  C   UNK N   1      29.340  15.334   5.092  0.00  0.00     0.116 C 
HETATM   12  C   UNK N   1      27.697  15.728   3.278  0.00  0.00     0.251 A 
HETATM   13  O   UNK N   1      28.263  15.261   2.304  0.00  0.00    -0.271 OA
BRANCH  10  14
HETATM   14  C   UNK N   1      31.146  15.780   6.738  0.00  0.00     0.120 C 
BRANCH  14  15
HETATM   15  S   UNK N   1      32.217  17.237   6.721  0.00  0.00    -0.087 SA
BRANCH  15  16
HETATM   16  C   UNK N   1      32.477  16.957   4.980  0.00  0.00     0.175 A 
HETATM   17  N   UNK N   1      33.434  16.185   4.453  0.00  0.00    -0.262 N 
HETATM   18  N   UNK N   1      33.321  16.282   3.143  0.00  0.00    -0.223 N 
HETATM   19  C   UNK N   1      34.435  15.399   5.152  0.00  0.00     0.181 C 
HETATM   20  N   UNK N   1      32.312  17.098   2.864  0.00  0.00    -0.005 NA
ATOM     21  HN  UNK N   1      33.909  15.806   2.458  1.00  0.00     0.206 HD
HETATM   22  N   UNK N   1      31.770  17.536   3.994  0.00  0.00    -0.261 N 
ATOM     23  HN  UNK N   1      30.982  18.177   4.093  1.00  0.00     0.186 HD
ENDBRANCH  15  16
ENDBRANCH  14  15
ENDBRANCH  10  14
BRANCH  11  24
HETATM   24  C   UNK N   1      30.120  14.202   4.478  0.00  0.00     0.194 C 
HETATM   25  O   UNK N   1      30.077  13.091   4.977  0.00  0.00    -0.645 OA
BRANCH  24  26
HETATM   26  O   UNK N   1      30.910  14.392   3.405  0.00  0.00    -0.772 OA
HETATM   27  H   UNK N   1      31.239  13.655   2.928  0.00  0.00     0.167 HD
ENDBRANCH  24  26
ENDBRANCH  11  24
ENDBRANCH   2   5
BRANCH   3  28
HETATM   28  C   UNK N   1      23.025  15.913   3.976  0.00  0.00     0.211 C 
BRANCH  28  29
HETATM   29  N   UNK N   1      23.052  15.478   5.354  0.00  0.00    -0.325 N 
HETATM   30  C   UNK N   1      22.127  14.904   6.154  0.00  0.00     0.326 C 
HETATM   31  O   UNK N   1      20.957  14.855   5.804  0.00  0.00    -0.247 OA
HETATM   32  N   UNK N   1      22.528  14.339   7.346  0.00  0.00    -0.260 N 
HETATM   33  C   UNK N   1      21.525  13.779   8.238  0.00  0.00     0.157 C 
HETATM   34  C   UNK N   1      23.854  14.272   7.727  0.00  0.00     0.319 C 
HETATM   35  C   UNK N   1      22.022  12.501   8.911  0.00  0.00     0.146 C 
HETATM   36  N   UNK N   1      23.324  12.675   9.529  0.00  0.00    -0.343 N 
HETATM   37  C   UNK N   1      24.242  13.501   8.928  0.00  0.00     0.312 C 
HETATM   38  O   UNK N   1      25.390  13.586   9.336  0.00  0.00    -0.262 OA
HETATM   39  O   UNK N   1      24.739  14.805   7.069  0.00  0.00    -0.262 OA
HETATM   40  H   UNK N   1      23.918  15.630   5.800  0.00  0.00     0.165 HD
BRANCH  36  41
HETATM   41  C   UNK N   1      23.591  11.848  10.705  0.00  0.00     0.122 C 
HETATM   42  C   UNK N   1      22.541  11.845  11.811  0.00  0.00     0.026 C 
ENDBRANCH  36  41
ENDBRANCH  28  29
BRANCH  28  43
HETATM   43  C   UNK N   1      21.784  16.635   3.492  0.00  0.00    -0.026 A 
HETATM   44  C   UNK N   1      21.454  17.855   4.103  0.00  0.00     0.012 A 
HETATM   45  C   UNK N   1      20.327  18.571   3.702  0.00  0.00     0.037 A 
HETATM   46  C   UNK N   1      19.518  18.078   2.678  0.00  0.00     0.065 A 
HETATM   47  C   UNK N   1      19.837  16.863   2.060  0.00  0.00     0.037 A 
HETATM   48  C   UNK N   1      20.967  16.141   2.465  0.00  0.00     0.012 A 
BRANCH  46  49
HETATM   49  O   UNK N   1      18.435  18.770   2.290  0.00  0.00    -0.361 OA
HETATM   50  H   UNK N   1      17.572  18.483   2.515  0.00  0.00     0.217 HD
ENDBRANCH  46  49
ENDBRANCH  28  43
ENDBRANCH   3  28
TORSDOF 11
ENDMDL
MODEL 8
REMARK VINA RESULT:      -7.4      8.474     13.443
REMARK  11 active torsions:
REMARK  status: ('A' for Active; 'I' for Inactive)
REMARK    1  A    between atoms: S_2  and  C_29 
REMARK    2  A    between atoms: S_2  and  C_40 
REMARK    3  A    between atoms: O_5  and  C_31 
REMARK    4  A    between atoms: O_10  and  C_44 
REMARK    5  A    between atoms: C_23  and  N_12 
REMARK       I    between atoms: N_12  and  C_28 
REMARK    6  A    between atoms: N_13  and  C_30 
REMARK       I    between atoms: N_13  and  C_33 
REMARK       I    between atoms: N_14  and  C_33 
REMARK    7  A    between atoms: N_15  and  C_41 
REMARK    8  A    between atoms: C_25  and  C_31 
REMARK    9  A    between atoms: C_26  and  C_29 
REMARK   10  A    between atoms: C_28  and  C_30 
REMARK   11  A    between atoms: C_30  and  C_32 
ROOT
HETATM    1  O   UNK N   1      37.885  12.143  11.614  0.00  0.00    -0.271 OA
HETATM    2  N   UNK N   1      35.946  12.289  10.494  0.00  0.00    -0.343 N 
HETATM    3  C   UNK N   1      36.868  12.777  11.361  0.00  0.00     0.245 C 
HETATM    4  H   UNK N   1      35.193  12.869  10.238  0.00  0.00     0.163 HD
ENDROOT
BRANCH   2   5
HETATM    5  C   UNK N   1      36.013  10.968   9.929  0.00  0.00     0.210 A 
HETATM    6  C   UNK N   1      35.254   9.894  10.877  0.00  0.00     0.187 A 
HETATM    7  S   UNK N   1      36.044   8.260  10.985  0.00  0.00    -0.136 SA
HETATM    8  N   UNK N   1      34.256   9.831   9.856  0.00  0.00    -0.293 N 
HETATM    9  C   UNK N   1      34.421   7.512  11.397  0.00  0.00     0.113 C 
HETATM   10  C   UNK N   1      33.412   7.644  10.273  0.00  0.00    -0.027 C 
HETATM   11  C   UNK N   1      33.318   8.799   9.561  0.00  0.00     0.116 C 
HETATM   12  C   UNK N   1      34.830  10.704   9.083  0.00  0.00     0.251 A 
HETATM   13  O   UNK N   1      34.623  10.914   7.900  0.00  0.00    -0.271 OA
BRANCH  10  14
HETATM   14  C   UNK N   1      32.560   6.465   9.946  0.00  0.00     0.120 C 
BRANCH  14  15
HETATM   15  S   UNK N   1      33.533   4.979   9.608  0.00  0.00    -0.087 SA
BRANCH  15  16
HETATM   16  C   UNK N   1      33.623   5.492   7.904  0.00  0.00     0.175 A 
HETATM   17  N   UNK N   1      34.720   5.944   7.287  0.00  0.00    -0.262 N 
HETATM   18  N   UNK N   1      34.361   6.263   6.059  0.00  0.00    -0.223 N 
HETATM   19  C   UNK N   1      36.057   6.090   7.833  0.00  0.00     0.181 C 
HETATM   20  N   UNK N   1      33.064   6.013   5.918  0.00  0.00    -0.005 NA
ATOM     21  HN  UNK N   1      34.977   6.637   5.336  1.00  0.00     0.206 HD
HETATM   22  N   UNK N   1      32.579   5.535   7.058  0.00  0.00    -0.261 N 
ATOM     23  HN  UNK N   1      31.616   5.256   7.250  1.00  0.00     0.186 HD
ENDBRANCH  15  16
ENDBRANCH  14  15
ENDBRANCH  10  14
BRANCH  11  24
HETATM   24  C   UNK N   1      32.329   8.981   8.441  0.00  0.00     0.194 C 
HETATM   25  O   UNK N   1      31.200   9.372   8.682  0.00  0.00    -0.645 OA
BRANCH  24  26
HETATM   26  O   UNK N   1      32.643   8.679   7.167  0.00  0.00    -0.772 OA
HETATM   27  H   UNK N   1      31.976   8.399   6.573  0.00  0.00     0.167 HD
ENDBRANCH  24  26
ENDBRANCH  11  24
ENDBRANCH   2   5
BRANCH   3  28
HETATM   28  C   UNK N   1      36.510  14.016  12.134  0.00  0.00     0.211 C 
BRANCH  28  29
HETATM   29  N   UNK N   1      35.545  14.655  11.269  0.00  0.00    -0.325 N 
HETATM   30  C   UNK N   1      35.544  15.833  10.608  0.00  0.00     0.326 C 
HETATM   31  O   UNK N   1      36.394  16.677  10.852  0.00  0.00    -0.247 OA
HETATM   32  N   UNK N   1      34.599  16.051   9.628  0.00  0.00    -0.260 N 
HETATM   33  C   UNK N   1      34.554  17.344   8.961  0.00  0.00     0.157 C 
HETATM   34  C   UNK N   1      33.691  15.085   9.243  0.00  0.00     0.319 C 
HETATM   35  C   UNK N   1      34.239  17.198   7.473  0.00  0.00     0.146 C 
HETATM   36  N   UNK N   1      33.066  16.376   7.238  0.00  0.00    -0.343 N 
HETATM   37  C   UNK N   1      32.820  15.310   8.069  0.00  0.00     0.312 C 
HETATM   38  O   UNK N   1      31.919  14.516   7.843  0.00  0.00    -0.262 OA
HETATM   39  O   UNK N   1      33.613  14.009   9.824  0.00  0.00    -0.262 OA
HETATM   40  H   UNK N   1      34.724  14.128  11.135  0.00  0.00     0.165 HD
BRANCH  36  41
HETATM   41  C   UNK N   1      32.290  16.694   6.039  0.00  0.00     0.122 C 
HETATM   42  C   UNK N   1      33.033  17.347   4.879  0.00  0.00     0.026 C 
ENDBRANCH  36  41
ENDBRANCH  28  29
BRANCH  28  43
HETATM   43  C   UNK N   1      36.086  13.708  13.555  0.00  0.00    -0.026 A 
HETATM   44  C   UNK N   1      36.781  14.340  14.598  0.00  0.00     0.012 A 
HETATM   45  C   UNK N   1      36.438  14.103  15.929  0.00  0.00     0.037 A 
HETATM   46  C   UNK N   1      35.390  13.234  16.233  0.00  0.00     0.065 A 
HETATM   47  C   UNK N   1      34.688  12.599  15.202  0.00  0.00     0.037 A 
HETATM   48  C   UNK N   1      35.034  12.834  13.864  0.00  0.00     0.012 A 
BRANCH  46  49
HETATM   49  O   UNK N   1      35.058  13.010  17.514  0.00  0.00    -0.361 OA
HETATM   50  H   UNK N   1      34.479  12.311  17.748  0.00  0.00     0.217 HD
ENDBRANCH  46  49
ENDBRANCH  28  43
ENDBRANCH   3  28
TORSDOF 11
ENDMDL
MODEL 9
REMARK VINA RESULT:      -7.4      3.915      8.096
REMARK  11 active torsions:
REMARK  status: ('A' for Active; 'I' for Inactive)
REMARK    1  A    between atoms: S_2  and  C_29 
REMARK    2  A    between atoms: S_2  and  C_40 
REMARK    3  A    between atoms: O_5  and  C_31 
REMARK    4  A    between atoms: O_10  and  C_44 
REMARK    5  A    between atoms: C_23  and  N_12 
REMARK       I    between atoms: N_12  and  C_28 
REMARK    6  A    between atoms: N_13  and  C_30 
REMARK       I    between atoms: N_13  and  C_33 
REMARK       I    between atoms: N_14  and  C_33 
REMARK    7  A    between atoms: N_15  and  C_41 
REMARK    8  A    between atoms: C_25  and  C_31 
REMARK    9  A    between atoms: C_26  and  C_29 
REMARK   10  A    between atoms: C_28  and  C_30 
REMARK   11  A    between atoms: C_30  and  C_32 
ROOT
HETATM    1  O   UNK N   1      21.094  17.519   6.175  0.00  0.00    -0.271 OA
HETATM    2  N   UNK N   1      22.734  16.185   5.422  0.00  0.00    -0.343 N 
HETATM    3  C   UNK N   1      22.182  17.408   5.624  0.00  0.00     0.245 C 
HETATM    4  H   UNK N   1      23.651  16.139   5.068  0.00  0.00     0.163 HD
ENDROOT
BRANCH   2   5
HETATM    5  C   UNK N   1      22.046  14.952   5.698  0.00  0.00     0.210 A 
HETATM    6  C   UNK N   1      22.961  13.676   5.295  0.00  0.00     0.187 A 
HETATM    7  S   UNK N   1      22.059  12.272   4.572  0.00  0.00    -0.136 SA
HETATM    8  N   UNK N   1      23.090  13.437   6.699  0.00  0.00    -0.293 N 
HETATM    9  C   UNK N   1      23.381  11.139   5.147  0.00  0.00     0.113 C 
HETATM   10  C   UNK N   1      23.500  11.092   6.657  0.00  0.00    -0.027 C 
HETATM   11  C   UNK N   1      23.397  12.231   7.394  0.00  0.00     0.116 C 
HETATM   12  C   UNK N   1      22.378  14.465   7.054  0.00  0.00     0.251 A 
HETATM   13  O   UNK N   1      21.865  14.688   8.137  0.00  0.00    -0.271 OA
BRANCH  10  14
HETATM   14  C   UNK N   1      23.690   9.766   7.311  0.00  0.00     0.120 C 
BRANCH  14  15
HETATM   15  S   UNK N   1      23.084   8.399   6.294  0.00  0.00    -0.087 SA
BRANCH  15  16
HETATM   16  C   UNK N   1      24.575   7.509   6.700  0.00  0.00     0.175 A 
HETATM   17  N   UNK N   1      25.729   7.585   6.030  0.00  0.00    -0.262 N 
HETATM   18  N   UNK N   1      26.562   6.744   6.612  0.00  0.00    -0.223 N 
HETATM   19  C   UNK N   1      26.039   8.402   4.871  0.00  0.00     0.181 C 
HETATM   20  N   UNK N   1      25.933   6.158   7.624  0.00  0.00    -0.005 NA
ATOM     21  HN  UNK N   1      27.528   6.573   6.333  1.00  0.00     0.206 HD
HETATM   22  N   UNK N   1      24.689   6.616   7.698  0.00  0.00    -0.261 N 
ATOM     23  HN  UNK N   1      23.971   6.348   8.372  1.00  0.00     0.186 HD
ENDBRANCH  15  16
ENDBRANCH  14  15
ENDBRANCH  10  14
BRANCH  11  24
HETATM   24  C   UNK N   1      23.515  12.238   8.894  0.00  0.00     0.194 C 
HETATM   25  O   UNK N   1      24.606  12.367   9.420  0.00  0.00    -0.645 OA
BRANCH  24  26
HETATM   26  O   UNK N   1      22.440  12.060   9.685  0.00  0.00    -0.772 OA
HETATM   27  H   UNK N   1      22.159  11.194   9.908  0.00  0.00     0.167 HD
ENDBRANCH  24  26
ENDBRANCH  11  24
ENDBRANCH   2   5
BRANCH   3  28
HETATM   28  C   UNK N   1      22.855  18.589   4.984  0.00  0.00     0.211 C 
BRANCH  28  29
HETATM   29  N   UNK N   1      24.232  18.156   4.898  0.00  0.00    -0.325 N 
HETATM   30  C   UNK N   1      25.408  18.806   5.031  0.00  0.00     0.326 C 
HETATM   31  O   UNK N   1      25.437  20.028   5.058  0.00  0.00    -0.247 OA
HETATM   32  N   UNK N   1      26.567  18.073   5.177  0.00  0.00    -0.260 N 
HETATM   33  C   UNK N   1      27.842  18.769   5.254  0.00  0.00     0.157 C 
HETATM   34  C   UNK N   1      26.568  16.695   5.264  0.00  0.00     0.319 C 
HETATM   35  C   UNK N   1      28.784  18.108   6.257  0.00  0.00     0.146 C 
HETATM   36  N   UNK N   1      28.909  16.679   6.035  0.00  0.00    -0.343 N 
HETATM   37  C   UNK N   1      27.815  15.973   5.598  0.00  0.00     0.312 C 
HETATM   38  O   UNK N   1      27.831  14.754   5.513  0.00  0.00    -0.262 OA
HETATM   39  O   UNK N   1      25.542  16.041   5.115  0.00  0.00    -0.262 OA
HETATM   40  H   UNK N   1      24.332  17.196   4.704  0.00  0.00     0.165 HD
BRANCH  36  41
HETATM   41  C   UNK N   1      30.189  16.081   6.412  0.00  0.00     0.122 C 
HETATM   42  C   UNK N   1      31.126  16.920   7.274  0.00  0.00     0.026 C 
ENDBRANCH  36  41
ENDBRANCH  28  29
BRANCH  28  43
HETATM   43  C   UNK N   1      22.173  19.020   3.702  0.00  0.00    -0.026 A 
HETATM   44  C   UNK N   1      22.618  20.201   3.087  0.00  0.00     0.012 A 
HETATM   45  C   UNK N   1      22.034  20.652   1.903  0.00  0.00     0.037 A 
HETATM   46  C   UNK N   1      21.001  19.922   1.316  0.00  0.00     0.065 A 
HETATM   47  C   UNK N   1      20.549  18.742   1.918  0.00  0.00     0.037 A 
HETATM   48  C   UNK N   1      21.132  18.290   3.110  0.00  0.00     0.012 A 
BRANCH  46  49
HETATM   49  O   UNK N   1      20.442  20.354   0.175  0.00  0.00    -0.361 OA
HETATM   50  H   UNK N   1      20.195  21.251   0.067  0.00  0.00     0.217 HD
ENDBRANCH  46  49
ENDBRANCH  28  43
ENDBRANCH   3  28
TORSDOF 11
ENDMDL
