REMARK  11 active torsions:
REMARK  status: ('A' for Active; 'I' for Inactive)
REMARK    1  A    between atoms: S_2  and  C_29 
REMARK    2  A    between atoms: S_2  and  C_40 
REMARK    3  A    between atoms: O_5  and  C_31 
REMARK    4  A    between atoms: O_10  and  C_44 
REMARK    5  A    between atoms: C_23  and  N_12 
REMARK       I    between atoms: N_12  and  C_28 
REMARK    6  A    between atoms: N_13  and  C_30 
REMARK       I    between atoms: N_13  and  C_33 
REMARK       I    between atoms: N_14  and  C_33 
REMARK    7  A    between atoms: N_15  and  C_41 
REMARK    8  A    between atoms: C_25  and  C_31 
REMARK    9  A    between atoms: C_26  and  C_29 
REMARK   10  A    between atoms: C_28  and  C_30 
REMARK   11  A    between atoms: C_30  and  C_32 
ROOT
HETATM    1  O   UNK N   1      10.016   2.460  -1.001  0.00  0.00    -0.271 OA
HETATM    2  N   UNK N   1       8.473   1.188   0.017  0.00  0.00    -0.343 N 
HETATM    3  C   UNK N   1       9.751   1.606  -0.165  0.00  0.00     0.245 C 
HETATM    4  H   UNK N   1       8.283   0.576   0.764  0.00  0.00     0.163 HD
ENDROOT
BRANCH   2   5
HETATM    5  C   UNK N   1       7.381   1.594  -0.827  0.00  0.00     0.210 A 
HETATM    6  C   UNK N   1       5.963   1.422  -0.062  0.00  0.00     0.187 A 
HETATM    7  S   UNK N   1       4.584   0.852  -1.102  0.00  0.00    -0.136 SA
HETATM    8  N   UNK N   1       5.915   2.850  -0.016  0.00  0.00    -0.293 N 
HETATM    9  C   UNK N   1       3.399   1.649   0.048  0.00  0.00     0.113 C 
HETATM   10  C   UNK N   1       3.557   3.156   0.104  0.00  0.00    -0.027 C 
HETATM   11  C   UNK N   1       4.794   3.721   0.114  0.00  0.00     0.116 C 
HETATM   12  C   UNK N   1       7.059   3.020  -0.609  0.00  0.00     0.251 A 
HETATM   13  O   UNK N   1       7.494   4.033  -1.131  0.00  0.00    -0.271 OA
BRANCH  10  14
HETATM   14  C   UNK N   1       2.325   3.996   0.104  0.00  0.00     0.120 C 
BRANCH  14  15
HETATM   15  S   UNK N   1       1.347   3.793   1.611  0.00  0.00    -0.087 SA
BRANCH  15  16
HETATM   16  C   UNK N   1      -0.121   3.862   0.602  0.00  0.00     0.175 A 
HETATM   17  N   UNK N   1      -0.751   2.806   0.077  0.00  0.00    -0.262 N 
HETATM   18  N   UNK N   1      -1.753   3.279  -0.638  0.00  0.00    -0.223 N 
HETATM   19  C   UNK N   1      -0.416   1.401   0.223  0.00  0.00     0.181 C 
HETATM   20  N   UNK N   1      -1.743   4.604  -0.557  0.00  0.00    -0.005 NA
ATOM     21  HN  UNK N   1      -2.425   2.720  -1.164  1.00  0.00     0.206 HD
HETATM   22  N   UNK N   1      -0.731   4.994   0.209  0.00  0.00    -0.261 N 
ATOM     23  HN  UNK N   1      -0.472   5.951   0.450  1.00  0.00     0.186 HD
ENDBRANCH  15  16
ENDBRANCH  14  15
ENDBRANCH  10  14
BRANCH  11  24
HETATM   24  C   UNK N   1       5.003   5.210   0.175  0.00  0.00     0.194 C 
HETATM   25  O   UNK N   1       6.125   5.664   0.314  0.00  0.00    -0.645 OA
BRANCH  24  26
HETATM   26  O   UNK N   1       3.967   6.069   0.124  0.00  0.00    -0.772 OA
HETATM   27  H   UNK N   1       4.124   6.992   0.089  0.00  0.00     0.167 HD
ENDBRANCH  24  26
ENDBRANCH  11  24
ENDBRANCH   2   5
BRANCH   3  28
HETATM   28  C   UNK N   1      10.837   0.855   0.553  0.00  0.00     0.211 C 
BRANCH  28  29
HETATM   29  N   UNK N   1      10.560  -0.517   0.192  0.00  0.00    -0.325 N 
HETATM   30  C   UNK N   1      11.163  -1.686   0.499  0.00  0.00     0.326 C 
HETATM   31  O   UNK N   1      12.261  -1.690   1.036  0.00  0.00    -0.247 OA
HETATM   32  N   UNK N   1      10.504  -2.869   0.238  0.00  0.00    -0.260 N 
HETATM   33  C   UNK N   1      11.178  -4.130   0.507  0.00  0.00     0.157 C 
HETATM   34  C   UNK N   1       9.218  -2.908  -0.263  0.00  0.00     0.319 C 
HETATM   35  C   UNK N   1      10.214  -5.174   1.067  0.00  0.00     0.146 C 
HETATM   36  N   UNK N   1       9.018  -5.310   0.255  0.00  0.00    -0.343 N 
HETATM   37  C   UNK N   1       8.497  -4.196  -0.357  0.00  0.00     0.312 C 
HETATM   38  O   UNK N   1       7.428  -4.231  -0.947  0.00  0.00    -0.262 OA
HETATM   39  O   UNK N   1       8.628  -1.888  -0.598  0.00  0.00    -0.262 OA
HETATM   40  H   UNK N   1       9.776  -0.620  -0.395  0.00  0.00     0.165 HD
BRANCH  36  41
HETATM   41  C   UNK N   1       8.393  -6.632   0.251  0.00  0.00     0.122 C 
HETATM   42  C   UNK N   1       7.046  -6.767  -0.450  0.00  0.00     0.026 C 
ENDBRANCH  36  41
ENDBRANCH  28  29
BRANCH  28  43
HETATM   43  C   UNK N   1      12.217   1.398   0.244  0.00  0.00    -0.026 A 
HETATM   44  C   UNK N   1      12.515   2.706   0.658  0.00  0.00     0.012 A 
HETATM   45  C   UNK N   1      13.768   3.265   0.408  0.00  0.00     0.037 A 
HETATM   46  C   UNK N   1      14.742   2.519  -0.256  0.00  0.00     0.065 A 
HETATM   47  C   UNK N   1      14.458   1.213  -0.673  0.00  0.00     0.037 A 
HETATM   48  C   UNK N   1      13.198   0.652  -0.425  0.00  0.00     0.012 A 
BRANCH  46  49
HETATM   49  O   UNK N   1      15.949   3.056  -0.493  0.00  0.00    -0.361 OA
HETATM   50  H   UNK N   1      16.695   2.514  -0.659  0.00  0.00     0.217 HD
ENDBRANCH  46  49
ENDBRANCH  28  43
ENDBRANCH   3  28
TORSDOF 11
