MODEL 1
REMARK VINA RESULT:      -6.8      0.000      0.000
REMARK  7 active torsions:
REMARK  status: ('A' for Active; 'I' for Inactive)
REMARK    1  A    between atoms: O_4  and  C_22 
REMARK    2  A    between atoms: O_7  and  N_10 
REMARK    3  A    between atoms: C_16  and  N_9 
REMARK       I    between atoms: N_9  and  C_21 
REMARK    4  A    between atoms: N_14  and  C_26 
REMARK    5  A    between atoms: C_18  and  C_22 
REMARK    6  A    between atoms: C_21  and  C_23 
REMARK    7  A    between atoms: C_23  and  C_24 
ROOT
HETATM    1  O   UNK N   1      27.449  20.188   4.668  0.00  0.00    -0.266 OA
HETATM    2  N   UNK N   1      25.455  19.432   5.357  0.00  0.00    -0.340 N 
HETATM    3  C   UNK N   1      26.719  19.891   5.595  0.00  0.00     0.273 C 
HETATM    4  H   UNK N   1      24.829  19.430   6.116  0.00  0.00     0.163 HD
ENDROOT
BRANCH   3   5
HETATM    5  C   UNK N   1      27.287  19.873   6.984  0.00  0.00     0.149 C 
HETATM    6  N   UNK N   1      26.827  20.615   7.937  0.00  0.00    -0.260 N 
ATOM      7  HN  UNK N   1      27.214  20.504   8.874  1.00  0.00     0.194 HD
BRANCH   6   8
HETATM    8  O   UNK N   1      25.877  21.509   7.744  0.00  0.00    -0.285 OA
HETATM    9  C   UNK N   1      25.269  22.115   8.817  0.00  0.00     0.237 C 
ENDBRANCH   6   8
BRANCH   5  10
HETATM   10  C   UNK N   1      28.322  18.849   7.306  0.00  0.00     0.075 A 
HETATM   11  N   UNK N   1      28.776  17.957   6.353  0.00  0.00    -0.335 N 
HETATM   12  C   UNK N   1      29.631  17.051   6.869  0.00  0.00     0.142 A 
ATOM     13  HN  UNK N   1      28.497  17.980   5.373  1.00  0.00     0.168 HD
HETATM   14  S   UNK N   1      29.826  17.321   8.477  0.00  0.00    -0.064 SA
HETATM   15  C   UNK N   1      28.818  18.638   8.613  0.00  0.00     0.085 A 
BRANCH  12  16
HETATM   16  N   UNK N   1      30.223  16.015   6.121  0.00  0.00    -0.380 N 
HETATM   17  H   UNK N   1      30.871  16.226   5.411  0.00  0.00     0.158 HD
HETATM   18  H   UNK N   1      29.990  15.078   6.309  0.00  0.00     0.158 HD
ENDBRANCH  12  16
ENDBRANCH   5  10
ENDBRANCH   3   5
BRANCH   2  19
HETATM   19  C   UNK N   1      24.948  18.942   4.073  0.00  0.00     0.211 A 
HETATM   20  C   UNK N   1      23.527  18.153   4.129  0.00  0.00     0.187 A 
HETATM   21  S   UNK N   1      22.510  18.074   5.627  0.00  0.00    -0.137 SA
HETATM   22  N   UNK N   1      22.995  19.220   3.344  0.00  0.00    -0.294 N 
HETATM   23  C   UNK N   1      21.052  17.613   4.581  0.00  0.00     0.105 C 
HETATM   24  C   UNK N   1      20.701  18.656   3.533  0.00  0.00     0.020 C 
HETATM   25  C   UNK N   1      21.641  19.417   2.945  0.00  0.00     0.109 C 
HETATM   26  C   UNK N   1      24.110  19.876   3.260  0.00  0.00     0.251 A 
HETATM   27  O   UNK N   1      24.327  20.939   2.698  0.00  0.00    -0.271 OA
BRANCH  25  28
HETATM   28  C   UNK N   1      21.232  20.472   1.979  0.00  0.00     0.193 C 
HETATM   29  O   UNK N   1      20.842  20.181   0.861  0.00  0.00    -0.645 OA
BRANCH  28  30
HETATM   30  O   UNK N   1      21.280  21.769   2.339  0.00  0.00    -0.772 OA
HETATM   31  H   UNK N   1      20.975  22.172   3.127  0.00  0.00     0.167 HD
ENDBRANCH  28  30
ENDBRANCH  25  28
ENDBRANCH   2  19
TORSDOF 7
ENDMDL
MODEL 2
REMARK VINA RESULT:      -6.5      6.889     10.644
REMARK  7 active torsions:
REMARK  status: ('A' for Active; 'I' for Inactive)
REMARK    1  A    between atoms: O_4  and  C_22 
REMARK    2  A    between atoms: O_7  and  N_10 
REMARK    3  A    between atoms: C_16  and  N_9 
REMARK       I    between atoms: N_9  and  C_21 
REMARK    4  A    between atoms: N_14  and  C_26 
REMARK    5  A    between atoms: C_18  and  C_22 
REMARK    6  A    between atoms: C_21  and  C_23 
REMARK    7  A    between atoms: C_23  and  C_24 
ROOT
HETATM    1  O   UNK N   1      35.530  17.238  10.545  0.00  0.00    -0.266 OA
HETATM    2  N   UNK N   1      33.854  16.251   9.434  0.00  0.00    -0.340 N 
HETATM    3  C   UNK N   1      34.975  16.208  10.211  0.00  0.00     0.273 C 
HETATM    4  H   UNK N   1      33.311  15.431   9.384  0.00  0.00     0.163 HD
ENDROOT
BRANCH   3   5
HETATM    5  C   UNK N   1      35.640  14.898  10.518  0.00  0.00     0.149 C 
HETATM    6  N   UNK N   1      36.274  14.210   9.626  0.00  0.00    -0.260 N 
ATOM      7  HN  UNK N   1      36.761  13.362   9.916  1.00  0.00     0.194 HD
BRANCH   6   8
HETATM    8  O   UNK N   1      36.318  14.563   8.356  0.00  0.00    -0.285 OA
HETATM    9  C   UNK N   1      37.012  13.801   7.449  0.00  0.00     0.237 C 
ENDBRANCH   6   8
BRANCH   5  10
HETATM   10  C   UNK N   1      35.693  14.453  11.940  0.00  0.00     0.075 A 
HETATM   11  N   UNK N   1      36.468  15.113  12.874  0.00  0.00    -0.335 N 
HETATM   12  C   UNK N   1      36.459  14.496  14.073  0.00  0.00     0.142 A 
ATOM     13  HN  UNK N   1      36.988  15.968  12.680  1.00  0.00     0.168 HD
HETATM   14  S   UNK N   1      35.525  13.147  13.998  0.00  0.00    -0.064 SA
HETATM   15  C   UNK N   1      35.063  13.276  12.404  0.00  0.00     0.085 A 
BRANCH  12  16
HETATM   16  N   UNK N   1      37.184  14.945  15.194  0.00  0.00    -0.380 N 
HETATM   17  H   UNK N   1      37.915  15.595  15.081  0.00  0.00     0.158 HD
HETATM   18  H   UNK N   1      36.959  14.610  16.091  0.00  0.00     0.158 HD
ENDBRANCH  12  16
ENDBRANCH   5  10
ENDBRANCH   3   5
BRANCH   2  19
HETATM   19  C   UNK N   1      33.385  17.408   8.666  0.00  0.00     0.211 A 
HETATM   20  C   UNK N   1      33.535  17.291   7.051  0.00  0.00     0.187 A 
HETATM   21  S   UNK N   1      34.030  15.758   6.221  0.00  0.00    -0.137 SA
HETATM   22  N   UNK N   1      32.109  17.330   6.996  0.00  0.00    -0.294 N 
HETATM   23  C   UNK N   1      33.334  16.422   4.638  0.00  0.00     0.105 C 
HETATM   24  C   UNK N   1      31.851  16.747   4.713  0.00  0.00     0.020 C 
HETATM   25  C   UNK N   1      31.277  17.184   5.848  0.00  0.00     0.109 C 
HETATM   26  C   UNK N   1      31.942  17.439   8.277  0.00  0.00     0.251 A 
HETATM   27  O   UNK N   1      30.896  17.509   8.904  0.00  0.00    -0.271 OA
BRANCH  25  28
HETATM   28  C   UNK N   1      29.808  17.419   5.884  0.00  0.00     0.193 C 
HETATM   29  O   UNK N   1      29.283  18.221   5.131  0.00  0.00    -0.645 OA
BRANCH  28  30
HETATM   30  O   UNK N   1      29.038  16.731   6.750  0.00  0.00    -0.772 OA
HETATM   31  H   UNK N   1      28.490  17.057   7.436  0.00  0.00     0.167 HD
ENDBRANCH  28  30
ENDBRANCH  25  28
ENDBRANCH   2  19
TORSDOF 7
ENDMDL
MODEL 3
REMARK VINA RESULT:      -6.4      6.337      9.862
REMARK  7 active torsions:
REMARK  status: ('A' for Active; 'I' for Inactive)
REMARK    1  A    between atoms: O_4  and  C_22 
REMARK    2  A    between atoms: O_7  and  N_10 
REMARK    3  A    between atoms: C_16  and  N_9 
REMARK       I    between atoms: N_9  and  C_21 
REMARK    4  A    between atoms: N_14  and  C_26 
REMARK    5  A    between atoms: C_18  and  C_22 
REMARK    6  A    between atoms: C_21  and  C_23 
REMARK    7  A    between atoms: C_23  and  C_24 
ROOT
HETATM    1  O   UNK N   1      34.999  17.279  10.180  0.00  0.00    -0.266 OA
HETATM    2  N   UNK N   1      33.247  16.309   9.175  0.00  0.00    -0.340 N 
HETATM    3  C   UNK N   1      34.423  16.255   9.867  0.00  0.00     0.273 C 
HETATM    4  H   UNK N   1      32.703  15.489   9.150  0.00  0.00     0.163 HD
ENDROOT
BRANCH   3   5
HETATM    5  C   UNK N   1      35.110  14.940  10.098  0.00  0.00     0.149 C 
HETATM    6  N   UNK N   1      35.600  14.230   9.136  0.00  0.00    -0.260 N 
ATOM      7  HN  UNK N   1      36.114  13.380   9.368  1.00  0.00     0.194 HD
BRANCH   6   8
HETATM    8  O   UNK N   1      35.462  14.561   7.867  0.00  0.00    -0.285 OA
HETATM    9  C   UNK N   1      36.437  14.234   6.956  0.00  0.00     0.237 C 
ENDBRANCH   6   8
BRANCH   5  10
HETATM   10  C   UNK N   1      35.365  14.519  11.505  0.00  0.00     0.075 A 
HETATM   11  N   UNK N   1      36.152  15.273  12.354  0.00  0.00    -0.335 N 
HETATM   12  C   UNK N   1      36.342  14.671  13.545  0.00  0.00     0.142 A 
ATOM     13  HN  UNK N   1      36.546  16.181  12.108  1.00  0.00     0.168 HD
HETATM   14  S   UNK N   1      35.568  13.223  13.566  0.00  0.00    -0.064 SA
HETATM   15  C   UNK N   1      34.928  13.281  12.031  0.00  0.00     0.085 A 
BRANCH  12  16
HETATM   16  N   UNK N   1      37.124  15.212  14.584  0.00  0.00    -0.380 N 
HETATM   17  H   UNK N   1      38.011  14.834  14.782  0.00  0.00     0.158 HD
HETATM   18  H   UNK N   1      36.784  15.970  15.111  0.00  0.00     0.158 HD
ENDBRANCH  12  16
ENDBRANCH   5  10
ENDBRANCH   3   5
BRANCH   2  19
HETATM   19  C   UNK N   1      32.721  17.479   8.467  0.00  0.00     0.211 A 
HETATM   20  C   UNK N   1      32.239  17.221   6.936  0.00  0.00     0.187 A 
HETATM   21  S   UNK N   1      32.133  15.564   6.209  0.00  0.00    -0.137 SA
HETATM   22  N   UNK N   1      30.921  17.543   7.381  0.00  0.00    -0.294 N 
HETATM   23  C   UNK N   1      31.016  16.240   4.895  0.00  0.00     0.105 C 
HETATM   24  C   UNK N   1      29.742  16.864   5.441  0.00  0.00     0.020 C 
HETATM   25  C   UNK N   1      29.710  17.488   6.632  0.00  0.00     0.109 C 
HETATM   26  C   UNK N   1      31.263  17.775   8.610  0.00  0.00     0.251 A 
HETATM   27  O   UNK N   1      30.552  18.100   9.549  0.00  0.00    -0.271 OA
BRANCH  25  28
HETATM   28  C   UNK N   1      28.419  18.017   7.149  0.00  0.00     0.193 C 
HETATM   29  O   UNK N   1      27.895  18.995   6.643  0.00  0.00    -0.645 OA
BRANCH  28  30
HETATM   30  O   UNK N   1      27.808  17.407   8.183  0.00  0.00    -0.772 OA
HETATM   31  H   UNK N   1      26.952  17.027   8.219  0.00  0.00     0.167 HD
ENDBRANCH  28  30
ENDBRANCH  25  28
ENDBRANCH   2  19
TORSDOF 7
ENDMDL
MODEL 4
REMARK VINA RESULT:      -6.3     10.479     13.070
REMARK  7 active torsions:
REMARK  status: ('A' for Active; 'I' for Inactive)
REMARK    1  A    between atoms: O_4  and  C_22 
REMARK    2  A    between atoms: O_7  and  N_10 
REMARK    3  A    between atoms: C_16  and  N_9 
REMARK       I    between atoms: N_9  and  C_21 
REMARK    4  A    between atoms: N_14  and  C_26 
REMARK    5  A    between atoms: C_18  and  C_22 
REMARK    6  A    between atoms: C_21  and  C_23 
REMARK    7  A    between atoms: C_23  and  C_24 
ROOT
HETATM    1  O   UNK N   1      37.007  12.462  11.939  0.00  0.00    -0.266 OA
HETATM    2  N   UNK N   1      35.465  14.073  11.725  0.00  0.00    -0.340 N 
HETATM    3  C   UNK N   1      35.870  12.839  12.146  0.00  0.00     0.273 C 
HETATM    4  H   UNK N   1      34.632  14.427  12.111  0.00  0.00     0.163 HD
ENDROOT
BRANCH   3   5
HETATM    5  C   UNK N   1      34.878  11.864  12.711  0.00  0.00     0.149 C 
HETATM    6  N   UNK N   1      34.270  12.058  13.835  0.00  0.00    -0.260 N 
ATOM      7  HN  UNK N   1      33.558  11.390  14.129  1.00  0.00     0.194 HD
BRANCH   6   8
HETATM    8  O   UNK N   1      34.534  13.087  14.617  0.00  0.00    -0.285 OA
HETATM    9  C   UNK N   1      34.668  12.911  15.972  0.00  0.00     0.237 C 
ENDBRANCH   6   8
BRANCH   5  10
HETATM   10  C   UNK N   1      34.474  10.704  11.867  0.00  0.00     0.075 A 
HETATM   11  N   UNK N   1      33.426  10.794  10.970  0.00  0.00    -0.335 N 
HETATM   12  C   UNK N   1      33.155   9.612  10.381  0.00  0.00     0.142 A 
ATOM     13  HN  UNK N   1      32.915  11.655  10.776  1.00  0.00     0.168 HD
HETATM   14  S   UNK N   1      34.174   8.458  10.953  0.00  0.00    -0.064 SA
HETATM   15  C   UNK N   1      35.041   9.416  12.002  0.00  0.00     0.085 A 
BRANCH  12  16
HETATM   16  N   UNK N   1      32.121   9.420   9.444  0.00  0.00    -0.380 N 
HETATM   17  H   UNK N   1      31.643  10.195   9.071  0.00  0.00     0.158 HD
HETATM   18  H   UNK N   1      31.877   8.509   9.163  0.00  0.00     0.158 HD
ENDBRANCH  12  16
ENDBRANCH   5  10
ENDBRANCH   3   5
BRANCH   2  19
HETATM   19  C   UNK N   1      36.160  14.917  10.750  0.00  0.00     0.211 A 
HETATM   20  C   UNK N   1      35.764  14.668   9.192  0.00  0.00     0.187 A 
HETATM   21  S   UNK N   1      34.396  13.590   8.689  0.00  0.00    -0.137 SA
HETATM   22  N   UNK N   1      35.241  15.997   9.196  0.00  0.00    -0.294 N 
HETATM   23  C   UNK N   1      34.384  14.422   7.034  0.00  0.00     0.105 C 
HETATM   24  C   UNK N   1      34.126  15.918   7.106  0.00  0.00     0.020 C 
HETATM   25  C   UNK N   1      34.544  16.662   8.146  0.00  0.00     0.109 C 
HETATM   26  C   UNK N   1      35.552  16.245  10.430  0.00  0.00     0.251 A 
HETATM   27  O   UNK N   1      35.351  17.262  11.075  0.00  0.00    -0.271 OA
BRANCH  25  28
HETATM   28  C   UNK N   1      34.201  18.109   8.198  0.00  0.00     0.193 C 
HETATM   29  O   UNK N   1      33.051  18.486   8.051  0.00  0.00    -0.645 OA
BRANCH  28  30
HETATM   30  O   UNK N   1      35.167  19.021   8.421  0.00  0.00    -0.772 OA
HETATM   31  H   UNK N   1      36.075  18.884   8.606  0.00  0.00     0.167 HD
ENDBRANCH  28  30
ENDBRANCH  25  28
ENDBRANCH   2  19
TORSDOF 7
ENDMDL
MODEL 5
REMARK VINA RESULT:      -6.1      3.514      4.139
REMARK  7 active torsions:
REMARK  status: ('A' for Active; 'I' for Inactive)
REMARK    1  A    between atoms: O_4  and  C_22 
REMARK    2  A    between atoms: O_7  and  N_10 
REMARK    3  A    between atoms: C_16  and  N_9 
REMARK       I    between atoms: N_9  and  C_21 
REMARK    4  A    between atoms: N_14  and  C_26 
REMARK    5  A    between atoms: C_18  and  C_22 
REMARK    6  A    between atoms: C_21  and  C_23 
REMARK    7  A    between atoms: C_23  and  C_24 
ROOT
HETATM    1  O   UNK N   1      25.813  18.620   3.498  0.00  0.00    -0.266 OA
HETATM    2  N   UNK N   1      24.655  18.739   5.412  0.00  0.00    -0.340 N 
HETATM    3  C   UNK N   1      25.800  18.889   4.684  0.00  0.00     0.273 C 
HETATM    4  H   UNK N   1      24.620  19.182   6.291  0.00  0.00     0.163 HD
ENDROOT
BRANCH   3   5
HETATM    5  C   UNK N   1      27.097  19.218   5.364  0.00  0.00     0.149 C 
HETATM    6  N   UNK N   1      27.231  20.226   6.162  0.00  0.00    -0.260 N 
ATOM      7  HN  UNK N   1      28.120  20.354   6.645  1.00  0.00     0.194 HD
BRANCH   6   8
HETATM    8  O   UNK N   1      26.261  21.094   6.379  0.00  0.00    -0.285 OA
HETATM    9  C   UNK N   1      25.980  21.513   7.656  0.00  0.00     0.237 C 
ENDBRANCH   6   8
BRANCH   5  10
HETATM   10  C   UNK N   1      28.227  18.256   5.225  0.00  0.00     0.075 A 
HETATM   11  N   UNK N   1      28.878  18.075   4.020  0.00  0.00    -0.335 N 
HETATM   12  C   UNK N   1      29.798  17.092   4.079  0.00  0.00     0.142 A 
ATOM     13  HN  UNK N   1      28.685  18.623   3.181  1.00  0.00     0.168 HD
HETATM   14  S   UNK N   1      29.813  16.433   5.583  0.00  0.00    -0.064 SA
HETATM   15  C   UNK N   1      28.631  17.385   6.263  0.00  0.00     0.085 A 
BRANCH  12  16
HETATM   16  N   UNK N   1      30.587  16.687   2.984  0.00  0.00    -0.380 N 
HETATM   17  H   UNK N   1      31.560  16.833   2.996  0.00  0.00     0.158 HD
HETATM   18  H   UNK N   1      30.164  16.257   2.207  0.00  0.00     0.158 HD
ENDBRANCH  12  16
ENDBRANCH   5  10
ENDBRANCH   3   5
BRANCH   2  19
HETATM   19  C   UNK N   1      23.472  17.976   5.003  0.00  0.00     0.211 A 
HETATM   20  C   UNK N   1      23.541  16.372   5.261  0.00  0.00     0.187 A 
HETATM   21  S   UNK N   1      24.880  15.588   6.197  0.00  0.00    -0.137 SA
HETATM   22  N   UNK N   1      22.467  16.555   6.183  0.00  0.00    -0.294 N 
HETATM   23  C   UNK N   1      23.805  14.099   6.438  0.00  0.00     0.105 C 
HETATM   24  C   UNK N   1      22.504  14.398   7.165  0.00  0.00     0.020 C 
HETATM   25  C   UNK N   1      21.871  15.577   7.033  0.00  0.00     0.109 C 
HETATM   26  C   UNK N   1      22.365  17.834   5.998  0.00  0.00     0.251 A 
HETATM   27  O   UNK N   1      21.598  18.621   6.531  0.00  0.00    -0.271 OA
BRANCH  25  28
HETATM   28  C   UNK N   1      20.640  15.842   7.824  0.00  0.00     0.193 C 
HETATM   29  O   UNK N   1      19.616  15.212   7.621  0.00  0.00    -0.645 OA
BRANCH  28  30
HETATM   30  O   UNK N   1      20.650  16.781   8.790  0.00  0.00    -0.772 OA
HETATM   31  H   UNK N   1      20.375  17.676   8.742  0.00  0.00     0.167 HD
ENDBRANCH  28  30
ENDBRANCH  25  28
ENDBRANCH   2  19
TORSDOF 7
ENDMDL
MODEL 6
REMARK VINA RESULT:      -6.1      3.945      8.889
REMARK  7 active torsions:
REMARK  status: ('A' for Active; 'I' for Inactive)
REMARK    1  A    between atoms: O_4  and  C_22 
REMARK    2  A    between atoms: O_7  and  N_10 
REMARK    3  A    between atoms: C_16  and  N_9 
REMARK       I    between atoms: N_9  and  C_21 
REMARK    4  A    between atoms: N_14  and  C_26 
REMARK    5  A    between atoms: C_18  and  C_22 
REMARK    6  A    between atoms: C_21  and  C_23 
REMARK    7  A    between atoms: C_23  and  C_24 
ROOT
HETATM    1  O   UNK N   1      27.161  16.444   7.026  0.00  0.00    -0.266 OA
HETATM    2  N   UNK N   1      28.986  17.687   6.644  0.00  0.00    -0.340 N 
HETATM    3  C   UNK N   1      27.672  17.378   6.437  0.00  0.00     0.273 C 
HETATM    4  H   UNK N   1      29.292  18.571   6.340  0.00  0.00     0.163 HD
ENDROOT
BRANCH   3   5
HETATM    5  C   UNK N   1      26.889  18.067   5.359  0.00  0.00     0.149 C 
HETATM    6  N   UNK N   1      26.933  19.346   5.172  0.00  0.00    -0.260 N 
ATOM      7  HN  UNK N   1      26.430  19.743   4.379  1.00  0.00     0.194 HD
BRANCH   6   8
HETATM    8  O   UNK N   1      27.604  20.157   5.967  0.00  0.00    -0.285 OA
HETATM    9  C   UNK N   1      27.185  21.452   6.148  0.00  0.00     0.237 C 
ENDBRANCH   6   8
BRANCH   5  10
HETATM   10  C   UNK N   1      26.153  17.222   4.376  0.00  0.00     0.075 A 
HETATM   11  N   UNK N   1      24.828  16.879   4.568  0.00  0.00    -0.335 N 
HETATM   12  C   UNK N   1      24.378  16.030   3.622  0.00  0.00     0.142 A 
ATOM     13  HN  UNK N   1      24.256  17.227   5.337  1.00  0.00     0.168 HD
HETATM   14  S   UNK N   1      25.586  15.685   2.564  0.00  0.00    -0.064 SA
HETATM   15  C   UNK N   1      26.774  16.621   3.257  0.00  0.00     0.085 A 
BRANCH  12  16
HETATM   16  N   UNK N   1      23.072  15.504   3.596  0.00  0.00    -0.380 N 
HETATM   17  H   UNK N   1      22.513  15.530   4.405  0.00  0.00     0.158 HD
HETATM   18  H   UNK N   1      22.718  15.111   2.766  0.00  0.00     0.158 HD
ENDBRANCH  12  16
ENDBRANCH   5  10
ENDBRANCH   3   5
BRANCH   2  19
HETATM   19  C   UNK N   1      29.982  16.819   7.279  0.00  0.00     0.211 A 
HETATM   20  C   UNK N   1      31.268  16.432   6.363  0.00  0.00     0.187 A 
HETATM   21  S   UNK N   1      31.586  17.194   4.749  0.00  0.00    -0.137 SA
HETATM   22  N   UNK N   1      32.057  17.157   7.306  0.00  0.00    -0.294 N 
HETATM   23  C   UNK N   1      33.351  16.645   4.867  0.00  0.00     0.105 C 
HETATM   24  C   UNK N   1      34.083  17.202   6.077  0.00  0.00     0.020 C 
HETATM   25  C   UNK N   1      33.453  17.440   7.241  0.00  0.00     0.109 C 
HETATM   26  C   UNK N   1      31.063  17.476   8.074  0.00  0.00     0.251 A 
HETATM   27  O   UNK N   1      31.077  18.139   9.101  0.00  0.00    -0.271 OA
BRANCH  25  28
HETATM   28  C   UNK N   1      34.203  18.053   8.369  0.00  0.00     0.193 C 
HETATM   29  O   UNK N   1      34.859  19.068   8.208  0.00  0.00    -0.645 OA
BRANCH  28  30
HETATM   30  O   UNK N   1      34.154  17.492   9.593  0.00  0.00    -0.772 OA
HETATM   31  H   UNK N   1      34.843  17.385  10.219  0.00  0.00     0.167 HD
ENDBRANCH  28  30
ENDBRANCH  25  28
ENDBRANCH   2  19
TORSDOF 7
ENDMDL
MODEL 7
REMARK VINA RESULT:      -6.0     10.977     13.415
REMARK  7 active torsions:
REMARK  status: ('A' for Active; 'I' for Inactive)
REMARK    1  A    between atoms: O_4  and  C_22 
REMARK    2  A    between atoms: O_7  and  N_10 
REMARK    3  A    between atoms: C_16  and  N_9 
REMARK       I    between atoms: N_9  and  C_21 
REMARK    4  A    between atoms: N_14  and  C_26 
REMARK    5  A    between atoms: C_18  and  C_22 
REMARK    6  A    between atoms: C_21  and  C_23 
REMARK    7  A    between atoms: C_23  and  C_24 
ROOT
HETATM    1  O   UNK N   1      26.790  24.310  -2.587  0.00  0.00    -0.266 OA
HETATM    2  N   UNK N   1      28.565  24.063  -3.932  0.00  0.00    -0.340 N 
HETATM    3  C   UNK N   1      27.435  24.717  -3.535  0.00  0.00     0.273 C 
HETATM    4  H   UNK N   1      29.175  24.546  -4.536  0.00  0.00     0.163 HD
ENDROOT
BRANCH   3   5
HETATM    5  C   UNK N   1      26.874  25.838  -4.361  0.00  0.00     0.149 C 
HETATM    6  N   UNK N   1      26.000  25.649  -5.294  0.00  0.00    -0.260 N 
ATOM      7  HN  UNK N   1      25.609  26.461  -5.771  1.00  0.00     0.194 HD
BRANCH   6   8
HETATM    8  O   UNK N   1      25.592  24.446  -5.652  0.00  0.00    -0.285 OA
HETATM    9  C   UNK N   1      26.013  23.898  -6.839  0.00  0.00     0.237 C 
ENDBRANCH   6   8
BRANCH   5  10
HETATM   10  C   UNK N   1      27.232  27.235  -3.984  0.00  0.00     0.075 A 
HETATM   11  N   UNK N   1      26.278  28.233  -3.919  0.00  0.00    -0.335 N 
HETATM   12  C   UNK N   1      26.819  29.441  -3.661  0.00  0.00     0.142 A 
ATOM     13  HN  UNK N   1      25.279  28.075  -4.050  1.00  0.00     0.168 HD
HETATM   14  S   UNK N   1      28.450  29.303  -3.527  0.00  0.00    -0.064 SA
HETATM   15  C   UNK N   1      28.565  27.664  -3.787  0.00  0.00     0.085 A 
BRANCH  12  16
HETATM   16  N   UNK N   1      26.073  30.632  -3.566  0.00  0.00    -0.380 N 
HETATM   17  H   UNK N   1      26.369  31.353  -2.966  0.00  0.00     0.158 HD
HETATM   18  H   UNK N   1      25.254  30.742  -4.100  0.00  0.00     0.158 HD
ENDBRANCH  12  16
ENDBRANCH   5  10
ENDBRANCH   3   5
BRANCH   2  19
HETATM   19  C   UNK N   1      28.953  22.705  -3.540  0.00  0.00     0.211 A 
HETATM   20  C   UNK N   1      29.651  21.807  -4.702  0.00  0.00     0.187 A 
HETATM   21  S   UNK N   1      30.137  22.490  -6.309  0.00  0.00    -0.137 SA
HETATM   22  N   UNK N   1      30.828  21.820  -3.893  0.00  0.00    -0.294 N 
HETATM   23  C   UNK N   1      31.262  21.039  -6.555  0.00  0.00     0.105 C 
HETATM   24  C   UNK N   1      32.331  20.908  -5.483  0.00  0.00     0.020 C 
HETATM   25  C   UNK N   1      32.110  21.283  -4.210  0.00  0.00     0.109 C 
HETATM   26  C   UNK N   1      30.308  22.522  -2.935  0.00  0.00     0.251 A 
HETATM   27  O   UNK N   1      30.833  22.905  -1.901  0.00  0.00    -0.271 OA
BRANCH  25  28
HETATM   28  C   UNK N   1      33.214  21.199  -3.218  0.00  0.00     0.193 C 
HETATM   29  O   UNK N   1      34.380  21.201  -3.575  0.00  0.00    -0.645 OA
BRANCH  28  30
HETATM   30  O   UNK N   1      32.933  21.130  -1.902  0.00  0.00    -0.772 OA
HETATM   31  H   UNK N   1      33.171  21.725  -1.218  0.00  0.00     0.167 HD
ENDBRANCH  28  30
ENDBRANCH  25  28
ENDBRANCH   2  19
TORSDOF 7
ENDMDL
MODEL 8
REMARK VINA RESULT:      -5.8      5.822      8.677
REMARK  7 active torsions:
REMARK  status: ('A' for Active; 'I' for Inactive)
REMARK    1  A    between atoms: O_4  and  C_22 
REMARK    2  A    between atoms: O_7  and  N_10 
REMARK    3  A    between atoms: C_16  and  N_9 
REMARK       I    between atoms: N_9  and  C_21 
REMARK    4  A    between atoms: N_14  and  C_26 
REMARK    5  A    between atoms: C_18  and  C_22 
REMARK    6  A    between atoms: C_21  and  C_23 
REMARK    7  A    between atoms: C_23  and  C_24 
ROOT
HETATM    1  O   UNK N   1      20.864  17.283   6.605  0.00  0.00    -0.266 OA
HETATM    2  N   UNK N   1      22.291  15.574   6.357  0.00  0.00    -0.340 N 
HETATM    3  C   UNK N   1      21.896  16.860   6.121  0.00  0.00     0.273 C 
HETATM    4  H   UNK N   1      23.227  15.348   6.151  0.00  0.00     0.163 HD
ENDROOT
BRANCH   3   5
HETATM    5  C   UNK N   1      22.631  17.713   5.128  0.00  0.00     0.149 C 
HETATM    6  N   UNK N   1      23.916  17.679   4.995  0.00  0.00    -0.260 N 
ATOM      7  HN  UNK N   1      24.347  18.234   4.255  1.00  0.00     0.194 HD
BRANCH   6   8
HETATM    8  O   UNK N   1      24.693  16.956   5.778  0.00  0.00    -0.285 OA
HETATM    9  C   UNK N   1      25.962  16.621   5.376  0.00  0.00     0.237 C 
ENDBRANCH   6   8
BRANCH   5  10
HETATM   10  C   UNK N   1      21.829  18.514   4.161  0.00  0.00     0.075 A 
HETATM   11  N   UNK N   1      20.527  18.174   3.846  0.00  0.00    -0.335 N 
HETATM   12  C   UNK N   1      20.013  18.961   2.879  0.00  0.00     0.142 A 
ATOM     13  HN  UNK N   1      20.013  17.415   4.293  1.00  0.00     0.168 HD
HETATM   14  S   UNK N   1      21.137  20.056   2.397  0.00  0.00    -0.064 SA
HETATM   15  C   UNK N   1      22.366  19.589   3.416  0.00  0.00     0.085 A 
BRANCH  12  16
HETATM   16  N   UNK N   1      18.714  18.814   2.355  0.00  0.00    -0.380 N 
HETATM   17  H   UNK N   1      18.386  17.925   2.091  0.00  0.00     0.158 HD
HETATM   18  H   UNK N   1      18.134  19.603   2.254  0.00  0.00     0.158 HD
ENDBRANCH  12  16
ENDBRANCH   5  10
ENDBRANCH   3   5
BRANCH   2  19
HETATM   19  C   UNK N   1      21.447  14.501   6.888  0.00  0.00     0.211 A 
HETATM   20  C   UNK N   1      22.126  13.024   6.931  0.00  0.00     0.187 A 
HETATM   21  S   UNK N   1      23.879  12.741   6.570  0.00  0.00    -0.137 SA
HETATM   22  N   UNK N   1      22.023  13.106   8.353  0.00  0.00    -0.294 N 
HETATM   23  C   UNK N   1      23.767  11.106   7.433  0.00  0.00     0.105 C 
HETATM   24  C   UNK N   1      23.346  11.214   8.889  0.00  0.00     0.020 C 
HETATM   25  C   UNK N   1      22.507  12.175   9.317  0.00  0.00     0.109 C 
HETATM   26  C   UNK N   1      21.465  14.276   8.366  0.00  0.00     0.251 A 
HETATM   27  O   UNK N   1      21.118  14.943   9.329  0.00  0.00    -0.271 OA
BRANCH  25  28
HETATM   28  C   UNK N   1      22.186  12.277  10.766  0.00  0.00     0.193 C 
HETATM   29  O   UNK N   1      23.049  12.116  11.612  0.00  0.00    -0.645 OA
BRANCH  28  30
HETATM   30  O   UNK N   1      20.929  12.561  11.158  0.00  0.00    -0.772 OA
HETATM   31  H   UNK N   1      20.284  13.087  10.728  0.00  0.00     0.167 HD
ENDBRANCH  28  30
ENDBRANCH  25  28
ENDBRANCH   2  19
TORSDOF 7
ENDMDL
MODEL 9
REMARK VINA RESULT:      -5.8      9.851     12.437
REMARK  7 active torsions:
REMARK  status: ('A' for Active; 'I' for Inactive)
REMARK    1  A    between atoms: O_4  and  C_22 
REMARK    2  A    between atoms: O_7  and  N_10 
REMARK    3  A    between atoms: C_16  and  N_9 
REMARK       I    between atoms: N_9  and  C_21 
REMARK    4  A    between atoms: N_14  and  C_26 
REMARK    5  A    between atoms: C_18  and  C_22 
REMARK    6  A    between atoms: C_21  and  C_23 
REMARK    7  A    between atoms: C_23  and  C_24 
ROOT
HETATM    1  O   UNK N   1      33.930  14.546  11.767  0.00  0.00    -0.266 OA
HETATM    2  N   UNK N   1      34.635  13.666   9.831  0.00  0.00    -0.340 N 
HETATM    3  C   UNK N   1      34.838  14.055  11.123  0.00  0.00     0.273 C 
HETATM    4  H   UNK N   1      35.308  13.070   9.430  0.00  0.00     0.163 HD
ENDROOT
BRANCH   3   5
HETATM    5  C   UNK N   1      36.219  14.048  11.712  0.00  0.00     0.149 C 
HETATM    6  N   UNK N   1      37.282  14.242  11.003  0.00  0.00    -0.260 N 
ATOM      7  HN  UNK N   1      38.184  14.292  11.477  1.00  0.00     0.194 HD
BRANCH   6   8
HETATM    8  O   UNK N   1      37.245  14.380   9.692  0.00  0.00    -0.285 OA
HETATM    9  C   UNK N   1      38.297  13.949   8.921  0.00  0.00     0.237 C 
ENDBRANCH   6   8
BRANCH   5  10
HETATM   10  C   UNK N   1      36.349  13.961  13.195  0.00  0.00     0.075 A 
HETATM   11  N   UNK N   1      36.830  15.020  13.941  0.00  0.00    -0.335 N 
HETATM   12  C   UNK N   1      36.967  14.706  15.245  0.00  0.00     0.142 A 
ATOM     13  HN  UNK N   1      37.057  15.935  13.551  1.00  0.00     0.168 HD
HETATM   14  S   UNK N   1      36.519  13.146  15.491  0.00  0.00    -0.064 SA
HETATM   15  C   UNK N   1      36.110  12.772  13.922  0.00  0.00     0.085 A 
BRANCH  12  16
HETATM   16  N   UNK N   1      37.459  15.595  16.220  0.00  0.00    -0.380 N 
HETATM   17  H   UNK N   1      38.308  15.402  16.680  0.00  0.00     0.158 HD
HETATM   18  H   UNK N   1      36.955  16.410  16.441  0.00  0.00     0.158 HD
ENDBRANCH  12  16
ENDBRANCH   5  10
ENDBRANCH   3   5
BRANCH   2  19
HETATM   19  C   UNK N   1      33.503  14.057   8.985  0.00  0.00     0.211 A 
HETATM   20  C   UNK N   1      33.380  15.645   8.660  0.00  0.00     0.187 A 
HETATM   21  S   UNK N   1      34.667  16.840   9.107  0.00  0.00    -0.137 SA
HETATM   22  N   UNK N   1      33.615  15.302   7.294  0.00  0.00    -0.294 N 
HETATM   23  C   UNK N   1      33.955  18.028   7.877  0.00  0.00     0.105 C 
HETATM   24  C   UNK N   1      33.939  17.494   6.454  0.00  0.00     0.020 C 
HETATM   25  C   UNK N   1      33.772  16.186   6.187  0.00  0.00     0.109 C 
HETATM   26  C   UNK N   1      33.706  14.026   7.504  0.00  0.00     0.251 A 
HETATM   27  O   UNK N   1      33.923  13.135   6.697  0.00  0.00    -0.271 OA
BRANCH  25  28
HETATM   28  C   UNK N   1      33.837  15.711   4.780  0.00  0.00     0.193 C 
HETATM   29  O   UNK N   1      33.074  16.148   3.934  0.00  0.00    -0.645 OA
BRANCH  28  30
HETATM   30  O   UNK N   1      34.755  14.792   4.422  0.00  0.00    -0.772 OA
HETATM   31  H   UNK N   1      34.786  13.879   4.632  0.00  0.00     0.167 HD
ENDBRANCH  28  30
ENDBRANCH  25  28
ENDBRANCH   2  19
TORSDOF 7
ENDMDL
