REMARK  6 active torsions:
REMARK  status: ('A' for Active; 'I' for Inactive)
REMARK    1  A    between atoms: O_4  and  C_18 
REMARK    2  A    between atoms: C_10  and  N_7 
REMARK       I    between atoms: N_7  and  C_15 
REMARK    3  A    between atoms: C_16  and  N_8 
REMARK    4  A    between atoms: C_12  and  C_18 
REMARK    5  A    between atoms: C_15  and  C_16 
REMARK    6  A    between atoms: C_16  and  C_19 
ROOT
HETATM    1  S   UNK N   1       1.288  -1.367   0.786  0.00  0.00    -0.136 SA
HETATM    2  O   UNK N   1       4.903   1.127   0.860  0.00  0.00    -0.271 OA
HETATM    3  N   UNK N   1       2.998   0.375  -0.129  0.00  0.00    -0.293 N 
HETATM    4  C   UNK N   1       2.764  -1.028  -0.213  0.00  0.00     0.187 A 
HETATM    5  C   UNK N   1       4.200  -1.225   0.523  0.00  0.00     0.210 A 
HETATM    6  C   UNK N   1       4.171   0.259   0.419  0.00  0.00     0.251 A 
HETATM    7  C   UNK N   1       2.072   1.457  -0.289  0.00  0.00     0.115 C 
HETATM    8  C   UNK N   1       0.316  -0.324  -0.373  0.00  0.00     0.112 C 
HETATM    9  C   UNK N   1       0.749   1.127  -0.382  0.00  0.00    -0.041 C 
HETATM   10  C   UNK N   1      -0.339   2.149  -0.479  0.00  0.00     0.047 C 
ENDROOT
BRANCH   5  11
HETATM   11  N   UNK N   1       5.235  -1.733  -0.345  0.00  0.00    -0.343 N 
HETATM   12  C   UNK N   1       6.399  -2.188   0.181  0.00  0.00     0.245 C 
HETATM   13  O   UNK N   1       6.580  -2.168   1.392  0.00  0.00    -0.271 OA
HETATM   14  H   UNK N   1       5.096  -1.748  -1.320  0.00  0.00     0.163 HD
BRANCH  12  15
HETATM   15  C   UNK N   1       7.474  -2.720  -0.716  0.00  0.00     0.197 C 
BRANCH  15  16
HETATM   16  N   UNK N   1       7.678  -4.134  -0.424  0.00  0.00    -0.415 N 
HETATM   17  H   UNK N   1       6.892  -4.752  -0.219  0.00  0.00     0.151 HD
HETATM   18  H   UNK N   1       8.624  -4.513  -0.424  0.00  0.00     0.151 HD
ENDBRANCH  15  16
BRANCH  15  19
HETATM   19  C   UNK N   1       8.744  -1.916  -0.530  0.00  0.00    -0.049 A 
HETATM   20  C   UNK N   1       8.717  -0.450  -0.891  0.00  0.00     0.063 A 
HETATM   21  C   UNK N   1      10.001   0.292  -0.637  0.00  0.00    -0.026 A 
HETATM   22  C   UNK N   1      11.093  -0.297  -0.140  0.00  0.00    -0.027 A 
HETATM   23  C   UNK N   1      11.142  -1.758   0.207  0.00  0.00     0.054 A 
HETATM   24  C   UNK N   1       9.854  -2.495  -0.035  0.00  0.00    -0.017 A 
ENDBRANCH  15  19
ENDBRANCH  12  15
ENDBRANCH   5  11
BRANCH   7  25
HETATM   25  C   UNK N   1       2.545   2.883  -0.256  0.00  0.00     0.194 C 
HETATM   26  O   UNK N   1       3.738   3.135  -0.258  0.00  0.00    -0.645 OA
BRANCH  25  27
HETATM   27  O   UNK N   1       1.672   3.909  -0.239  0.00  0.00    -0.772 OA
HETATM   28  H   UNK N   1       1.987   4.792  -0.227  0.00  0.00     0.167 HD
ENDBRANCH  25  27
ENDBRANCH   7  25
TORSDOF 6
