MODEL 1
REMARK VINA RESULT:      -6.8      0.000      0.000
REMARK  6 active torsions:
REMARK  status: ('A' for Active; 'I' for Inactive)
REMARK    1  A    between atoms: O_4  and  C_18 
REMARK    2  A    between atoms: C_10  and  N_7 
REMARK       I    between atoms: N_7  and  C_15 
REMARK    3  A    between atoms: C_16  and  N_8 
REMARK    4  A    between atoms: C_12  and  C_18 
REMARK    5  A    between atoms: C_15  and  C_16 
REMARK    6  A    between atoms: C_16  and  C_19 
ROOT
HETATM    1  S   UNK N   1      37.339  13.663   9.075  0.00  0.00    -0.136 SA
HETATM    2  O   UNK N   1      35.441  16.602  11.731  0.00  0.00    -0.271 OA
HETATM    3  N   UNK N   1      35.698  14.491  10.923  0.00  0.00    -0.293 N 
HETATM    4  C   UNK N   1      35.690  14.280   9.514  0.00  0.00     0.187 A 
HETATM    5  C   UNK N   1      35.449  15.880   9.361  0.00  0.00     0.210 A 
HETATM    6  C   UNK N   1      35.459  15.767  10.844  0.00  0.00     0.251 A 
HETATM    7  C   UNK N   1      36.160  13.623  11.965  0.00  0.00     0.115 C 
HETATM    8  C   UNK N   1      37.013  12.179  10.107  0.00  0.00     0.112 C 
HETATM    9  C   UNK N   1      36.832  12.498  11.576  0.00  0.00    -0.041 C 
HETATM   10  C   UNK N   1      37.436  11.535  12.549  0.00  0.00     0.047 C 
ENDROOT
BRANCH   5  11
HETATM   11  N   UNK N   1      34.117  16.230   8.929  0.00  0.00    -0.343 N 
HETATM   12  C   UNK N   1      33.834  17.506   8.568  0.00  0.00     0.245 C 
HETATM   13  O   UNK N   1      34.703  18.367   8.608  0.00  0.00    -0.271 OA
HETATM   14  H   UNK N   1      33.413  15.542   8.899  0.00  0.00     0.163 HD
BRANCH  12  15
HETATM   15  C   UNK N   1      32.454  17.872   8.115  0.00  0.00     0.197 C 
BRANCH  15  16
HETATM   16  N   UNK N   1      31.485  17.314   9.051  0.00  0.00    -0.415 N 
HETATM   17  H   UNK N   1      31.753  16.599   9.728  0.00  0.00     0.151 HD
HETATM   18  H   UNK N   1      30.521  17.644   9.028  0.00  0.00     0.151 HD
ENDBRANCH  15  16
BRANCH  15  19
HETATM   19  C   UNK N   1      32.227  17.375   6.703  0.00  0.00    -0.049 A 
HETATM   20  C   UNK N   1      33.351  17.526   5.706  0.00  0.00     0.063 A 
HETATM   21  C   UNK N   1      33.067  16.968   4.338  0.00  0.00    -0.026 A 
HETATM   22  C   UNK N   1      31.905  16.392   4.016  0.00  0.00    -0.027 A 
HETATM   23  C   UNK N   1      30.770  16.251   4.990  0.00  0.00     0.054 A 
HETATM   24  C   UNK N   1      31.060  16.797   6.361  0.00  0.00    -0.017 A 
ENDBRANCH  15  19
ENDBRANCH  12  15
ENDBRANCH   5  11
BRANCH   7  25
HETATM   25  C   UNK N   1      35.989  13.999  13.410  0.00  0.00     0.194 C 
HETATM   26  O   UNK N   1      35.065  13.539  14.059  0.00  0.00    -0.645 OA
BRANCH  25  27
HETATM   27  O   UNK N   1      36.851  14.834  14.022  0.00  0.00    -0.772 OA
HETATM   28  H   UNK N   1      36.634  15.741  14.121  0.00  0.00     0.167 HD
ENDBRANCH  25  27
ENDBRANCH   7  25
TORSDOF 6
ENDMDL
MODEL 2
REMARK VINA RESULT:      -6.7     11.929     14.811
REMARK  6 active torsions:
REMARK  status: ('A' for Active; 'I' for Inactive)
REMARK    1  A    between atoms: O_4  and  C_18 
REMARK    2  A    between atoms: C_10  and  N_7 
REMARK       I    between atoms: N_7  and  C_15 
REMARK    3  A    between atoms: C_16  and  N_8 
REMARK    4  A    between atoms: C_12  and  C_18 
REMARK    5  A    between atoms: C_15  and  C_16 
REMARK    6  A    between atoms: C_16  and  C_19 
ROOT
HETATM    1  S   UNK N   1      24.566  16.857   4.297  0.00  0.00    -0.136 SA
HETATM    2  O   UNK N   1      20.177  16.698   4.276  0.00  0.00    -0.271 OA
HETATM    3  N   UNK N   1      22.150  17.731   4.738  0.00  0.00    -0.293 N 
HETATM    4  C   UNK N   1      23.164  17.015   5.438  0.00  0.00     0.187 A 
HETATM    5  C   UNK N   1      22.126  15.765   5.489  0.00  0.00     0.210 A 
HETATM    6  C   UNK N   1      21.275  16.771   4.798  0.00  0.00     0.251 A 
HETATM    7  C   UNK N   1      22.261  18.936   3.971  0.00  0.00     0.115 C 
HETATM    8  C   UNK N   1      24.727  18.687   4.310  0.00  0.00     0.112 C 
HETATM    9  C   UNK N   1      23.524  19.400   3.731  0.00  0.00    -0.041 C 
HETATM   10  C   UNK N   1      23.801  20.603   2.887  0.00  0.00     0.047 C 
ENDROOT
BRANCH   5  11
HETATM   11  N   UNK N   1      21.579  15.514   6.801  0.00  0.00    -0.343 N 
HETATM   12  C   UNK N   1      21.296  14.245   7.187  0.00  0.00     0.245 C 
HETATM   13  O   UNK N   1      21.499  13.308   6.426  0.00  0.00    -0.271 OA
HETATM   14  H   UNK N   1      21.411  16.265   7.415  0.00  0.00     0.163 HD
BRANCH  12  15
HETATM   15  C   UNK N   1      20.733  13.981   8.549  0.00  0.00     0.197 C 
BRANCH  15  16
HETATM   16  N   UNK N   1      20.240  15.233   9.110  0.00  0.00    -0.415 N 
HETATM   17  H   UNK N   1      20.203  15.385  10.118  0.00  0.00     0.151 HD
HETATM   18  H   UNK N   1      19.924  15.971   8.482  0.00  0.00     0.151 HD
ENDBRANCH  15  16
BRANCH  15  19
HETATM   19  C   UNK N   1      21.791  13.347   9.429  0.00  0.00    -0.049 A 
HETATM   20  C   UNK N   1      21.337  12.590  10.654  0.00  0.00     0.063 A 
HETATM   21  C   UNK N   1      22.440  11.951  11.453  0.00  0.00    -0.026 A 
HETATM   22  C   UNK N   1      23.730  12.050  11.117  0.00  0.00    -0.027 A 
HETATM   23  C   UNK N   1      24.200  12.814   9.911  0.00  0.00     0.054 A 
HETATM   24  C   UNK N   1      23.095  13.441   9.107  0.00  0.00    -0.017 A 
ENDBRANCH  15  19
ENDBRANCH  12  15
ENDBRANCH   5  11
BRANCH   7  25
HETATM   25  C   UNK N   1      21.040  19.588   3.386  0.00  0.00     0.194 C 
HETATM   26  O   UNK N   1      20.515  20.531   3.954  0.00  0.00    -0.645 OA
BRANCH  25  27
HETATM   27  O   UNK N   1      20.508  19.162   2.224  0.00  0.00    -0.772 OA
HETATM   28  H   UNK N   1      20.219  19.785   1.585  0.00  0.00     0.167 HD
ENDBRANCH  25  27
ENDBRANCH   7  25
TORSDOF 6
ENDMDL
MODEL 3
REMARK VINA RESULT:      -6.7      2.780      8.332
REMARK  6 active torsions:
REMARK  status: ('A' for Active; 'I' for Inactive)
REMARK    1  A    between atoms: O_4  and  C_18 
REMARK    2  A    between atoms: C_10  and  N_7 
REMARK       I    between atoms: N_7  and  C_15 
REMARK    3  A    between atoms: C_16  and  N_8 
REMARK    4  A    between atoms: C_12  and  C_18 
REMARK    5  A    between atoms: C_15  and  C_16 
REMARK    6  A    between atoms: C_16  and  C_19 
ROOT
HETATM    1  S   UNK N   1      34.770  12.527   8.264  0.00  0.00    -0.136 SA
HETATM    2  O   UNK N   1      33.887  15.305  11.550  0.00  0.00    -0.271 OA
HETATM    3  N   UNK N   1      35.022  14.706   9.672  0.00  0.00    -0.293 N 
HETATM    4  C   UNK N   1      35.617  13.414   9.600  0.00  0.00     0.187 A 
HETATM    5  C   UNK N   1      35.056  13.166  11.106  0.00  0.00     0.210 A 
HETATM    6  C   UNK N   1      34.596  14.565  10.892  0.00  0.00     0.251 A 
HETATM    7  C   UNK N   1      34.734  15.629   8.614  0.00  0.00     0.115 C 
HETATM    8  C   UNK N   1      35.421  13.774   7.081  0.00  0.00     0.112 C 
HETATM    9  C   UNK N   1      34.901  15.173   7.336  0.00  0.00    -0.041 C 
HETATM   10  C   UNK N   1      34.572  15.994   6.130  0.00  0.00     0.047 C 
ENDROOT
BRANCH   5  11
HETATM   11  N   UNK N   1      36.085  13.164  12.118  0.00  0.00    -0.343 N 
HETATM   12  C   UNK N   1      35.764  12.913  13.411  0.00  0.00     0.245 C 
HETATM   13  O   UNK N   1      34.602  12.690  13.728  0.00  0.00    -0.271 OA
HETATM   14  H   UNK N   1      37.021  13.345  11.869  0.00  0.00     0.163 HD
BRANCH  12  15
HETATM   15  C   UNK N   1      36.829  12.905  14.464  0.00  0.00     0.197 C 
BRANCH  15  16
HETATM   16  N   UNK N   1      37.893  11.996  14.055  0.00  0.00    -0.415 N 
HETATM   17  H   UNK N   1      38.617  11.697  14.709  0.00  0.00     0.151 HD
HETATM   18  H   UNK N   1      37.916  11.652  13.095  0.00  0.00     0.151 HD
ENDBRANCH  15  16
BRANCH  15  19
HETATM   19  C   UNK N   1      36.231  12.509  15.798  0.00  0.00    -0.049 A 
HETATM   20  C   UNK N   1      36.287  11.055  16.200  0.00  0.00     0.063 A 
HETATM   21  C   UNK N   1      35.714  10.746  17.556  0.00  0.00    -0.026 A 
HETATM   22  C   UNK N   1      35.183  11.682  18.349  0.00  0.00    -0.027 A 
HETATM   23  C   UNK N   1      35.103  13.130  17.957  0.00  0.00     0.054 A 
HETATM   24  C   UNK N   1      35.688  13.439  16.607  0.00  0.00    -0.017 A 
ENDBRANCH  15  19
ENDBRANCH  12  15
ENDBRANCH   5  11
BRANCH   7  25
HETATM   25  C   UNK N   1      34.186  16.995   8.915  0.00  0.00     0.194 C 
HETATM   26  O   UNK N   1      34.936  17.951   9.015  0.00  0.00    -0.645 OA
BRANCH  25  27
HETATM   27  O   UNK N   1      32.862  17.200   9.065  0.00  0.00    -0.772 OA
HETATM   28  H   UNK N   1      32.252  16.734   8.526  0.00  0.00     0.167 HD
ENDBRANCH  25  27
ENDBRANCH   7  25
TORSDOF 6
ENDMDL
MODEL 4
REMARK VINA RESULT:      -6.6      1.684      1.785
REMARK  6 active torsions:
REMARK  status: ('A' for Active; 'I' for Inactive)
REMARK    1  A    between atoms: O_4  and  C_18 
REMARK    2  A    between atoms: C_10  and  N_7 
REMARK       I    between atoms: N_7  and  C_15 
REMARK    3  A    between atoms: C_16  and  N_8 
REMARK    4  A    between atoms: C_12  and  C_18 
REMARK    5  A    between atoms: C_15  and  C_16 
REMARK    6  A    between atoms: C_16  and  C_19 
ROOT
HETATM    1  S   UNK N   1      35.113  11.896   8.648  0.00  0.00    -0.136 SA
HETATM    2  O   UNK N   1      36.585  15.579  10.536  0.00  0.00    -0.271 OA
HETATM    3  N   UNK N   1      35.129  13.838  10.388  0.00  0.00    -0.293 N 
HETATM    4  C   UNK N   1      34.523  13.542   9.133  0.00  0.00     0.187 A 
HETATM    5  C   UNK N   1      35.342  14.812   8.534  0.00  0.00     0.210 A 
HETATM    6  C   UNK N   1      35.765  14.887   9.959  0.00  0.00     0.251 A 
HETATM    7  C   UNK N   1      35.229  13.018  11.559  0.00  0.00     0.115 C 
HETATM    8  C   UNK N   1      34.268  11.205  10.127  0.00  0.00     0.112 C 
HETATM    9  C   UNK N   1      34.835  11.715  11.435  0.00  0.00    -0.041 C 
HETATM   10  C   UNK N   1      34.948  10.722  12.548  0.00  0.00     0.047 C 
ENDROOT
BRANCH   5  11
HETATM   11  N   UNK N   1      34.510  15.953   8.234  0.00  0.00    -0.343 N 
HETATM   12  C   UNK N   1      34.521  16.492   6.990  0.00  0.00     0.245 C 
HETATM   13  O   UNK N   1      35.237  16.018   6.117  0.00  0.00    -0.271 OA
HETATM   14  H   UNK N   1      33.935  16.340   8.934  0.00  0.00     0.163 HD
BRANCH  12  15
HETATM   15  C   UNK N   1      33.657  17.673   6.673  0.00  0.00     0.197 C 
BRANCH  15  16
HETATM   16  N   UNK N   1      33.046  18.158   7.906  0.00  0.00    -0.415 N 
HETATM   17  H   UNK N   1      32.886  17.535   8.698  0.00  0.00     0.151 HD
HETATM   18  H   UNK N   1      32.774  19.137   7.977  0.00  0.00     0.151 HD
ENDBRANCH  15  16
BRANCH  15  19
HETATM   19  C   UNK N   1      32.617  17.288   5.642  0.00  0.00    -0.049 A 
HETATM   20  C   UNK N   1      32.907  17.591   4.191  0.00  0.00     0.063 A 
HETATM   21  C   UNK N   1      31.849  17.139   3.222  0.00  0.00    -0.026 A 
HETATM   22  C   UNK N   1      30.727  16.524   3.608  0.00  0.00    -0.027 A 
HETATM   23  C   UNK N   1      30.415  16.231   5.048  0.00  0.00     0.054 A 
HETATM   24  C   UNK N   1      31.479  16.672   6.014  0.00  0.00    -0.017 A 
ENDBRANCH  15  19
ENDBRANCH  12  15
ENDBRANCH   5  11
BRANCH   7  25
HETATM   25  C   UNK N   1      35.831  13.559  12.825  0.00  0.00     0.194 C 
HETATM   26  O   UNK N   1      35.118  13.839  13.774  0.00  0.00    -0.645 OA
BRANCH  25  27
HETATM   27  O   UNK N   1      37.161  13.733  12.948  0.00  0.00    -0.772 OA
HETATM   28  H   UNK N   1      37.708  13.715  12.187  0.00  0.00     0.167 HD
ENDBRANCH  25  27
ENDBRANCH   7  25
TORSDOF 6
ENDMDL
MODEL 5
REMARK VINA RESULT:      -6.6      3.316      4.841
REMARK  6 active torsions:
REMARK  status: ('A' for Active; 'I' for Inactive)
REMARK    1  A    between atoms: O_4  and  C_18 
REMARK    2  A    between atoms: C_10  and  N_7 
REMARK       I    between atoms: N_7  and  C_15 
REMARK    3  A    between atoms: C_16  and  N_8 
REMARK    4  A    between atoms: C_12  and  C_18 
REMARK    5  A    between atoms: C_15  and  C_16 
REMARK    6  A    between atoms: C_16  and  C_19 
ROOT
HETATM    1  S   UNK N   1      34.563  15.369   5.795  0.00  0.00    -0.136 SA
HETATM    2  O   UNK N   1      33.085  18.357   8.654  0.00  0.00    -0.271 OA
HETATM    3  N   UNK N   1      33.622  16.226   8.070  0.00  0.00    -0.293 N 
HETATM    4  C   UNK N   1      33.121  15.692   6.847  0.00  0.00     0.187 A 
HETATM    5  C   UNK N   1      32.370  17.117   6.632  0.00  0.00     0.210 A 
HETATM    6  C   UNK N   1      33.000  17.362   7.957  0.00  0.00     0.251 A 
HETATM    7  C   UNK N   1      34.697  15.752   8.890  0.00  0.00     0.115 C 
HETATM    8  C   UNK N   1      35.136  14.135   7.031  0.00  0.00     0.112 C 
HETATM    9  C   UNK N   1      35.464  14.744   8.378  0.00  0.00    -0.041 C 
HETATM   10  C   UNK N   1      36.663  14.195   9.085  0.00  0.00     0.047 C 
ENDROOT
BRANCH   5  11
HETATM   11  N   UNK N   1      30.938  17.053   6.802  0.00  0.00    -0.343 N 
HETATM   12  C   UNK N   1      30.121  17.168   5.726  0.00  0.00     0.245 C 
HETATM   13  O   UNK N   1      30.592  17.329   4.607  0.00  0.00    -0.271 OA
HETATM   14  H   UNK N   1      30.554  16.926   7.700  0.00  0.00     0.163 HD
BRANCH  12  15
HETATM   15  C   UNK N   1      28.635  17.097   5.897  0.00  0.00     0.197 C 
BRANCH  15  16
HETATM   16  N   UNK N   1      28.097  16.113   4.965  0.00  0.00    -0.415 N 
HETATM   17  H   UNK N   1      27.156  15.733   5.079  0.00  0.00     0.151 HD
HETATM   18  H   UNK N   1      28.671  15.797   4.185  0.00  0.00     0.151 HD
ENDBRANCH  15  16
BRANCH  15  19
HETATM   19  C   UNK N   1      28.027  18.468   5.684  0.00  0.00    -0.049 A 
HETATM   20  C   UNK N   1      27.907  19.386   6.877  0.00  0.00     0.063 A 
HETATM   21  C   UNK N   1      27.336  20.745   6.580  0.00  0.00    -0.026 A 
HETATM   22  C   UNK N   1      26.949  21.118   5.356  0.00  0.00    -0.027 A 
HETATM   23  C   UNK N   1      27.044  20.210   4.162  0.00  0.00     0.054 A 
HETATM   24  C   UNK N   1      27.628  18.857   4.459  0.00  0.00    -0.017 A 
ENDBRANCH  15  19
ENDBRANCH  12  15
ENDBRANCH   5  11
BRANCH   7  25
HETATM   25  C   UNK N   1      35.007  16.411  10.205  0.00  0.00     0.194 C 
HETATM   26  O   UNK N   1      35.657  17.442  10.237  0.00  0.00    -0.645 OA
BRANCH  25  27
HETATM   27  O   UNK N   1      34.567  15.893  11.368  0.00  0.00    -0.772 OA
HETATM   28  H   UNK N   1      34.842  15.036  11.633  0.00  0.00     0.167 HD
ENDBRANCH  25  27
ENDBRANCH   7  25
TORSDOF 6
ENDMDL
MODEL 6
REMARK VINA RESULT:      -6.4     14.706     17.377
REMARK  6 active torsions:
REMARK  status: ('A' for Active; 'I' for Inactive)
REMARK    1  A    between atoms: O_4  and  C_18 
REMARK    2  A    between atoms: C_10  and  N_7 
REMARK       I    between atoms: N_7  and  C_15 
REMARK    3  A    between atoms: C_16  and  N_8 
REMARK    4  A    between atoms: C_12  and  C_18 
REMARK    5  A    between atoms: C_15  and  C_16 
REMARK    6  A    between atoms: C_16  and  C_19 
ROOT
HETATM    1  S   UNK N   1      31.666  21.428  -7.513  0.00  0.00    -0.136 SA
HETATM    2  O   UNK N   1      31.572  23.566  -3.677  0.00  0.00    -0.271 OA
HETATM    3  N   UNK N   1      31.495  21.665  -4.923  0.00  0.00    -0.293 N 
HETATM    4  C   UNK N   1      30.617  21.601  -6.043  0.00  0.00     0.187 A 
HETATM    5  C   UNK N   1      30.152  23.110  -5.656  0.00  0.00     0.210 A 
HETATM    6  C   UNK N   1      31.118  22.852  -4.553  0.00  0.00     0.251 A 
HETATM    7  C   UNK N   1      32.611  20.825  -4.600  0.00  0.00     0.115 C 
HETATM    8  C   UNK N   1      32.244  19.812  -6.858  0.00  0.00     0.112 C 
HETATM    9  C   UNK N   1      33.005  19.930  -5.554  0.00  0.00    -0.041 C 
HETATM   10  C   UNK N   1      34.195  19.038  -5.391  0.00  0.00     0.047 C 
ENDROOT
BRANCH   5  11
HETATM   11  N   UNK N   1      28.822  23.186  -5.103  0.00  0.00    -0.343 N 
HETATM   12  C   UNK N   1      27.816  23.736  -5.827  0.00  0.00     0.245 C 
HETATM   13  O   UNK N   1      28.030  24.173  -6.951  0.00  0.00    -0.271 OA
HETATM   14  H   UNK N   1      28.645  22.839  -4.198  0.00  0.00     0.163 HD
BRANCH  12  15
HETATM   15  C   UNK N   1      26.433  23.813  -5.258  0.00  0.00     0.197 C 
BRANCH  15  16
HETATM   16  N   UNK N   1      25.486  23.301  -6.242  0.00  0.00    -0.415 N 
HETATM   17  H   UNK N   1      24.648  23.826  -6.495  0.00  0.00     0.151 HD
HETATM   18  H   UNK N   1      25.665  22.401  -6.686  0.00  0.00     0.151 HD
ENDBRANCH  15  16
BRANCH  15  19
HETATM   19  C   UNK N   1      26.118  25.241  -4.861  0.00  0.00    -0.049 A 
HETATM   20  C   UNK N   1      25.300  26.079  -5.814  0.00  0.00     0.063 A 
HETATM   21  C   UNK N   1      24.990  27.471  -5.331  0.00  0.00    -0.026 A 
HETATM   22  C   UNK N   1      25.414  27.942  -4.154  0.00  0.00    -0.027 A 
HETATM   23  C   UNK N   1      26.244  27.126  -3.204  0.00  0.00     0.054 A 
HETATM   24  C   UNK N   1      26.541  25.732  -3.682  0.00  0.00    -0.017 A 
ENDBRANCH  15  19
ENDBRANCH  12  15
ENDBRANCH   5  11
BRANCH   7  25
HETATM   25  C   UNK N   1      33.356  21.003  -3.307  0.00  0.00     0.194 C 
HETATM   26  O   UNK N   1      34.571  21.110  -3.308  0.00  0.00    -0.645 OA
BRANCH  25  27
HETATM   27  O   UNK N   1      32.707  21.063  -2.128  0.00  0.00    -0.772 OA
HETATM   28  H   UNK N   1      32.558  20.280  -1.635  0.00  0.00     0.167 HD
ENDBRANCH  25  27
ENDBRANCH   7  25
TORSDOF 6
ENDMDL
MODEL 7
REMARK VINA RESULT:      -6.4      2.696      7.883
REMARK  6 active torsions:
REMARK  status: ('A' for Active; 'I' for Inactive)
REMARK    1  A    between atoms: O_4  and  C_18 
REMARK    2  A    between atoms: C_10  and  N_7 
REMARK       I    between atoms: N_7  and  C_15 
REMARK    3  A    between atoms: C_16  and  N_8 
REMARK    4  A    between atoms: C_12  and  C_18 
REMARK    5  A    between atoms: C_15  and  C_16 
REMARK    6  A    between atoms: C_16  and  C_19 
ROOT
HETATM    1  S   UNK N   1      30.880  17.795   8.935  0.00  0.00    -0.136 SA
HETATM    2  O   UNK N   1      34.225  17.711   6.089  0.00  0.00    -0.271 OA
HETATM    3  N   UNK N   1      32.285  16.881   6.938  0.00  0.00    -0.293 N 
HETATM    4  C   UNK N   1      32.174  16.670   8.343  0.00  0.00     0.187 A 
HETATM    5  C   UNK N   1      33.706  17.200   8.457  0.00  0.00     0.210 A 
HETATM    6  C   UNK N   1      33.526  17.267   6.982  0.00  0.00     0.251 A 
HETATM    7  C   UNK N   1      31.249  16.957   5.951  0.00  0.00     0.115 C 
HETATM    8  C   UNK N   1      29.671  16.886   7.892  0.00  0.00     0.112 C 
HETATM    9  C   UNK N   1      29.962  16.988   6.409  0.00  0.00    -0.041 C 
HETATM   10  C   UNK N   1      28.780  17.138   5.505  0.00  0.00     0.047 C 
ENDROOT
BRANCH   5  11
HETATM   11  N   UNK N   1      34.661  16.162   8.763  0.00  0.00    -0.343 N 
HETATM   12  C   UNK N   1      35.425  16.250   9.880  0.00  0.00     0.245 C 
HETATM   13  O   UNK N   1      35.311  17.209  10.633  0.00  0.00    -0.271 OA
HETATM   14  H   UNK N   1      34.759  15.390   8.159  0.00  0.00     0.163 HD
BRANCH  12  15
HETATM   15  C   UNK N   1      36.414  15.173  10.204  0.00  0.00     0.197 C 
BRANCH  15  16
HETATM   16  N   UNK N   1      36.665  14.384   9.003  0.00  0.00    -0.415 N 
HETATM   17  H   UNK N   1      37.339  13.618   9.003  0.00  0.00     0.151 HD
HETATM   18  H   UNK N   1      36.159  14.603   8.146  0.00  0.00     0.151 HD
ENDBRANCH  15  16
BRANCH  15  19
HETATM   19  C   UNK N   1      35.891  14.319  11.341  0.00  0.00    -0.049 A 
HETATM   20  C   UNK N   1      35.144  13.053  10.994  0.00  0.00     0.063 A 
HETATM   21  C   UNK N   1      34.695  12.236  12.175  0.00  0.00    -0.026 A 
HETATM   22  C   UNK N   1      34.927  12.600  13.440  0.00  0.00    -0.027 A 
HETATM   23  C   UNK N   1      35.652  13.865  13.801  0.00  0.00     0.054 A 
HETATM   24  C   UNK N   1      36.111  14.674  12.620  0.00  0.00    -0.017 A 
ENDBRANCH  15  19
ENDBRANCH  12  15
ENDBRANCH   5  11
BRANCH   7  25
HETATM   25  C   UNK N   1      31.587  17.092   4.493  0.00  0.00     0.194 C 
HETATM   26  O   UNK N   1      31.599  16.109   3.771  0.00  0.00    -0.645 OA
BRANCH  25  27
HETATM   27  O   UNK N   1      31.868  18.292   3.948  0.00  0.00    -0.772 OA
HETATM   28  H   UNK N   1      32.610  18.780   4.248  0.00  0.00     0.167 HD
ENDBRANCH  25  27
ENDBRANCH   7  25
TORSDOF 6
ENDMDL
MODEL 8
REMARK VINA RESULT:      -6.3     19.117     20.536
REMARK  6 active torsions:
REMARK  status: ('A' for Active; 'I' for Inactive)
REMARK    1  A    between atoms: O_4  and  C_18 
REMARK    2  A    between atoms: C_10  and  N_7 
REMARK       I    between atoms: N_7  and  C_15 
REMARK    3  A    between atoms: C_16  and  N_8 
REMARK    4  A    between atoms: C_12  and  C_18 
REMARK    5  A    between atoms: C_15  and  C_16 
REMARK    6  A    between atoms: C_16  and  C_19 
ROOT
HETATM    1  S   UNK N   1      29.190  22.677  -6.026  0.00  0.00    -0.136 SA
HETATM    2  O   UNK N   1      24.803  22.481  -6.128  0.00  0.00    -0.271 OA
HETATM    3  N   UNK N   1      26.827  22.759  -7.126  0.00  0.00    -0.293 N 
HETATM    4  C   UNK N   1      27.765  23.668  -6.557  0.00  0.00     0.187 A 
HETATM    5  C   UNK N   1      26.641  23.987  -5.427  0.00  0.00     0.210 A 
HETATM    6  C   UNK N   1      25.886  23.020  -6.269  0.00  0.00     0.251 A 
HETATM    7  C   UNK N   1      27.047  21.715  -8.082  0.00  0.00     0.115 C 
HETATM    8  C   UNK N   1      29.478  22.228  -7.784  0.00  0.00     0.112 C 
HETATM    9  C   UNK N   1      28.347  21.427  -8.393  0.00  0.00    -0.041 C 
HETATM   10  C   UNK N   1      28.735  20.316  -9.317  0.00  0.00     0.047 C 
ENDROOT
BRANCH   5  11
HETATM   11  N   UNK N   1      26.036  25.290  -5.558  0.00  0.00    -0.343 N 
HETATM   12  C   UNK N   1      25.972  26.120  -4.487  0.00  0.00     0.245 C 
HETATM   13  O   UNK N   1      26.423  25.767  -3.404  0.00  0.00    -0.271 OA
HETATM   14  H   UNK N   1      25.669  25.577  -6.425  0.00  0.00     0.163 HD
BRANCH  12  15
HETATM   15  C   UNK N   1      25.349  27.475  -4.619  0.00  0.00     0.197 C 
BRANCH  15  16
HETATM   16  N   UNK N   1      24.319  27.424  -5.650  0.00  0.00    -0.415 N 
HETATM   17  H   UNK N   1      24.457  27.867  -6.560  0.00  0.00     0.151 HD
HETATM   18  H   UNK N   1      23.444  26.937  -5.460  0.00  0.00     0.151 HD
ENDBRANCH  15  16
BRANCH  15  19
HETATM   19  C   UNK N   1      26.415  28.503  -4.937  0.00  0.00    -0.049 A 
HETATM   20  C   UNK N   1      27.251  28.301  -6.178  0.00  0.00     0.063 A 
HETATM   21  C   UNK N   1      28.258  29.385  -6.451  0.00  0.00    -0.026 A 
HETATM   22  C   UNK N   1      28.416  30.446  -5.653  0.00  0.00    -0.027 A 
HETATM   23  C   UNK N   1      27.606  30.652  -4.405  0.00  0.00     0.054 A 
HETATM   24  C   UNK N   1      26.591  29.574  -4.141  0.00  0.00    -0.017 A 
ENDBRANCH  15  19
ENDBRANCH  12  15
ENDBRANCH   5  11
BRANCH   7  25
HETATM   25  C   UNK N   1      25.894  20.922  -8.632  0.00  0.00     0.194 C 
HETATM   26  O   UNK N   1      25.475  19.949  -8.030  0.00  0.00    -0.645 OA
BRANCH  25  27
HETATM   27  O   UNK N   1      25.291  21.273  -9.784  0.00  0.00    -0.772 OA
HETATM   28  H   UNK N   1      24.375  21.474  -9.792  0.00  0.00     0.167 HD
ENDBRANCH  25  27
ENDBRANCH   7  25
TORSDOF 6
ENDMDL
MODEL 9
REMARK VINA RESULT:      -6.3      2.357      3.066
REMARK  6 active torsions:
REMARK  status: ('A' for Active; 'I' for Inactive)
REMARK    1  A    between atoms: O_4  and  C_18 
REMARK    2  A    between atoms: C_10  and  N_7 
REMARK       I    between atoms: N_7  and  C_15 
REMARK    3  A    between atoms: C_16  and  N_8 
REMARK    4  A    between atoms: C_12  and  C_18 
REMARK    5  A    between atoms: C_15  and  C_16 
REMARK    6  A    between atoms: C_16  and  C_19 
ROOT
HETATM    1  S   UNK N   1      35.929  10.816  12.426  0.00  0.00    -0.136 SA
HETATM    2  O   UNK N   1      36.391  15.141  13.038  0.00  0.00    -0.271 OA
HETATM    3  N   UNK N   1      35.494  13.119  13.567  0.00  0.00    -0.293 N 
HETATM    4  C   UNK N   1      34.921  12.320  12.536  0.00  0.00     0.187 A 
HETATM    5  C   UNK N   1      35.299  13.524  11.511  0.00  0.00     0.210 A 
HETATM    6  C   UNK N   1      35.771  14.123  12.788  0.00  0.00     0.251 A 
HETATM    7  C   UNK N   1      35.900  12.737  14.887  0.00  0.00     0.115 C 
HETATM    8  C   UNK N   1      35.415  10.398  14.140  0.00  0.00     0.112 C 
HETATM    9  C   UNK N   1      35.892  11.400  15.171  0.00  0.00    -0.041 C 
HETATM   10  C   UNK N   1      36.357  10.843  16.479  0.00  0.00     0.047 C 
ENDROOT
BRANCH   5  11
HETATM   11  N   UNK N   1      34.156  14.270  11.041  0.00  0.00    -0.343 N 
HETATM   12  C   UNK N   1      34.275  15.089   9.967  0.00  0.00     0.245 C 
HETATM   13  O   UNK N   1      35.351  15.203   9.393  0.00  0.00    -0.271 OA
HETATM   14  H   UNK N   1      33.290  14.184  11.502  0.00  0.00     0.163 HD
BRANCH  12  15
HETATM   15  C   UNK N   1      33.091  15.862   9.474  0.00  0.00     0.197 C 
BRANCH  15  16
HETATM   16  N   UNK N   1      31.872  15.192   9.914  0.00  0.00    -0.415 N 
HETATM   17  H   UNK N   1      31.038  15.723  10.170  0.00  0.00     0.151 HD
HETATM   18  H   UNK N   1      31.852  14.175   9.966  0.00  0.00     0.151 HD
ENDBRANCH  15  16
BRANCH  15  19
HETATM   19  C   UNK N   1      33.152  15.991   7.966  0.00  0.00    -0.049 A 
HETATM   20  C   UNK N   1      32.816  14.776   7.134  0.00  0.00     0.063 A 
HETATM   21  C   UNK N   1      32.855  14.993   5.646  0.00  0.00    -0.026 A 
HETATM   22  C   UNK N   1      33.173  16.167   5.092  0.00  0.00    -0.027 A 
HETATM   23  C   UNK N   1      33.527  17.380   5.905  0.00  0.00     0.054 A 
HETATM   24  C   UNK N   1      33.475  17.165   7.393  0.00  0.00    -0.017 A 
ENDBRANCH  15  19
ENDBRANCH  12  15
ENDBRANCH   5  11
BRANCH   7  25
HETATM   25  C   UNK N   1      36.399  13.763  15.864  0.00  0.00     0.194 C 
HETATM   26  O   UNK N   1      35.763  14.011  16.875  0.00  0.00    -0.645 OA
BRANCH  25  27
HETATM   27  O   UNK N   1      37.558  14.419  15.659  0.00  0.00    -0.772 OA
HETATM   28  H   UNK N   1      38.336  13.940  15.449  0.00  0.00     0.167 HD
ENDBRANCH  25  27
ENDBRANCH   7  25
TORSDOF 6
ENDMDL
