REMARK  4 active torsions:
REMARK  status: ('A' for Active; 'I' for Inactive)
REMARK    1  A    between atoms: O_3  and  C_31 
REMARK    2  A    between atoms: O_4  and  C_33 
REMARK    3  A    between atoms: O_5  and  C_34 
REMARK    4  A    between atoms: O_6  and  C_44 
ROOT
HETATM    1  O   UNK N   1       4.356   1.773  -0.108  0.00  0.00    -0.307 OA
HETATM    2  O   UNK N   1       6.495  -2.552   1.300  0.00  0.00    -0.305 OA
HETATM    3  N   UNK N   1       7.908   3.581   0.114  0.00  0.00    -0.066 N 
HETATM    4  N   UNK N   1       0.847  -4.799   0.853  0.00  0.00    -0.066 N 
HETATM    5  C   UNK N   1       6.766   3.145  -0.731  0.00  0.00     0.230 C 
HETATM    6  C   UNK N   1       1.663  -3.572   0.719  0.00  0.00     0.227 C 
HETATM    7  C   UNK N   1       7.869   5.036   0.432  0.00  0.00     0.242 C 
HETATM    8  C   UNK N   1       1.008  -5.663  -0.324  0.00  0.00     0.242 C 
HETATM    9  C   UNK N   1       5.454   3.808  -0.298  0.00  0.00     0.016 A 
HETATM   10  C   UNK N   1       6.818   5.860  -0.366  0.00  0.00     0.067 C 
HETATM   11  C   UNK N   1       3.143  -3.911   0.532  0.00  0.00    -0.018 A 
HETATM   12  C   UNK N   1       6.681   1.665  -1.219  0.00  0.00     0.077 C 
HETATM   13  C   UNK N   1       5.484   5.193  -0.225  0.00  0.00    -0.043 A 
HETATM   14  C   UNK N   1       2.464  -6.093  -0.574  0.00  0.00     0.067 C 
HETATM   15  C   UNK N   1       7.928   2.858   1.378  0.00  0.00     0.272 C 
HETATM   16  C   UNK N   1       9.171   3.327  -0.568  0.00  0.00     0.272 C 
HETATM   17  C   UNK N   1       1.160  -2.728  -0.478  0.00  0.00     0.077 C 
HETATM   18  C   UNK N   1       3.501  -5.108  -0.109  0.00  0.00    -0.045 A 
HETATM   19  C   UNK N   1       1.192  -5.527   2.071  0.00  0.00     0.272 C 
HETATM   20  C   UNK N   1      -0.569  -4.460   0.969  0.00  0.00     0.272 C 
HETATM   21  C   UNK N   1       4.261   3.115  -0.070  0.00  0.00     0.121 A 
HETATM   22  C   UNK N   1       7.359   0.487  -0.592  0.00  0.00    -0.053 A 
HETATM   23  C   UNK N   1       4.160  -3.044   0.997  0.00  0.00     0.050 A 
HETATM   24  C   UNK N   1       4.306   5.915  -0.051  0.00  0.00     0.047 A 
HETATM   25  C   UNK N   1       1.854  -1.434  -0.467  0.00  0.00    -0.056 A 
HETATM   26  C   UNK N   1       4.846  -5.424  -0.290  0.00  0.00     0.047 A 
HETATM   27  C   UNK N   1       3.040   3.825   0.106  0.00  0.00     0.136 A 
HETATM   28  C   UNK N   1       5.520  -3.363   0.807  0.00  0.00     0.110 A 
HETATM   29  C   UNK N   1       3.073   5.250   0.074  0.00  0.00     0.104 A 
HETATM   30  C   UNK N   1       5.862  -4.565   0.159  0.00  0.00     0.102 A 
HETATM   31  C   UNK N   1       6.616  -0.462   0.132  0.00  0.00     0.047 A 
HETATM   32  C   UNK N   1       8.678   0.203  -0.945  0.00  0.00     0.010 A 
HETATM   33  C   UNK N   1       2.871  -1.222  -1.388  0.00  0.00     0.010 A 
HETATM   34  C   UNK N   1       1.629  -0.531   0.580  0.00  0.00     0.010 A 
HETATM   35  C   UNK N   1       3.470   0.790  -0.215  0.00  0.00     0.076 A 
HETATM   36  C   UNK N   1       7.207  -1.667   0.552  0.00  0.00     0.110 A 
HETATM   37  C   UNK N   1       3.675  -0.111  -1.256  0.00  0.00     0.038 A 
HETATM   38  C   UNK N   1       2.442   0.587   0.710  0.00  0.00     0.038 A 
HETATM   39  C   UNK N   1       9.274  -0.988  -0.537  0.00  0.00     0.040 A 
HETATM   40  C   UNK N   1       8.551  -1.932   0.215  0.00  0.00     0.102 A 
ENDROOT
BRANCH  27  41
HETATM   41  O   UNK N   1       1.883   3.132   0.248  0.00  0.00    -0.351 OA
HETATM   42  C   UNK N   1       0.611   3.653   0.324  0.00  0.00     0.210 C 
ENDBRANCH  27  41
BRANCH  29  43
HETATM   43  O   UNK N   1       1.916   5.957   0.139  0.00  0.00    -0.353 OA
HETATM   44  C   UNK N   1       1.835   7.304  -0.134  0.00  0.00     0.210 C 
ENDBRANCH  29  43
BRANCH  40  45
HETATM   45  O   UNK N   1       9.128  -3.096   0.603  0.00  0.00    -0.353 OA
HETATM   46  C   UNK N   1      10.394  -3.476   0.213  0.00  0.00     0.210 C 
ENDBRANCH  40  45
BRANCH  30  47
HETATM   47  O   UNK N   1       7.167  -4.892   0.002  0.00  0.00    -0.353 OA
HETATM   48  C   UNK N   1       7.590  -6.054  -0.603  0.00  0.00     0.210 C 
ENDBRANCH  30  47
TORSDOF 4
