MODEL 1
REMARK VINA RESULT:      -8.9      0.000      0.000
REMARK  4 active torsions:
REMARK  status: ('A' for Active; 'I' for Inactive)
REMARK    1  A    between atoms: O_3  and  C_31 
REMARK    2  A    between atoms: O_4  and  C_33 
REMARK    3  A    between atoms: O_5  and  C_34 
REMARK    4  A    between atoms: O_6  and  C_44 
ROOT
HETATM    1  O   UNK N   1      24.184  12.835   1.960  0.00  0.00    -0.307 OA
HETATM    2  O   UNK N   1      22.446  16.987   4.197  0.00  0.00    -0.305 OA
HETATM    3  N   UNK N   1      20.446  11.805   1.010  0.00  0.00    -0.066 N 
HETATM    4  N   UNK N   1      28.317  18.058   5.433  0.00  0.00    -0.066 N 
HETATM    5  C   UNK N   1      21.801  12.201   0.546  0.00  0.00     0.230 C 
HETATM    6  C   UNK N   1      27.380  17.105   4.799  0.00  0.00     0.227 C 
HETATM    7  C   UNK N   1      20.196  10.341   0.882  0.00  0.00     0.242 C 
HETATM    8  C   UNK N   1      28.556  19.214   4.557  0.00  0.00     0.242 C 
HETATM    9  C   UNK N   1      22.868  11.192   0.984  0.00  0.00     0.016 A 
HETATM   10  C   UNK N   1      21.267   9.556   0.071  0.00  0.00     0.067 C 
HETATM   11  C   UNK N   1      26.048  17.778   4.466  0.00  0.00    -0.018 A 
HETATM   12  C   UNK N   1      22.212  13.706   0.544  0.00  0.00     0.077 C 
HETATM   13  C   UNK N   1      22.618   9.873   0.634  0.00  0.00    -0.043 A 
HETATM   14  C   UNK N   1      27.274  19.985   4.197  0.00  0.00     0.067 C 
HETATM   15  C   UNK N   1      20.248  12.160   2.408  0.00  0.00     0.272 C 
HETATM   16  C   UNK N   1      19.422  12.483   0.225  0.00  0.00     0.272 C 
HETATM   17  C   UNK N   1      28.010  16.517   3.512  0.00  0.00     0.077 C 
HETATM   18  C   UNK N   1      26.025  19.148   4.159  0.00  0.00    -0.045 A 
HETATM   19  C   UNK N   1      27.817  18.498   6.732  0.00  0.00     0.272 C 
HETATM   20  C   UNK N   1      29.604  17.416   5.688  0.00  0.00     0.272 C 
HETATM   21  C   UNK N   1      24.068  11.540   1.613  0.00  0.00     0.121 A 
HETATM   22  C   UNK N   1      21.592  14.793   1.365  0.00  0.00    -0.053 A 
HETATM   23  C   UNK N   1      24.835  17.049   4.467  0.00  0.00     0.050 A 
HETATM   24  C   UNK N   1      23.606   8.904   0.788  0.00  0.00     0.047 A 
HETATM   25  C   UNK N   1      27.148  15.437   3.015  0.00  0.00    -0.056 A 
HETATM   26  C   UNK N   1      24.818  19.771   3.848  0.00  0.00     0.047 A 
HETATM   27  C   UNK N   1      25.099  10.573   1.779  0.00  0.00     0.136 A 
HETATM   28  C   UNK N   1      23.616  17.680   4.146  0.00  0.00     0.110 A 
HETATM   29  C   UNK N   1      24.863   9.244   1.319  0.00  0.00     0.104 A 
HETATM   30  C   UNK N   1      23.611  19.053   3.836  0.00  0.00     0.102 A 
HETATM   31  C   UNK N   1      22.284  15.346   2.457  0.00  0.00     0.047 A 
HETATM   32  C   UNK N   1      20.444  15.425   0.888  0.00  0.00     0.010 A 
HETATM   33  C   UNK N   1      26.346  15.687   1.910  0.00  0.00     0.010 A 
HETATM   34  C   UNK N   1      26.995  14.266   3.768  0.00  0.00     0.010 A 
HETATM   35  C   UNK N   1      25.206  13.607   2.307  0.00  0.00     0.076 A 
HETATM   36  C   UNK N   1      21.798  16.495   3.107  0.00  0.00     0.110 A 
HETATM   37  C   UNK N   1      25.377  14.771   1.563  0.00  0.00     0.038 A 
HETATM   38  C   UNK N   1      26.017  13.345   3.415  0.00  0.00     0.038 A 
HETATM   39  C   UNK N   1      19.954  16.565   1.522  0.00  0.00     0.040 A 
HETATM   40  C   UNK N   1      20.620  17.110   2.635  0.00  0.00     0.102 A 
ENDROOT
BRANCH  27  41
HETATM   41  O   UNK N   1      26.283  10.951   2.321  0.00  0.00    -0.351 OA
HETATM   42  C   UNK N   1      27.516  10.930   1.709  0.00  0.00     0.210 C 
ENDBRANCH  27  41
BRANCH  29  43
HETATM   43  O   UNK N   1      25.858   8.322   1.371  0.00  0.00    -0.353 OA
HETATM   44  C   UNK N   1      26.316   7.638   0.267  0.00  0.00     0.210 C 
ENDBRANCH  29  43
BRANCH  40  45
HETATM   45  O   UNK N   1      20.149  18.225   3.245  0.00  0.00    -0.353 OA
HETATM   46  C   UNK N   1      19.187  19.040   2.687  0.00  0.00     0.210 C 
ENDBRANCH  40  45
BRANCH  30  47
HETATM   47  O   UNK N   1      22.438  19.671   3.559  0.00  0.00    -0.353 OA
HETATM   48  C   UNK N   1      22.328  20.731   2.687  0.00  0.00     0.210 C 
ENDBRANCH  30  47
TORSDOF 4
ENDMDL
MODEL 2
REMARK VINA RESULT:      -8.4      2.926      8.943
REMARK  4 active torsions:
REMARK  status: ('A' for Active; 'I' for Inactive)
REMARK    1  A    between atoms: O_3  and  C_31 
REMARK    2  A    between atoms: O_4  and  C_33 
REMARK    3  A    between atoms: O_5  and  C_34 
REMARK    4  A    between atoms: O_6  and  C_44 
ROOT
HETATM    1  O   UNK N   1      28.232  15.820   4.904  0.00  0.00    -0.307 OA
HETATM    2  O   UNK N   1      25.559  12.229   2.620  0.00  0.00    -0.305 OA
HETATM    3  N   UNK N   1      31.539  13.635   4.430  0.00  0.00    -0.066 N 
HETATM    4  N   UNK N   1      20.828  15.932   3.643  0.00  0.00    -0.066 N 
HETATM    5  C   UNK N   1      30.794  14.880   4.109  0.00  0.00     0.230 C 
HETATM    6  C   UNK N   1      22.285  15.767   3.838  0.00  0.00     0.227 C 
HETATM    7  C   UNK N   1      32.599  13.844   5.456  0.00  0.00     0.242 C 
HETATM    8  C   UNK N   1      20.530  16.353   2.267  0.00  0.00     0.242 C 
HETATM    9  C   UNK N   1      30.503  15.707   5.366  0.00  0.00     0.016 A 
HETATM   10  C   UNK N   1      32.899  15.331   5.804  0.00  0.00     0.067 C 
HETATM   11  C   UNK N   1      22.862  14.747   2.855  0.00  0.00    -0.018 A 
HETATM   12  C   UNK N   1      29.691  14.863   3.005  0.00  0.00     0.077 C 
HETATM   13  C   UNK N   1      31.608  16.008   6.148  0.00  0.00    -0.043 A 
HETATM   14  C   UNK N   1      21.038  15.367   1.201  0.00  0.00     0.067 C 
HETATM   15  C   UNK N   1      30.641  12.605   4.934  0.00  0.00     0.272 C 
HETATM   16  C   UNK N   1      32.196  13.114   3.238  0.00  0.00     0.272 C 
HETATM   17  C   UNK N   1      23.001  17.130   3.665  0.00  0.00     0.077 C 
HETATM   18  C   UNK N   1      22.265  14.590   1.593  0.00  0.00    -0.045 A 
HETATM   19  C   UNK N   1      20.113  14.700   3.964  0.00  0.00     0.272 C 
HETATM   20  C   UNK N   1      20.304  16.953   4.546  0.00  0.00     0.272 C 
HETATM   21  C   UNK N   1      29.245  16.221   5.694  0.00  0.00     0.121 A 
HETATM   22  C   UNK N   1      28.951  13.658   2.513  0.00  0.00    -0.053 A 
HETATM   23  C   UNK N   1      23.983  13.953   3.193  0.00  0.00     0.050 A 
HETATM   24  C   UNK N   1      31.504  16.925   7.191  0.00  0.00     0.047 A 
HETATM   25  C   UNK N   1      24.409  16.975   4.054  0.00  0.00    -0.056 A 
HETATM   26  C   UNK N   1      22.785  13.668   0.688  0.00  0.00     0.047 A 
HETATM   27  C   UNK N   1      29.107  17.164   6.752  0.00  0.00     0.136 A 
HETATM   28  C   UNK N   1      24.512  13.026   2.272  0.00  0.00     0.110 A 
HETATM   29  C   UNK N   1      30.274  17.542   7.479  0.00  0.00     0.104 A 
HETATM   30  C   UNK N   1      23.904  12.883   1.011  0.00  0.00     0.102 A 
HETATM   31  C   UNK N   1      27.601  13.461   2.855  0.00  0.00     0.047 A 
HETATM   32  C   UNK N   1      29.528  12.875   1.514  0.00  0.00     0.010 A 
HETATM   33  C   UNK N   1      25.368  16.909   3.053  0.00  0.00     0.010 A 
HETATM   34  C   UNK N   1      24.736  16.694   5.387  0.00  0.00     0.010 A 
HETATM   35  C   UNK N   1      26.995  16.257   4.699  0.00  0.00     0.076 A 
HETATM   36  C   UNK N   1      26.847  12.446   2.240  0.00  0.00     0.110 A 
HETATM   37  C   UNK N   1      26.656  16.548   3.381  0.00  0.00     0.038 A 
HETATM   38  C   UNK N   1      26.036  16.331   5.713  0.00  0.00     0.038 A 
HETATM   39  C   UNK N   1      28.790  11.868   0.896  0.00  0.00     0.040 A 
HETATM   40  C   UNK N   1      27.448  11.640   1.251  0.00  0.00     0.102 A 
ENDROOT
BRANCH  27  41
HETATM   41  O   UNK N   1      27.891  17.709   7.003  0.00  0.00    -0.351 OA
HETATM   42  C   UNK N   1      27.527  19.027   6.846  0.00  0.00     0.210 C 
ENDBRANCH  27  41
BRANCH  29  43
HETATM   43  O   UNK N   1      30.198  18.511   8.428  0.00  0.00    -0.353 OA
HETATM   44  C   UNK N   1      29.764  18.279   9.714  0.00  0.00     0.210 C 
ENDBRANCH  29  43
BRANCH  40  45
HETATM   45  O   UNK N   1      26.727  10.666   0.643  0.00  0.00    -0.353 OA
HETATM   46  C   UNK N   1      26.836   9.332   0.970  0.00  0.00     0.210 C 
ENDBRANCH  40  45
BRANCH  30  47
HETATM   47  O   UNK N   1      24.388  11.971   0.135  0.00  0.00    -0.353 OA
HETATM   48  C   UNK N   1      23.604  11.023  -0.483  0.00  0.00     0.210 C 
ENDBRANCH  30  47
TORSDOF 4
ENDMDL
MODEL 3
REMARK VINA RESULT:      -7.9     13.486     18.012
REMARK  4 active torsions:
REMARK  status: ('A' for Active; 'I' for Inactive)
REMARK    1  A    between atoms: O_3  and  C_31 
REMARK    2  A    between atoms: O_4  and  C_33 
REMARK    3  A    between atoms: O_5  and  C_34 
REMARK    4  A    between atoms: O_6  and  C_44 
ROOT
HETATM    1  O   UNK N   1      34.879  11.394  12.526  0.00  0.00    -0.307 OA
HETATM    2  O   UNK N   1      36.368   6.800  13.921  0.00  0.00    -0.305 OA
HETATM    3  N   UNK N   1      34.635  10.146   8.742  0.00  0.00    -0.066 N 
HETATM    4  N   UNK N   1      36.620   9.230  19.505  0.00  0.00    -0.066 N 
HETATM    5  C   UNK N   1      33.936  10.665   9.945  0.00  0.00     0.230 C 
HETATM    6  C   UNK N   1      36.324   9.519  18.084  0.00  0.00     0.227 C 
HETATM    7  C   UNK N   1      34.855  11.193   7.705  0.00  0.00     0.242 C 
HETATM    8  C   UNK N   1      35.495   8.530  20.139  0.00  0.00     0.242 C 
HETATM    9  C   UNK N   1      34.446  12.054  10.344  0.00  0.00     0.016 A 
HETATM   10  C   UNK N   1      34.107  12.534   7.950  0.00  0.00     0.067 C 
HETATM   11  C   UNK N   1      36.020   8.234  17.311  0.00  0.00    -0.018 A 
HETATM   12  C   UNK N   1      33.560   9.691  11.106  0.00  0.00     0.077 C 
HETATM   13  C   UNK N   1      34.421  13.007   9.337  0.00  0.00    -0.043 A 
HETATM   14  C   UNK N   1      35.136   7.199  19.455  0.00  0.00     0.067 C 
HETATM   15  C   UNK N   1      35.938   9.596   9.091  0.00  0.00     0.272 C 
HETATM   16  C   UNK N   1      33.854   9.085   8.118  0.00  0.00     0.272 C 
HETATM   17  C   UNK N   1      35.126  10.494  17.979  0.00  0.00     0.077 C 
HETATM   18  C   UNK N   1      35.431   7.149  17.981  0.00  0.00    -0.045 A 
HETATM   19  C   UNK N   1      37.846   8.447  19.637  0.00  0.00     0.272 C 
HETATM   20  C   UNK N   1      36.848  10.470  20.242  0.00  0.00     0.272 C 
HETATM   21  C   UNK N   1      34.834  12.406  11.640  0.00  0.00     0.121 A 
HETATM   22  C   UNK N   1      34.199   8.368  11.391  0.00  0.00    -0.053 A 
HETATM   23  C   UNK N   1      36.325   8.115  15.935  0.00  0.00     0.050 A 
HETATM   24  C   UNK N   1      34.657  14.348   9.630  0.00  0.00     0.047 A 
HETATM   25  C   UNK N   1      34.982  10.914  16.579  0.00  0.00    -0.056 A 
HETATM   26  C   UNK N   1      35.144   5.976  17.285  0.00  0.00     0.047 A 
HETATM   27  C   UNK N   1      35.078  13.769  11.972  0.00  0.00     0.136 A 
HETATM   28  C   UNK N   1      36.028   6.930  15.232  0.00  0.00     0.110 A 
HETATM   29  C   UNK N   1      34.945  14.751  10.946  0.00  0.00     0.104 A 
HETATM   30  C   UNK N   1      35.433   5.853  15.917  0.00  0.00     0.102 A 
HETATM   31  C   UNK N   1      35.054   8.211  12.496  0.00  0.00     0.047 A 
HETATM   32  C   UNK N   1      33.741   7.239  10.711  0.00  0.00     0.010 A 
HETATM   33  C   UNK N   1      33.955  10.361  15.826  0.00  0.00     0.010 A 
HETATM   34  C   UNK N   1      35.982  11.689  15.977  0.00  0.00     0.010 A 
HETATM   35  C   UNK N   1      34.925  11.331  13.851  0.00  0.00     0.076 A 
HETATM   36  C   UNK N   1      35.497   6.934  12.886  0.00  0.00     0.110 A 
HETATM   37  C   UNK N   1      33.933  10.571  14.465  0.00  0.00     0.038 A 
HETATM   38  C   UNK N   1      35.956  11.898  14.605  0.00  0.00     0.038 A 
HETATM   39  C   UNK N   1      34.170   5.969  11.088  0.00  0.00     0.040 A 
HETATM   40  C   UNK N   1      35.051   5.801  12.173  0.00  0.00     0.102 A 
ENDROOT
BRANCH  27  41
HETATM   41  O   UNK N   1      35.377  14.098  13.253  0.00  0.00    -0.351 OA
HETATM   42  C   UNK N   1      36.452  14.841  13.686  0.00  0.00     0.210 C 
ENDBRANCH  27  41
BRANCH  29  43
HETATM   43  O   UNK N   1      35.072  16.068  11.248  0.00  0.00    -0.353 OA
HETATM   44  C   UNK N   1      35.247  17.049  10.298  0.00  0.00     0.210 C 
ENDBRANCH  29  43
BRANCH  40  45
HETATM   45  O   UNK N   1      35.461   4.564  12.546  0.00  0.00    -0.353 OA
HETATM   46  C   UNK N   1      35.050   3.411  11.913  0.00  0.00     0.210 C 
ENDBRANCH  40  45
BRANCH  30  47
HETATM   47  O   UNK N   1      35.175   4.700  15.254  0.00  0.00    -0.353 OA
HETATM   48  C   UNK N   1      34.215   3.796  15.651  0.00  0.00     0.210 C 
ENDBRANCH  30  47
TORSDOF 4
ENDMDL
MODEL 4
REMARK VINA RESULT:      -7.8      4.568      7.796
REMARK  4 active torsions:
REMARK  status: ('A' for Active; 'I' for Inactive)
REMARK    1  A    between atoms: O_3  and  C_31 
REMARK    2  A    between atoms: O_4  and  C_33 
REMARK    3  A    between atoms: O_5  and  C_34 
REMARK    4  A    between atoms: O_6  and  C_44 
ROOT
HETATM    1  O   UNK N   1      28.132  14.056   3.452  0.00  0.00    -0.307 OA
HETATM    2  O   UNK N   1      30.764  15.730   7.394  0.00  0.00    -0.305 OA
HETATM    3  N   UNK N   1      25.001  16.226   4.645  0.00  0.00    -0.066 N 
HETATM    4  N   UNK N   1      35.207  12.204   5.164  0.00  0.00    -0.066 N 
HETATM    5  C   UNK N   1      26.041  15.974   3.614  0.00  0.00     0.230 C 
HETATM    6  C   UNK N   1      33.809  12.643   4.960  0.00  0.00     0.227 C 
HETATM    7  C   UNK N   1      23.665  15.690   4.260  0.00  0.00     0.242 C 
HETATM    8  C   UNK N   1      36.150  13.235   4.712  0.00  0.00     0.242 C 
HETATM    9  C   UNK N   1      25.913  14.572   3.010  0.00  0.00     0.016 A 
HETATM   10  C   UNK N   1      23.543  15.211   2.785  0.00  0.00     0.067 C 
HETATM   11  C   UNK N   1      33.529  13.953   5.700  0.00  0.00    -0.018 A 
HETATM   12  C   UNK N   1      27.486  16.526   3.818  0.00  0.00     0.077 C 
HETATM   13  C   UNK N   1      24.662  14.255   2.503  0.00  0.00    -0.043 A 
HETATM   14  C   UNK N   1      35.973  14.585   5.430  0.00  0.00     0.067 C 
HETATM   15  C   UNK N   1      25.367  15.616   5.915  0.00  0.00     0.272 C 
HETATM   16  C   UNK N   1      24.839  17.658   4.865  0.00  0.00     0.272 C 
HETATM   17  C   UNK N   1      33.525  12.821   3.448  0.00  0.00     0.077 C 
HETATM   18  C   UNK N   1      34.571  14.874   5.891  0.00  0.00    -0.045 A 
HETATM   19  C   UNK N   1      35.451  11.869   6.565  0.00  0.00     0.272 C 
HETATM   20  C   UNK N   1      35.476  10.987   4.403  0.00  0.00     0.272 C 
HETATM   21  C   UNK N   1      26.978  13.675   2.874  0.00  0.00     0.121 A 
HETATM   22  C   UNK N   1      28.112  16.904   5.124  0.00  0.00    -0.053 A 
HETATM   23  C   UNK N   1      32.239  14.252   6.200  0.00  0.00     0.050 A 
HETATM   24  C   UNK N   1      24.480  13.101   1.745  0.00  0.00     0.047 A 
HETATM   25  C   UNK N   1      32.088  13.064   3.264  0.00  0.00    -0.056 A 
HETATM   26  C   UNK N   1      34.325  16.072   6.559  0.00  0.00     0.047 A 
HETATM   27  C   UNK N   1      26.824  12.490   2.101  0.00  0.00     0.136 A 
HETATM   28  C   UNK N   1      31.992  15.468   6.870  0.00  0.00     0.110 A 
HETATM   29  C   UNK N   1      25.558  12.231   1.500  0.00  0.00     0.104 A 
HETATM   30  C   UNK N   1      33.047  16.382   7.050  0.00  0.00     0.102 A 
HETATM   31  C   UNK N   1      29.111  16.097   5.697  0.00  0.00     0.047 A 
HETATM   32  C   UNK N   1      27.885  18.182   5.634  0.00  0.00     0.010 A 
HETATM   33  C   UNK N   1      31.668  14.358   2.986  0.00  0.00     0.010 A 
HETATM   34  C   UNK N   1      31.165  12.056   3.570  0.00  0.00     0.010 A 
HETATM   35  C   UNK N   1      29.394  13.660   3.337  0.00  0.00     0.076 A 
HETATM   36  C   UNK N   1      29.840  16.542   6.813  0.00  0.00     0.110 A 
HETATM   37  C   UNK N   1      30.322  14.649   3.025  0.00  0.00     0.038 A 
HETATM   38  C   UNK N   1      29.810  12.354   3.610  0.00  0.00     0.038 A 
HETATM   39  C   UNK N   1      28.603  18.636   6.738  0.00  0.00     0.040 A 
HETATM   40  C   UNK N   1      29.582  17.825   7.341  0.00  0.00     0.102 A 
ENDROOT
BRANCH  27  41
HETATM   41  O   UNK N   1      27.891  11.673   1.919  0.00  0.00    -0.351 OA
HETATM   42  C   UNK N   1      28.459  11.309   0.718  0.00  0.00     0.210 C 
ENDBRANCH  27  41
BRANCH  29  43
HETATM   43  O   UNK N   1      25.404  11.163   0.675  0.00  0.00    -0.353 OA
HETATM   44  C   UNK N   1      24.179  10.721   0.229  0.00  0.00     0.210 C 
ENDBRANCH  29  43
BRANCH  40  45
HETATM   45  O   UNK N   1      30.288  18.271   8.409  0.00  0.00    -0.353 OA
HETATM   46  C   UNK N   1      29.705  18.601   9.613  0.00  0.00     0.210 C 
ENDBRANCH  40  45
BRANCH  30  47
HETATM   47  O   UNK N   1      32.822  17.538   7.720  0.00  0.00    -0.353 OA
HETATM   48  C   UNK N   1      33.828  18.376   8.144  0.00  0.00     0.210 C 
ENDBRANCH  30  47
TORSDOF 4
ENDMDL
MODEL 5
REMARK VINA RESULT:      -7.8      7.035     11.873
REMARK  4 active torsions:
REMARK  status: ('A' for Active; 'I' for Inactive)
REMARK    1  A    between atoms: O_3  and  C_31 
REMARK    2  A    between atoms: O_4  and  C_33 
REMARK    3  A    between atoms: O_5  and  C_34 
REMARK    4  A    between atoms: O_6  and  C_44 
ROOT
HETATM    1  O   UNK N   1      35.058  14.009   7.027  0.00  0.00    -0.307 OA
HETATM    2  O   UNK N   1      30.892  13.565   4.251  0.00  0.00    -0.305 OA
HETATM    3  N   UNK N   1      36.865  11.302   4.716  0.00  0.00    -0.066 N 
HETATM    4  N   UNK N   1      28.601  17.691   8.107  0.00  0.00    -0.066 N 
HETATM    5  C   UNK N   1      36.808  12.703   5.207  0.00  0.00     0.230 C 
HETATM    6  C   UNK N   1      29.800  16.887   7.786  0.00  0.00     0.227 C 
HETATM    7  C   UNK N   1      37.931  10.500   5.380  0.00  0.00     0.242 C 
HETATM    8  C   UNK N   1      28.494  18.849   7.209  0.00  0.00     0.242 C 
HETATM    9  C   UNK N   1      37.003  12.781   6.725  0.00  0.00     0.016 A 
HETATM   10  C   UNK N   1      38.929  11.317   6.250  0.00  0.00     0.067 C 
HETATM   11  C   UNK N   1      29.771  16.407   6.334  0.00  0.00    -0.018 A 
HETATM   12  C   UNK N   1      35.795  13.707   4.574  0.00  0.00     0.077 C 
HETATM   13  C   UNK N   1      38.144  12.158   7.210  0.00  0.00    -0.043 A 
HETATM   14  C   UNK N   1      28.417  18.465   5.721  0.00  0.00     0.067 C 
HETATM   15  C   UNK N   1      35.600  10.617   4.942  0.00  0.00     0.272 C 
HETATM   16  C   UNK N   1      37.140  11.275   3.285  0.00  0.00     0.272 C 
HETATM   17  C   UNK N   1      31.081  17.719   8.041  0.00  0.00     0.077 C 
HETATM   18  C   UNK N   1      29.125  17.188   5.362  0.00  0.00    -0.045 A 
HETATM   19  C   UNK N   1      27.390  16.878   8.036  0.00  0.00     0.272 C 
HETATM   20  C   UNK N   1      28.674  18.193   9.477  0.00  0.00     0.272 C 
HETATM   21  C   UNK N   1      36.167  13.494   7.590  0.00  0.00     0.121 A 
HETATM   22  C   UNK N   1      34.544  13.352   3.832  0.00  0.00    -0.053 A 
HETATM   23  C   UNK N   1      30.377  15.187   5.951  0.00  0.00     0.050 A 
HETATM   24  C   UNK N   1      38.539  12.341   8.533  0.00  0.00     0.047 A 
HETATM   25  C   UNK N   1      32.249  16.840   7.904  0.00  0.00    -0.056 A 
HETATM   26  C   UNK N   1      29.097  16.763   4.035  0.00  0.00     0.047 A 
HETATM   27  C   UNK N   1      36.546  13.702   8.946  0.00  0.00     0.136 A 
HETATM   28  C   UNK N   1      30.352  14.762   4.607  0.00  0.00     0.110 A 
HETATM   29  C   UNK N   1      37.775  13.142   9.401  0.00  0.00     0.104 A 
HETATM   30  C   UNK N   1      29.705  15.559   3.644  0.00  0.00     0.102 A 
HETATM   31  C   UNK N   1      33.283  13.560   4.418  0.00  0.00     0.047 A 
HETATM   32  C   UNK N   1      34.630  13.059   2.471  0.00  0.00     0.010 A 
HETATM   33  C   UNK N   1      33.017  16.936   6.751  0.00  0.00     0.010 A 
HETATM   34  C   UNK N   1      32.449  15.799   8.819  0.00  0.00     0.010 A 
HETATM   35  C   UNK N   1      34.183  14.935   7.399  0.00  0.00     0.076 A 
HETATM   36  C   UNK N   1      32.108  13.417   3.660  0.00  0.00     0.110 A 
HETATM   37  C   UNK N   1      33.979  15.982   6.503  0.00  0.00     0.038 A 
HETATM   38  C   UNK N   1      33.420  14.838   8.566  0.00  0.00     0.038 A 
HETATM   39  C   UNK N   1      33.473  12.918   1.709  0.00  0.00     0.040 A 
HETATM   40  C   UNK N   1      32.204  13.091   2.290  0.00  0.00     0.102 A 
ENDROOT
BRANCH  27  41
HETATM   41  O   UNK N   1      35.758  14.463   9.747  0.00  0.00    -0.351 OA
HETATM   42  C   UNK N   1      36.121  15.610  10.416  0.00  0.00     0.210 C 
ENDBRANCH  27  41
BRANCH  29  43
HETATM   43  O   UNK N   1      38.216  13.403  10.659  0.00  0.00    -0.353 OA
HETATM   44  C   UNK N   1      37.873  12.644  11.754  0.00  0.00     0.210 C 
ENDBRANCH  29  43
BRANCH  40  45
HETATM   45  O   UNK N   1      31.078  12.964   1.546  0.00  0.00    -0.353 OA
HETATM   46  C   UNK N   1      30.666  11.767   1.001  0.00  0.00     0.210 C 
ENDBRANCH  40  45
BRANCH  30  47
HETATM   47  O   UNK N   1      29.651  15.141   2.357  0.00  0.00    -0.353 OA
HETATM   48  C   UNK N   1      28.479  14.802   1.718  0.00  0.00     0.210 C 
ENDBRANCH  30  47
TORSDOF 4
ENDMDL
MODEL 6
REMARK VINA RESULT:      -7.7     12.598     15.889
REMARK  4 active torsions:
REMARK  status: ('A' for Active; 'I' for Inactive)
REMARK    1  A    between atoms: O_3  and  C_31 
REMARK    2  A    between atoms: O_4  and  C_33 
REMARK    3  A    between atoms: O_5  and  C_34 
REMARK    4  A    between atoms: O_6  and  C_44 
ROOT
HETATM    1  O   UNK N   1      29.852  25.924  -4.594  0.00  0.00    -0.307 OA
HETATM    2  O   UNK N   1      29.533  22.461  -8.223  0.00  0.00    -0.305 OA
HETATM    3  N   UNK N   1      26.047  26.937  -5.250  0.00  0.00    -0.066 N 
HETATM    4  N   UNK N   1      35.366  21.348  -6.851  0.00  0.00    -0.066 N 
HETATM    5  C   UNK N   1      27.059  26.373  -4.320  0.00  0.00     0.230 C 
HETATM    6  C   UNK N   1      34.198  22.195  -6.522  0.00  0.00     0.227 C 
HETATM    7  C   UNK N   1      25.695  28.350  -4.934  0.00  0.00     0.242 C 
HETATM    8  C   UNK N   1      35.236  20.019  -6.239  0.00  0.00     0.242 C 
HETATM    9  C   UNK N   1      28.158  27.389  -3.991  0.00  0.00     0.016 A 
HETATM   10  C   UNK N   1      26.238  28.878  -3.575  0.00  0.00     0.067 C 
HETATM   11  C   UNK N   1      32.895  21.542  -6.988  0.00  0.00    -0.018 A 
HETATM   12  C   UNK N   1      27.497  24.881  -4.460  0.00  0.00     0.077 C 
HETATM   13  C   UNK N   1      27.711  28.614  -3.515  0.00  0.00    -0.043 A 
HETATM   14  C   UNK N   1      33.970  19.263  -6.680  0.00  0.00     0.067 C 
HETATM   15  C   UNK N   1      26.527  26.904  -6.625  0.00  0.00     0.272 C 
HETATM   16  C   UNK N   1      24.813  26.165  -5.188  0.00  0.00     0.272 C 
HETATM   17  C   UNK N   1      34.141  22.452  -4.996  0.00  0.00     0.077 C 
HETATM   18  C   UNK N   1      32.802  20.142  -7.033  0.00  0.00    -0.045 A 
HETATM   19  C   UNK N   1      35.537  21.230  -8.296  0.00  0.00     0.272 C 
HETATM   20  C   UNK N   1      36.594  21.956  -6.344  0.00  0.00     0.272 C 
HETATM   21  C   UNK N   1      29.527  27.118  -4.064  0.00  0.00     0.121 A 
HETATM   22  C   UNK N   1      27.374  24.035  -5.688  0.00  0.00    -0.053 A 
HETATM   23  C   UNK N   1      31.782  22.323  -7.382  0.00  0.00     0.050 A 
HETATM   24  C   UNK N   1      28.611  29.535  -2.986  0.00  0.00     0.047 A 
HETATM   25  C   UNK N   1      33.096  23.447  -4.724  0.00  0.00    -0.056 A 
HETATM   26  C   UNK N   1      31.618  19.537  -7.451  0.00  0.00     0.047 A 
HETATM   27  C   UNK N   1      30.472  28.037  -3.527  0.00  0.00     0.136 A 
HETATM   28  C   UNK N   1      30.583  21.708  -7.798  0.00  0.00     0.110 A 
HETATM   29  C   UNK N   1      29.987  29.246  -2.946  0.00  0.00     0.104 A 
HETATM   30  C   UNK N   1      30.505  20.303  -7.833  0.00  0.00     0.102 A 
HETATM   31  C   UNK N   1      28.515  23.693  -6.437  0.00  0.00     0.047 A 
HETATM   32  C   UNK N   1      26.168  23.382  -5.938  0.00  0.00     0.010 A 
HETATM   33  C   UNK N   1      31.891  23.009  -4.190  0.00  0.00     0.010 A 
HETATM   34  C   UNK N   1      33.245  24.760  -5.188  0.00  0.00     0.010 A 
HETATM   35  C   UNK N   1      30.957  25.188  -4.597  0.00  0.00     0.076 A 
HETATM   36  C   UNK N   1      28.436  22.743  -7.470  0.00  0.00     0.110 A 
HETATM   37  C   UNK N   1      30.827  23.883  -4.131  0.00  0.00     0.038 A 
HETATM   38  C   UNK N   1      32.170  25.637  -5.127  0.00  0.00     0.038 A 
HETATM   39  C   UNK N   1      26.078  22.437  -6.957  0.00  0.00     0.040 A 
HETATM   40  C   UNK N   1      27.204  22.109  -7.734  0.00  0.00     0.102 A 
ENDROOT
BRANCH  27  41
HETATM   41  O   UNK N   1      31.790  27.718  -3.538  0.00  0.00    -0.351 OA
HETATM   42  C   UNK N   1      32.818  28.469  -4.062  0.00  0.00     0.210 C 
ENDBRANCH  27  41
BRANCH  29  43
HETATM   43  O   UNK N   1      30.850  30.099  -2.337  0.00  0.00    -0.353 OA
HETATM   44  C   UNK N   1      30.453  31.062  -1.437  0.00  0.00     0.210 C 
ENDBRANCH  29  43
BRANCH  40  45
HETATM   45  O   UNK N   1      27.119  21.181  -8.718  0.00  0.00    -0.353 OA
HETATM   46  C   UNK N   1      26.291  21.317  -9.812  0.00  0.00     0.210 C 
ENDBRANCH  40  45
BRANCH  30  47
HETATM   47  O   UNK N   1      29.367  19.708  -8.262  0.00  0.00    -0.353 OA
HETATM   48  C   UNK N   1      28.938  18.480  -7.813  0.00  0.00     0.210 C 
ENDBRANCH  30  47
TORSDOF 4
ENDMDL
MODEL 7
REMARK VINA RESULT:      -7.7      3.593      8.629
REMARK  4 active torsions:
REMARK  status: ('A' for Active; 'I' for Inactive)
REMARK    1  A    between atoms: O_3  and  C_31 
REMARK    2  A    between atoms: O_4  and  C_33 
REMARK    3  A    between atoms: O_5  and  C_34 
REMARK    4  A    between atoms: O_6  and  C_44 
ROOT
HETATM    1  O   UNK N   1      30.531  13.959   4.065  0.00  0.00    -0.307 OA
HETATM    2  O   UNK N   1      26.703  17.189   3.655  0.00  0.00    -0.305 OA
HETATM    3  N   UNK N   1      32.714  16.797   5.829  0.00  0.00    -0.066 N 
HETATM    4  N   UNK N   1      23.837  12.526   0.974  0.00  0.00    -0.066 N 
HETATM    5  C   UNK N   1      32.043  15.475   5.934  0.00  0.00     0.230 C 
HETATM    6  C   UNK N   1      25.110  12.953   1.595  0.00  0.00     0.227 C 
HETATM    7  C   UNK N   1      34.187  16.684   5.641  0.00  0.00     0.242 C 
HETATM    8  C   UNK N   1      22.833  12.217   2.001  0.00  0.00     0.242 C 
HETATM    9  C   UNK N   1      32.621  14.466   4.936  0.00  0.00     0.016 A 
HETATM   10  C   UNK N   1      34.773  15.257   5.841  0.00  0.00     0.067 C 
HETATM   11  C   UNK N   1      24.904  14.175   2.491  0.00  0.00    -0.018 A 
HETATM   12  C   UNK N   1      30.508  15.402   6.202  0.00  0.00     0.077 C 
HETATM   13  C   UNK N   1      33.998  14.301   4.987  0.00  0.00    -0.043 A 
HETATM   14  C   UNK N   1      22.526  13.403   2.933  0.00  0.00     0.067 C 
HETATM   15  C   UNK N   1      32.187  17.563   4.708  0.00  0.00     0.272 C 
HETATM   16  C   UNK N   1      32.497  17.574   7.044  0.00  0.00     0.272 C 
HETATM   17  C   UNK N   1      25.715  11.790   2.419  0.00  0.00     0.077 C 
HETATM   18  C   UNK N   1      23.671  14.356   3.138  0.00  0.00    -0.045 A 
HETATM   19  C   UNK N   1      23.332  13.546   0.058  0.00  0.00     0.272 C 
HETATM   20  C   UNK N   1      24.039  11.323   0.170  0.00  0.00     0.272 C 
HETATM   21  C   UNK N   1      31.848  13.677   4.079  0.00  0.00     0.121 A 
HETATM   22  C   UNK N   1      29.510  16.484   5.931  0.00  0.00    -0.053 A 
HETATM   23  C   UNK N   1      25.931  15.131   2.678  0.00  0.00     0.050 A 
HETATM   24  C   UNK N   1      34.610  13.267   4.284  0.00  0.00     0.047 A 
HETATM   25  C   UNK N   1      27.062  12.174   2.858  0.00  0.00    -0.056 A 
HETATM   26  C   UNK N   1      23.475  15.463   3.962  0.00  0.00     0.047 A 
HETATM   27  C   UNK N   1      32.444  12.609   3.351  0.00  0.00     0.136 A 
HETATM   28  C   UNK N   1      25.732  16.246   3.517  0.00  0.00     0.110 A 
HETATM   29  C   UNK N   1      33.845  12.388   3.496  0.00  0.00     0.104 A 
HETATM   30  C   UNK N   1      24.491  16.411   4.162  0.00  0.00     0.102 A 
HETATM   31  C   UNK N   1      28.603  16.368   4.863  0.00  0.00     0.047 A 
HETATM   32  C   UNK N   1      29.318  17.478   6.891  0.00  0.00     0.010 A 
HETATM   33  C   UNK N   1      27.244  12.546   4.183  0.00  0.00     0.010 A 
HETATM   34  C   UNK N   1      28.079  12.357   1.911  0.00  0.00     0.010 A 
HETATM   35  C   UNK N   1      29.456  13.312   3.631  0.00  0.00     0.076 A 
HETATM   36  C   UNK N   1      27.540  17.278   4.723  0.00  0.00     0.110 A 
HETATM   37  C   UNK N   1      28.441  13.115   4.563  0.00  0.00     0.038 A 
HETATM   38  C   UNK N   1      29.283  12.931   2.298  0.00  0.00     0.038 A 
HETATM   39  C   UNK N   1      28.267  18.383   6.764  0.00  0.00     0.040 A 
HETATM   40  C   UNK N   1      27.371  18.297   5.683  0.00  0.00     0.102 A 
ENDROOT
BRANCH  27  41
HETATM   41  O   UNK N   1      31.662  11.808   2.585  0.00  0.00    -0.351 OA
HETATM   42  C   UNK N   1      31.506  10.446   2.705  0.00  0.00     0.210 C 
ENDBRANCH  27  41
BRANCH  29  43
HETATM   43  O   UNK N   1      34.429  11.320   2.896  0.00  0.00    -0.353 OA
HETATM   44  C   UNK N   1      35.489  11.427   2.024  0.00  0.00     0.210 C 
ENDBRANCH  29  43
BRANCH  40  45
HETATM   45  O   UNK N   1      26.342  19.172   5.566  0.00  0.00    -0.353 OA
HETATM   46  C   UNK N   1      26.489  20.533   5.722  0.00  0.00     0.210 C 
ENDBRANCH  40  45
BRANCH  30  47
HETATM   47  O   UNK N   1      24.283  17.497   4.944  0.00  0.00    -0.353 OA
HETATM   48  C   UNK N   1      23.032  17.938   5.312  0.00  0.00     0.210 C 
ENDBRANCH  30  47
TORSDOF 4
ENDMDL
MODEL 8
REMARK VINA RESULT:      -7.7      2.198      7.848
REMARK  4 active torsions:
REMARK  status: ('A' for Active; 'I' for Inactive)
REMARK    1  A    between atoms: O_3  and  C_31 
REMARK    2  A    between atoms: O_4  and  C_33 
REMARK    3  A    between atoms: O_5  and  C_34 
REMARK    4  A    between atoms: O_6  and  C_44 
ROOT
HETATM    1  O   UNK N   1      26.552  14.543   3.536  0.00  0.00    -0.307 OA
HETATM    2  O   UNK N   1      22.451  14.445   0.632  0.00  0.00    -0.305 OA
HETATM    3  N   UNK N   1      25.673  18.283   4.621  0.00  0.00    -0.066 N 
HETATM    4  N   UNK N   1      24.278   8.792  -0.728  0.00  0.00    -0.066 N 
HETATM    5  C   UNK N   1      25.849  16.862   5.021  0.00  0.00     0.230 C 
HETATM    6  C   UNK N   1      24.613  10.005   0.050  0.00  0.00     0.227 C 
HETATM    7  C   UNK N   1      26.838  19.135   4.988  0.00  0.00     0.242 C 
HETATM    8  C   UNK N   1      23.228   8.015  -0.054  0.00  0.00     0.242 C 
HETATM    9  C   UNK N   1      27.278  16.373   4.763  0.00  0.00     0.016 A 
HETATM   10  C   UNK N   1      27.882  18.462   5.925  0.00  0.00     0.067 C 
HETATM   11  C   UNK N   1      23.379  10.886   0.258  0.00  0.00    -0.018 A 
HETATM   12  C   UNK N   1      24.698  15.837   4.776  0.00  0.00     0.077 C 
HETATM   13  C   UNK N   1      28.282  17.149   5.325  0.00  0.00    -0.043 A 
HETATM   14  C   UNK N   1      21.927   8.805   0.166  0.00  0.00     0.067 C 
HETATM   15  C   UNK N   1      25.482  18.400   3.182  0.00  0.00     0.272 C 
HETATM   16  C   UNK N   1      24.503  18.854   5.276  0.00  0.00     0.272 C 
HETATM   17  C   UNK N   1      25.215   9.609   1.420  0.00  0.00     0.077 C 
HETATM   18  C   UNK N   1      22.111  10.289   0.334  0.00  0.00    -0.045 A 
HETATM   19  C   UNK N   1      23.865   9.136  -2.085  0.00  0.00     0.272 C 
HETATM   20  C   UNK N   1      25.452   7.933  -0.865  0.00  0.00     0.272 C 
HETATM   21  C   UNK N   1      27.594  15.187   4.093  0.00  0.00     0.121 A 
HETATM   22  C   UNK N   1      23.587  15.976   3.783  0.00  0.00    -0.053 A 
HETATM   23  C   UNK N   1      23.490  12.292   0.371  0.00  0.00     0.050 A 
HETATM   24  C   UNK N   1      29.598  16.694   5.340  0.00  0.00     0.047 A 
HETATM   25  C   UNK N   1      25.716  10.819   2.083  0.00  0.00    -0.056 A 
HETATM   26  C   UNK N   1      20.981  11.080   0.529  0.00  0.00     0.047 A 
HETATM   27  C   UNK N   1      28.930  14.694   4.095  0.00  0.00     0.136 A 
HETATM   28  C   UNK N   1      22.346  13.090   0.575  0.00  0.00     0.110 A 
HETATM   29  C   UNK N   1      29.932  15.453   4.768  0.00  0.00     0.104 A 
HETATM   30  C   UNK N   1      21.082  12.475   0.652  0.00  0.00     0.102 A 
HETATM   31  C   UNK N   1      23.568  15.188   2.619  0.00  0.00     0.047 A 
HETATM   32  C   UNK N   1      22.450  16.699   4.141  0.00  0.00     0.010 A 
HETATM   33  C   UNK N   1      24.974  11.356   3.126  0.00  0.00     0.010 A 
HETATM   34  C   UNK N   1      26.798  11.518   1.534  0.00  0.00     0.010 A 
HETATM   35  C   UNK N   1      26.372  13.312   3.072  0.00  0.00     0.076 A 
HETATM   36  C   UNK N   1      22.436  15.167   1.784  0.00  0.00     0.110 A 
HETATM   37  C   UNK N   1      25.305  12.601   3.615  0.00  0.00     0.038 A 
HETATM   38  C   UNK N   1      27.129  12.773   2.028  0.00  0.00     0.038 A 
HETATM   39  C   UNK N   1      21.322  16.686   3.324  0.00  0.00     0.040 A 
HETATM   40  C   UNK N   1      21.301  15.926   2.140  0.00  0.00     0.102 A 
ENDROOT
BRANCH  27  41
HETATM   41  O   UNK N   1      29.199  13.503   3.506  0.00  0.00    -0.351 OA
HETATM   42  C   UNK N   1      29.707  12.376   4.113  0.00  0.00     0.210 C 
ENDBRANCH  27  41
BRANCH  29  43
HETATM   43  O   UNK N   1      31.194  14.966   4.875  0.00  0.00    -0.353 OA
HETATM   44  C   UNK N   1      31.844  14.806   6.078  0.00  0.00     0.210 C 
ENDBRANCH  29  43
BRANCH  40  45
HETATM   45  O   UNK N   1      20.199  15.904   1.351  0.00  0.00    -0.353 OA
HETATM   46  C   UNK N   1      19.914  16.887   0.428  0.00  0.00     0.210 C 
ENDBRANCH  40  45
BRANCH  30  47
HETATM   47  O   UNK N   1      19.976  13.240   0.817  0.00  0.00    -0.353 OA
HETATM   48  C   UNK N   1      18.743  12.910   0.300  0.00  0.00     0.210 C 
ENDBRANCH  30  47
TORSDOF 4
ENDMDL
MODEL 9
REMARK VINA RESULT:      -7.6     13.098     15.532
REMARK  4 active torsions:
REMARK  status: ('A' for Active; 'I' for Inactive)
REMARK    1  A    between atoms: O_3  and  C_31 
REMARK    2  A    between atoms: O_4  and  C_33 
REMARK    3  A    between atoms: O_5  and  C_34 
REMARK    4  A    between atoms: O_6  and  C_44 
ROOT
HETATM    1  O   UNK N   1      29.281  24.215  -5.674  0.00  0.00    -0.307 OA
HETATM    2  O   UNK N   1      31.344  21.296  -9.208  0.00  0.00    -0.305 OA
HETATM    3  N   UNK N   1      26.161  24.883  -8.074  0.00  0.00    -0.066 N 
HETATM    4  N   UNK N   1      35.875  20.652  -5.183  0.00  0.00    -0.066 N 
HETATM    5  C   UNK N   1      26.674  24.307  -6.804  0.00  0.00     0.230 C 
HETATM    6  C   UNK N   1      34.571  21.307  -5.424  0.00  0.00     0.227 C 
HETATM    7  C   UNK N   1      25.468  26.188  -7.878  0.00  0.00     0.242 C 
HETATM    8  C   UNK N   1      35.690  19.243  -4.813  0.00  0.00     0.242 C 
HETATM    9  C   UNK N   1      27.288  25.381  -5.900  0.00  0.00     0.016 A 
HETATM   10  C   UNK N   1      25.188  26.572  -6.397  0.00  0.00     0.067 C 
HETATM   11  C   UNK N   1      33.788  20.588  -6.524  0.00  0.00    -0.018 A 
HETATM   12  C   UNK N   1      27.368  22.909  -6.809  0.00  0.00     0.077 C 
HETATM   13  C   UNK N   1      26.468  26.467  -5.627  0.00  0.00    -0.043 A 
HETATM   14  C   UNK N   1      34.944  18.422  -5.879  0.00  0.00     0.067 C 
HETATM   15  C   UNK N   1      27.244  25.102  -9.022  0.00  0.00     0.272 C 
HETATM   16  C   UNK N   1      25.200  23.978  -8.691  0.00  0.00     0.272 C 
HETATM   17  C   UNK N   1      33.740  21.335  -4.117  0.00  0.00     0.077 C 
HETATM   18  C   UNK N   1      33.964  19.207  -6.707  0.00  0.00    -0.045 A 
HETATM   19  C   UNK N   1      36.742  20.762  -6.353  0.00  0.00     0.272 C 
HETATM   20  C   UNK N   1      36.583  21.313  -4.089  0.00  0.00     0.272 C 
HETATM   21  C   UNK N   1      28.545  25.276  -5.296  0.00  0.00     0.121 A 
HETATM   22  C   UNK N   1      27.999  22.240  -7.990  0.00  0.00    -0.053 A 
HETATM   23  C   UNK N   1      32.891  21.289  -7.366  0.00  0.00     0.050 A 
HETATM   24  C   UNK N   1      26.831  27.397  -4.656  0.00  0.00     0.047 A 
HETATM   25  C   UNK N   1      32.544  22.157  -4.336  0.00  0.00    -0.056 A 
HETATM   26  C   UNK N   1      33.251  18.541  -7.702  0.00  0.00     0.047 A 
HETATM   27  C   UNK N   1      28.941  26.208  -4.296  0.00  0.00     0.136 A 
HETATM   28  C   UNK N   1      32.167  20.611  -8.368  0.00  0.00     0.110 A 
HETATM   29  C   UNK N   1      28.042  27.260  -3.953  0.00  0.00     0.104 A 
HETATM   30  C   UNK N   1      32.352  19.226  -8.535  0.00  0.00     0.102 A 
HETATM   31  C   UNK N   1      29.398  22.138  -8.089  0.00  0.00     0.047 A 
HETATM   32  C   UNK N   1      27.194  21.499  -8.855  0.00  0.00     0.010 A 
HETATM   33  C   UNK N   1      31.324  21.517  -4.509  0.00  0.00     0.010 A 
HETATM   34  C   UNK N   1      32.677  23.532  -4.570  0.00  0.00     0.010 A 
HETATM   35  C   UNK N   1      30.354  23.614  -5.175  0.00  0.00     0.076 A 
HETATM   36  C   UNK N   1      29.991  21.343  -9.086  0.00  0.00     0.110 A 
HETATM   37  C   UNK N   1      30.236  22.249  -4.929  0.00  0.00     0.038 A 
HETATM   38  C   UNK N   1      31.577  24.266  -4.994  0.00  0.00     0.038 A 
HETATM   39  C   UNK N   1      27.768  20.706  -9.845  0.00  0.00     0.040 A 
HETATM   40  C   UNK N   1      29.166  20.620  -9.975  0.00  0.00     0.102 A 
ENDROOT
BRANCH  27  41
HETATM   41  O   UNK N   1      30.132  26.043  -3.668  0.00  0.00    -0.351 OA
HETATM   42  C   UNK N   1      31.037  27.026  -3.338  0.00  0.00     0.210 C 
ENDBRANCH  27  41
BRANCH  29  43
HETATM   43  O   UNK N   1      28.344  28.107  -2.936  0.00  0.00    -0.353 OA
HETATM   44  C   UNK N   1      27.563  29.188  -2.593  0.00  0.00     0.210 C 
ENDBRANCH  29  43
BRANCH  40  45
HETATM   45  O   UNK N   1      29.726  19.840 -10.932  0.00  0.00    -0.353 OA
HETATM   46  C   UNK N   1      29.028  19.370 -12.024  0.00  0.00     0.210 C 
ENDBRANCH  40  45
BRANCH  30  47
HETATM   47  O   UNK N   1      31.683  18.576  -9.517  0.00  0.00    -0.353 OA
HETATM   48  C   UNK N   1      31.382  17.233  -9.468  0.00  0.00     0.210 C 
ENDBRANCH  30  47
TORSDOF 4
ENDMDL
