MODEL 1
REMARK VINA RESULT:      -7.8      0.000      0.000
REMARK  6 active torsions:
REMARK  status: ('A' for Active; 'I' for Inactive)
REMARK    1  A    between atoms: C_17  and  O_1 
REMARK    2  A    between atoms: O_1  and  C_36 
REMARK    3  A    between atoms: C_27  and  O_2 
REMARK    4  A    between atoms: O_2  and  C_39 
REMARK    5  A    between atoms: C_20  and  N_5 
REMARK    6  A    between atoms: C_24  and  N_6 
ROOT
HETATM    1  C   UNK N   1      27.821  15.252   4.406  0.00  0.00    -0.005 C 
HETATM    2  C   UNK N   1      26.380  15.766   4.648  0.00  0.00    -0.002 C 
HETATM    3  C   UNK N   1      28.649  15.590   5.649  0.00  0.00     0.003 C 
HETATM    4  C   UNK N   1      28.722  17.118   5.854  0.00  0.00    -0.011 C 
HETATM    5  C   UNK N   1      25.490  15.486   3.400  0.00  0.00    -0.034 C 
HETATM    6  C   UNK N   1      25.532  13.977   2.993  0.00  0.00    -0.004 C 
HETATM    7  C   UNK N   1      26.362  17.275   5.023  0.00  0.00     0.007 C 
HETATM    8  C   UNK N   1      27.316  17.624   6.183  0.00  0.00     0.012 C 
HETATM    9  C   UNK N   1      29.786  17.250   6.940  0.00  0.00     0.173 C 
HETATM   10  C   UNK N   1      30.083  15.111   5.659  0.00  0.00     0.044 C 
HETATM   11  C   UNK N   1      27.789  13.749   4.118  0.00  0.00     0.006 C 
HETATM   12  C   UNK N   1      30.822  16.259   6.358  0.00  0.00     0.253 C 
HETATM   13  C   UNK N   1      26.979  13.489   2.843  0.00  0.00     0.006 C 
HETATM   14  C   UNK N   1      24.045  15.889   3.697  0.00  0.00     0.048 C 
HETATM   15  C   UNK N   1      24.800  13.052   3.992  0.00  0.00     0.040 C 
HETATM   16  C   UNK N   1      23.512  14.999   4.828  0.00  0.00     0.253 C 
HETATM   17  C   UNK N   1      29.236  17.885   4.621  0.00  0.00     0.018 C 
HETATM   18  C   UNK N   1      25.970  16.330   2.219  0.00  0.00     0.016 C 
HETATM   19  C   UNK N   1      23.392  13.543   4.388  0.00  0.00     0.165 C 
ENDROOT
BRANCH  12  20
HETATM   20  N   UNK N   1      32.068  15.962   7.076  0.00  0.00     0.099 N 
HETATM   21  C   UNK N   1      32.307  14.516   6.892  0.00  0.00     0.301 C 
HETATM   22  C   UNK N   1      33.740  14.091   7.203  0.00  0.00     0.266 C 
HETATM   23  N   UNK N   1      34.688  14.845   6.390  0.00  0.00    -0.071 N 
HETATM   24  C   UNK N   1      34.524  16.273   6.664  0.00  0.00     0.266 C 
HETATM   25  C   UNK N   1      34.522  14.552   4.968  0.00  0.00     0.272 C 
HETATM   26  C   UNK N   1      36.030  14.447   6.769  0.00  0.00     0.272 C 
HETATM   27  C   UNK N   1      33.093  16.737   6.359  0.00  0.00     0.301 C 
ENDBRANCH  12  20
BRANCH   9  28
HETATM   28  O   UNK N   1      29.239  16.839   8.140  0.00  0.00    -0.313 OA
BRANCH  28  29
HETATM   29  C   UNK N   1      28.950  17.724   9.124  0.00  0.00     0.255 C 
HETATM   30  O   UNK N   1      27.873  17.657   9.693  0.00  0.00    -0.266 OA
HETATM   31  C   UNK N   1      29.915  18.799   9.509  0.00  0.00     0.126 C 
ENDBRANCH  28  29
ENDBRANCH   9  28
BRANCH  16  32
HETATM   32  N   UNK N   1      22.350  15.530   5.540  0.00  0.00     0.099 N 
HETATM   33  C   UNK N   1      22.265  16.991   5.408  0.00  0.00     0.301 C 
HETATM   34  C   UNK N   1      21.347  17.626   6.469  0.00  0.00     0.266 C 
HETATM   35  N   UNK N   1      20.517  16.646   7.179  0.00  0.00    -0.071 N 
HETATM   36  C   UNK N   1      21.295  15.553   7.773  0.00  0.00     0.266 C 
HETATM   37  C   UNK N   1      19.838  17.335   8.259  0.00  0.00     0.272 C 
HETATM   38  C   UNK N   1      19.498  16.100   6.292  0.00  0.00     0.272 C 
HETATM   39  C   UNK N   1      22.519  15.161   6.944  0.00  0.00     0.301 C 
ENDBRANCH  16  32
BRANCH  19  40
HETATM   40  O   UNK N   1      22.373  13.398   3.449  0.00  0.00    -0.314 OA
BRANCH  40  41
HETATM   41  C   UNK N   1      22.383  12.778   2.237  0.00  0.00     0.255 C 
HETATM   42  O   UNK N   1      22.276  11.569   2.131  0.00  0.00    -0.266 OA
HETATM   43  C   UNK N   1      22.485  13.612   1.006  0.00  0.00     0.126 C 
ENDBRANCH  40  41
ENDBRANCH  19  40
TORSDOF 6
ENDMDL
MODEL 2
REMARK VINA RESULT:      -7.6      1.998      2.640
REMARK  6 active torsions:
REMARK  status: ('A' for Active; 'I' for Inactive)
REMARK    1  A    between atoms: C_17  and  O_1 
REMARK    2  A    between atoms: O_1  and  C_36 
REMARK    3  A    between atoms: C_27  and  O_2 
REMARK    4  A    between atoms: O_2  and  C_39 
REMARK    5  A    between atoms: C_20  and  N_5 
REMARK    6  A    between atoms: C_24  and  N_6 
ROOT
HETATM    1  C   UNK N   1      29.660  14.707   4.537  0.00  0.00    -0.005 C 
HETATM    2  C   UNK N   1      28.240  15.063   4.032  0.00  0.00    -0.002 C 
HETATM    3  C   UNK N   1      29.825  15.324   5.928  0.00  0.00     0.003 C 
HETATM    4  C   UNK N   1      29.722  16.862   5.858  0.00  0.00    -0.011 C 
HETATM    5  C   UNK N   1      28.019  14.494   2.598  0.00  0.00    -0.034 C 
HETATM    6  C   UNK N   1      28.314  12.960   2.537  0.00  0.00    -0.004 C 
HETATM    7  C   UNK N   1      27.980  16.596   4.075  0.00  0.00     0.007 C 
HETATM    8  C   UNK N   1      28.294  17.226   5.446  0.00  0.00     0.012 C 
HETATM    9  C   UNK N   1      30.178  17.284   7.251  0.00  0.00     0.173 C 
HETATM   10  C   UNK N   1      31.125  15.038   6.646  0.00  0.00     0.044 C 
HETATM   11  C   UNK N   1      29.836  13.187   4.548  0.00  0.00     0.006 C 
HETATM   12  C   UNK N   1      31.413  16.360   7.370  0.00  0.00     0.253 C 
HETATM   13  C   UNK N   1      29.698  12.645   3.121  0.00  0.00     0.006 C 
HETATM   14  C   UNK N   1      26.575  14.748   2.160  0.00  0.00     0.048 C 
HETATM   15  C   UNK N   1      27.259  12.103   3.274  0.00  0.00     0.040 C 
HETATM   16  C   UNK N   1      25.638  13.970   3.092  0.00  0.00     0.253 C 
HETATM   17  C   UNK N   1      30.695  17.503   4.849  0.00  0.00     0.018 C 
HETATM   18  C   UNK N   1      28.933  15.213   1.606  0.00  0.00     0.016 C 
HETATM   19  C   UNK N   1      25.800  12.462   2.923  0.00  0.00     0.165 C 
ENDROOT
BRANCH  12  20
HETATM   20  N   UNK N   1      32.219  16.331   8.597  0.00  0.00     0.099 N 
HETATM   21  C   UNK N   1      32.543  14.909   8.836  0.00  0.00     0.301 C 
HETATM   22  C   UNK N   1      33.698  14.704   9.812  0.00  0.00     0.266 C 
HETATM   23  N   UNK N   1      34.893  15.400   9.349  0.00  0.00    -0.071 N 
HETATM   24  C   UNK N   1      34.597  16.827   9.225  0.00  0.00     0.266 C 
HETATM   25  C   UNK N   1      35.379  14.844   8.088  0.00  0.00     0.272 C 
HETATM   26  C   UNK N   1      35.936  15.223  10.340  0.00  0.00     0.272 C 
HETATM   27  C   UNK N   1      33.440  17.073   8.247  0.00  0.00     0.301 C 
ENDBRANCH  12  20
BRANCH   9  28
HETATM   28  O   UNK N   1      29.173  16.984   8.150  0.00  0.00    -0.313 OA
BRANCH  28  29
HETATM   29  C   UNK N   1      28.811  17.856   9.121  0.00  0.00     0.255 C 
HETATM   30  O   UNK N   1      27.655  17.872   9.511  0.00  0.00    -0.266 OA
HETATM   31  C   UNK N   1      29.794  18.818   9.706  0.00  0.00     0.126 C 
ENDBRANCH  28  29
ENDBRANCH   9  28
BRANCH  16  32
HETATM   32  N   UNK N   1      24.255  14.446   3.120  0.00  0.00     0.099 N 
HETATM   33  C   UNK N   1      24.192  15.890   3.380  0.00  0.00     0.301 C 
HETATM   34  C   UNK N   1      22.797  16.346   3.845  0.00  0.00     0.266 C 
HETATM   35  N   UNK N   1      21.757  15.331   3.636  0.00  0.00    -0.071 N 
HETATM   36  C   UNK N   1      22.089  14.033   4.233  0.00  0.00     0.266 C 
HETATM   37  C   UNK N   1      20.540  15.803   4.268  0.00  0.00     0.272 C 
HETATM   38  C   UNK N   1      21.482  15.164   2.215  0.00  0.00     0.272 C 
HETATM   39  C   UNK N   1      23.584  13.712   4.191  0.00  0.00     0.301 C 
ENDBRANCH  16  32
BRANCH  19  40
HETATM   40  O   UNK N   1      25.319  12.055   1.681  0.00  0.00    -0.314 OA
BRANCH  40  41
HETATM   41  C   UNK N   1      24.286  11.222   1.374  0.00  0.00     0.255 C 
HETATM   42  O   UNK N   1      23.867  10.396   2.166  0.00  0.00    -0.266 OA
HETATM   43  C   UNK N   1      23.625  11.359   0.046  0.00  0.00     0.126 C 
ENDBRANCH  40  41
ENDBRANCH  19  40
TORSDOF 6
ENDMDL
MODEL 3
REMARK VINA RESULT:      -7.6      3.538     10.599
REMARK  6 active torsions:
REMARK  status: ('A' for Active; 'I' for Inactive)
REMARK    1  A    between atoms: C_17  and  O_1 
REMARK    2  A    between atoms: O_1  and  C_36 
REMARK    3  A    between atoms: C_27  and  O_2 
REMARK    4  A    between atoms: O_2  and  C_39 
REMARK    5  A    between atoms: C_20  and  N_5 
REMARK    6  A    between atoms: C_24  and  N_6 
ROOT
HETATM    1  C   UNK N   1      31.433  16.844   6.833  0.00  0.00    -0.005 C 
HETATM    2  C   UNK N   1      32.265  15.538   6.839  0.00  0.00    -0.002 C 
HETATM    3  C   UNK N   1      30.010  16.485   6.397  0.00  0.00     0.003 C 
HETATM    4  C   UNK N   1      30.008  15.919   4.961  0.00  0.00    -0.011 C 
HETATM    5  C   UNK N   1      33.740  15.840   7.240  0.00  0.00    -0.034 C 
HETATM    6  C   UNK N   1      33.819  16.612   8.598  0.00  0.00    -0.004 C 
HETATM    7  C   UNK N   1      32.195  14.804   5.470  0.00  0.00     0.007 C 
HETATM    8  C   UNK N   1      30.752  14.582   4.973  0.00  0.00     0.012 C 
HETATM    9  C   UNK N   1      28.520  15.889   4.624  0.00  0.00     0.173 C 
HETATM   10  C   UNK N   1      28.999  17.609   6.389  0.00  0.00     0.044 C 
HETATM   11  C   UNK N   1      31.472  17.486   8.222  0.00  0.00     0.006 C 
HETATM   12  C   UNK N   1      28.144  17.293   5.156  0.00  0.00     0.253 C 
HETATM   13  C   UNK N   1      32.917  17.853   8.576  0.00  0.00     0.006 C 
HETATM   14  C   UNK N   1      34.521  14.530   7.358  0.00  0.00     0.048 C 
HETATM   15  C   UNK N   1      33.436  15.744   9.819  0.00  0.00     0.040 C 
HETATM   16  C   UNK N   1      33.914  13.701   8.498  0.00  0.00     0.253 C 
HETATM   17  C   UNK N   1      30.687  16.841   3.930  0.00  0.00     0.018 C 
HETATM   18  C   UNK N   1      34.413  16.680   6.155  0.00  0.00     0.016 C 
HETATM   19  C   UNK N   1      34.130  14.367   9.854  0.00  0.00     0.165 C 
ENDROOT
BRANCH  12  20
HETATM   20  N   UNK N   1      26.754  17.765   5.121  0.00  0.00     0.099 N 
HETATM   21  C   UNK N   1      26.799  19.188   5.515  0.00  0.00     0.301 C 
HETATM   22  C   UNK N   1      25.535  19.962   5.149  0.00  0.00     0.266 C 
HETATM   23  N   UNK N   1      25.269  19.864   3.718  0.00  0.00    -0.071 N 
HETATM   24  C   UNK N   1      25.111  18.456   3.355  0.00  0.00     0.266 C 
HETATM   25  C   UNK N   1      26.326  20.502   2.935  0.00  0.00     0.272 C 
HETATM   26  C   UNK N   1      24.030  20.563   3.437  0.00  0.00     0.272 C 
HETATM   27  C   UNK N   1      26.366  17.646   3.707  0.00  0.00     0.301 C 
ENDBRANCH  12  20
BRANCH   9  28
HETATM   28  O   UNK N   1      27.933  14.855   5.326  0.00  0.00    -0.313 OA
BRANCH  28  29
HETATM   29  C   UNK N   1      27.094  13.979   4.724  0.00  0.00     0.255 C 
HETATM   30  O   UNK N   1      26.439  13.209   5.407  0.00  0.00    -0.266 OA
HETATM   31  C   UNK N   1      26.975  13.918   3.235  0.00  0.00     0.126 C 
ENDBRANCH  28  29
ENDBRANCH   9  28
BRANCH  16  32
HETATM   32  N   UNK N   1      34.216  12.271   8.454  0.00  0.00     0.099 N 
HETATM   33  C   UNK N   1      33.966  11.713   7.118  0.00  0.00     0.301 C 
HETATM   34  C   UNK N   1      33.846  10.178   7.133  0.00  0.00     0.266 C 
HETATM   35  N   UNK N   1      34.309   9.573   8.388  0.00  0.00    -0.071 N 
HETATM   36  C   UNK N   1      33.661  10.141   9.575  0.00  0.00     0.266 C 
HETATM   37  C   UNK N   1      33.985   8.160   8.348  0.00  0.00     0.272 C 
HETATM   38  C   UNK N   1      35.755   9.692   8.511  0.00  0.00     0.272 C 
HETATM   39  C   UNK N   1      33.345  11.631   9.438  0.00  0.00     0.301 C 
ENDBRANCH  16  32
BRANCH  19  40
HETATM   40  O   UNK N   1      35.478  14.334  10.206  0.00  0.00    -0.314 OA
BRANCH  40  41
HETATM   41  C   UNK N   1      36.164  15.088  11.109  0.00  0.00     0.255 C 
HETATM   42  O   UNK N   1      36.812  16.063  10.772  0.00  0.00    -0.266 OA
HETATM   43  C   UNK N   1      36.081  14.730  12.552  0.00  0.00     0.126 C 
ENDBRANCH  40  41
ENDBRANCH  19  40
TORSDOF 6
ENDMDL
MODEL 4
REMARK VINA RESULT:      -7.5      2.378     10.355
REMARK  6 active torsions:
REMARK  status: ('A' for Active; 'I' for Inactive)
REMARK    1  A    between atoms: C_17  and  O_1 
REMARK    2  A    between atoms: O_1  and  C_36 
REMARK    3  A    between atoms: C_27  and  O_2 
REMARK    4  A    between atoms: O_2  and  C_39 
REMARK    5  A    between atoms: C_20  and  N_5 
REMARK    6  A    between atoms: C_24  and  N_6 
ROOT
HETATM    1  C   UNK N   1      28.477  16.330   6.097  0.00  0.00    -0.005 C 
HETATM    2  C   UNK N   1      29.834  15.584   6.052  0.00  0.00    -0.002 C 
HETATM    3  C   UNK N   1      27.368  15.282   5.977  0.00  0.00     0.003 C 
HETATM    4  C   UNK N   1      27.457  14.549   4.622  0.00  0.00    -0.011 C 
HETATM    5  C   UNK N   1      31.012  16.602   6.133  0.00  0.00    -0.034 C 
HETATM    6  C   UNK N   1      30.878  17.536   7.379  0.00  0.00    -0.004 C 
HETATM    7  C   UNK N   1      29.955  14.684   4.789  0.00  0.00     0.007 C 
HETATM    8  C   UNK N   1      28.754  13.736   4.603  0.00  0.00     0.012 C 
HETATM    9  C   UNK N   1      26.144  13.773   4.584  0.00  0.00     0.173 C 
HETATM   10  C   UNK N   1      25.946  15.786   6.071  0.00  0.00     0.044 C 
HETATM   11  C   UNK N   1      28.377  17.138   7.393  0.00  0.00     0.006 C 
HETATM   12  C   UNK N   1      25.203  14.906   5.058  0.00  0.00     0.253 C 
HETATM   13  C   UNK N   1      29.491  18.191   7.428  0.00  0.00     0.006 C 
HETATM   14  C   UNK N   1      32.340  15.847   6.207  0.00  0.00     0.048 C 
HETATM   15  C   UNK N   1      31.129  16.809   8.720  0.00  0.00     0.040 C 
HETATM   16  C   UNK N   1      32.368  15.035   7.509  0.00  0.00     0.253 C 
HETATM   17  C   UNK N   1      27.460  15.493   3.405  0.00  0.00     0.018 C 
HETATM   18  C   UNK N   1      31.043  17.463   4.870  0.00  0.00     0.016 C 
HETATM   19  C   UNK N   1      32.405  15.941   8.736  0.00  0.00     0.165 C 
ENDROOT
BRANCH  12  20
HETATM   20  N   UNK N   1      23.768  14.662   5.254  0.00  0.00     0.099 N 
HETATM   21  C   UNK N   1      23.457  15.145   6.615  0.00  0.00     0.301 C 
HETATM   22  C   UNK N   1      21.965  15.361   6.859  0.00  0.00     0.266 C 
HETATM   23  N   UNK N   1      21.414  16.290   5.879  0.00  0.00    -0.071 N 
HETATM   24  C   UNK N   1      21.624  15.750   4.536  0.00  0.00     0.266 C 
HETATM   25  C   UNK N   1      22.002  17.621   6.017  0.00  0.00     0.272 C 
HETATM   26  C   UNK N   1      19.989  16.411   6.118  0.00  0.00     0.272 C 
HETATM   27  C   UNK N   1      23.115  15.522   4.254  0.00  0.00     0.301 C 
ENDBRANCH  12  20
BRANCH   9  28
HETATM   28  O   UNK N   1      26.233  12.718   5.471  0.00  0.00    -0.313 OA
BRANCH  28  29
HETATM   29  C   UNK N   1      25.717  11.501   5.176  0.00  0.00     0.255 C 
HETATM   30  O   UNK N   1      26.359  10.731   4.481  0.00  0.00    -0.266 OA
HETATM   31  C   UNK N   1      24.364  11.093   5.663  0.00  0.00     0.126 C 
ENDBRANCH  28  29
ENDBRANCH   9  28
BRANCH  16  32
HETATM   32  N   UNK N   1      33.321  13.926   7.528  0.00  0.00     0.099 N 
HETATM   33  C   UNK N   1      33.236  13.127   6.298  0.00  0.00     0.301 C 
HETATM   34  C   UNK N   1      33.880  11.737   6.451  0.00  0.00     0.266 C 
HETATM   35  N   UNK N   1      34.707  11.612   7.658  0.00  0.00    -0.071 N 
HETATM   36  C   UNK N   1      33.993  11.976   8.887  0.00  0.00     0.266 C 
HETATM   37  C   UNK N   1      35.109  10.224   7.782  0.00  0.00     0.272 C 
HETATM   38  C   UNK N   1      35.917  12.413   7.535  0.00  0.00     0.272 C 
HETATM   39  C   UNK N   1      32.979  13.104   8.687  0.00  0.00     0.301 C 
ENDBRANCH  16  32
BRANCH  19  40
HETATM   40  O   UNK N   1      33.630  16.600   8.821  0.00  0.00    -0.314 OA
BRANCH  40  41
HETATM   41  C   UNK N   1      34.558  16.594   9.817  0.00  0.00     0.255 C 
HETATM   42  O   UNK N   1      35.363  17.499   9.952  0.00  0.00    -0.266 OA
HETATM   43  C   UNK N   1      34.558  15.467  10.791  0.00  0.00     0.126 C 
ENDBRANCH  40  41
ENDBRANCH  19  40
TORSDOF 6
ENDMDL
MODEL 5
REMARK VINA RESULT:      -7.4      2.877     10.842
REMARK  6 active torsions:
REMARK  status: ('A' for Active; 'I' for Inactive)
REMARK    1  A    between atoms: C_17  and  O_1 
REMARK    2  A    between atoms: O_1  and  C_36 
REMARK    3  A    between atoms: C_27  and  O_2 
REMARK    4  A    between atoms: O_2  and  C_39 
REMARK    5  A    between atoms: C_20  and  N_5 
REMARK    6  A    between atoms: C_24  and  N_6 
ROOT
HETATM    1  C   UNK N   1      30.457  16.346   6.154  0.00  0.00    -0.005 C 
HETATM    2  C   UNK N   1      31.785  15.560   6.030  0.00  0.00    -0.002 C 
HETATM    3  C   UNK N   1      29.334  15.443   5.637  0.00  0.00     0.003 C 
HETATM    4  C   UNK N   1      29.547  15.110   4.145  0.00  0.00    -0.011 C 
HETATM    5  C   UNK N   1      32.980  16.440   6.507  0.00  0.00    -0.034 C 
HETATM    6  C   UNK N   1      32.742  16.999   7.947  0.00  0.00    -0.004 C 
HETATM    7  C   UNK N   1      32.014  15.039   4.582  0.00  0.00     0.007 C 
HETATM    8  C   UNK N   1      30.811  14.256   4.022  0.00  0.00     0.012 C 
HETATM    9  C   UNK N   1      28.221  14.457   3.765  0.00  0.00     0.173 C 
HETATM   10  C   UNK N   1      27.927  15.988   5.733  0.00  0.00     0.044 C 
HETATM   11  C   UNK N   1      30.242  16.768   7.610  0.00  0.00     0.006 C 
HETATM   12  C   UNK N   1      27.271  15.470   4.447  0.00  0.00     0.253 C 
HETATM   13  C   UNK N   1      31.379  17.699   8.046  0.00  0.00     0.006 C 
HETATM   14  C   UNK N   1      34.267  15.614   6.492  0.00  0.00     0.048 C 
HETATM   15  C   UNK N   1      32.821  15.914   9.046  0.00  0.00     0.040 C 
HETATM   16  C   UNK N   1      34.127  14.473   7.508  0.00  0.00     0.253 C 
HETATM   17  C   UNK N   1      29.713  16.353   3.251  0.00  0.00     0.018 C 
HETATM   18  C   UNK N   1      33.176  17.614   5.547  0.00  0.00     0.016 C 
HETATM   19  C   UNK N   1      34.058  14.999   8.939  0.00  0.00     0.165 C 
ENDROOT
BRANCH  12  20
HETATM   20  N   UNK N   1      25.816  15.271   4.428  0.00  0.00     0.099 N 
HETATM   21  C   UNK N   1      25.321  15.775   5.726  0.00  0.00     0.301 C 
HETATM   22  C   UNK N   1      23.817  16.037   5.743  0.00  0.00     0.266 C 
HETATM   23  N   UNK N   1      23.446  16.973   4.688  0.00  0.00    -0.071 N 
HETATM   24  C   UNK N   1      23.837  16.415   3.394  0.00  0.00     0.266 C 
HETATM   25  C   UNK N   1      24.047  18.287   4.906  0.00  0.00     0.272 C 
HETATM   26  C   UNK N   1      22.006  17.138   4.712  0.00  0.00     0.272 C 
HETATM   27  C   UNK N   1      25.346  16.140   3.338  0.00  0.00     0.301 C 
ENDBRANCH  12  20
BRANCH   9  28
HETATM   28  O   UNK N   1      28.178  13.195   4.323  0.00  0.00    -0.313 OA
BRANCH  28  29
HETATM   29  C   UNK N   1      27.837  12.109   3.589  0.00  0.00     0.255 C 
HETATM   30  O   UNK N   1      28.285  11.016   3.891  0.00  0.00    -0.266 OA
HETATM   31  C   UNK N   1      26.942  12.229   2.397  0.00  0.00     0.126 C 
ENDBRANCH  28  29
ENDBRANCH   9  28
BRANCH  16  32
HETATM   32  N   UNK N   1      35.035  13.345   7.304  0.00  0.00     0.099 N 
HETATM   33  C   UNK N   1      35.033  12.904   5.903  0.00  0.00     0.301 C 
HETATM   34  C   UNK N   1      35.613  11.488   5.730  0.00  0.00     0.266 C 
HETATM   35  N   UNK N   1      36.324  11.004   6.920  0.00  0.00    -0.071 N 
HETATM   36  C   UNK N   1      35.515  11.072   8.142  0.00  0.00     0.266 C 
HETATM   37  C   UNK N   1      36.665   9.612   6.700  0.00  0.00     0.272 C 
HETATM   38  C   UNK N   1      37.567  11.739   7.109  0.00  0.00     0.272 C 
HETATM   39  C   UNK N   1      34.563  12.269   8.172  0.00  0.00     0.301 C 
ENDBRANCH  16  32
BRANCH  19  40
HETATM   40  O   UNK N   1      35.287  15.532   9.323  0.00  0.00    -0.314 OA
BRANCH  40  41
HETATM   41  C   UNK N   1      35.610  16.296  10.403  0.00  0.00     0.255 C 
HETATM   42  O   UNK N   1      35.668  17.511  10.337  0.00  0.00    -0.266 OA
HETATM   43  C   UNK N   1      35.855  15.623  11.709  0.00  0.00     0.126 C 
ENDBRANCH  40  41
ENDBRANCH  19  40
TORSDOF 6
ENDMDL
MODEL 6
REMARK VINA RESULT:      -7.3      5.756     12.779
REMARK  6 active torsions:
REMARK  status: ('A' for Active; 'I' for Inactive)
REMARK    1  A    between atoms: C_17  and  O_1 
REMARK    2  A    between atoms: O_1  and  C_36 
REMARK    3  A    between atoms: C_27  and  O_2 
REMARK    4  A    between atoms: O_2  and  C_39 
REMARK    5  A    between atoms: C_20  and  N_5 
REMARK    6  A    between atoms: C_24  and  N_6 
ROOT
HETATM    1  C   UNK N   1      35.100  14.483   8.638  0.00  0.00    -0.005 C 
HETATM    2  C   UNK N   1      35.752  13.402   9.536  0.00  0.00    -0.002 C 
HETATM    3  C   UNK N   1      34.057  13.788   7.760  0.00  0.00     0.003 C 
HETATM    4  C   UNK N   1      34.729  12.750   6.836  0.00  0.00    -0.011 C 
HETATM    5  C   UNK N   1      36.854  14.041  10.434  0.00  0.00    -0.034 C 
HETATM    6  C   UNK N   1      36.299  15.251  11.253  0.00  0.00    -0.004 C 
HETATM    7  C   UNK N   1      36.322  12.223   8.699  0.00  0.00     0.007 C 
HETATM    8  C   UNK N   1      35.298  11.630   7.710  0.00  0.00     0.012 C 
HETATM    9  C   UNK N   1      33.597  12.384   5.879  0.00  0.00     0.173 C 
HETATM   10  C   UNK N   1      33.242  14.674   6.846  0.00  0.00     0.044 C 
HETATM   11  C   UNK N   1      34.488  15.580   9.513  0.00  0.00     0.006 C 
HETATM   12  C   UNK N   1      33.085  13.814   5.585  0.00  0.00     0.253 C 
HETATM   13  C   UNK N   1      35.592  16.256  10.333  0.00  0.00     0.006 C 
HETATM   14  C   UNK N   1      37.405  12.989  11.399  0.00  0.00     0.048 C 
HETATM   15  C   UNK N   1      35.321  14.835  12.375  0.00  0.00     0.040 C 
HETATM   16  C   UNK N   1      36.274  12.547  12.337  0.00  0.00     0.253 C 
HETATM   17  C   UNK N   1      35.874  13.328   5.983  0.00  0.00     0.018 C 
HETATM   18  C   UNK N   1      38.017  14.522   9.566  0.00  0.00     0.016 C 
HETATM   19  C   UNK N   1      35.833  13.679  13.259  0.00  0.00     0.165 C 
ENDROOT
BRANCH  12  20
HETATM   20  N   UNK N   1      31.918  14.035   4.722  0.00  0.00     0.099 N 
HETATM   21  C   UNK N   1      30.815  14.430   5.622  0.00  0.00     0.301 C 
HETATM   22  C   UNK N   1      29.647  15.095   4.899  0.00  0.00     0.266 C 
HETATM   23  N   UNK N   1      30.101  16.260   4.150  0.00  0.00    -0.071 N 
HETATM   24  C   UNK N   1      31.112  15.842   3.179  0.00  0.00     0.266 C 
HETATM   25  C   UNK N   1      30.615  17.299   5.041  0.00  0.00     0.272 C 
HETATM   26  C   UNK N   1      28.967  16.814   3.437  0.00  0.00     0.272 C 
HETATM   27  C   UNK N   1      32.306  15.171   3.871  0.00  0.00     0.301 C 
ENDBRANCH  12  20
BRANCH   9  28
HETATM   28  O   UNK N   1      32.687  11.598   6.558  0.00  0.00    -0.313 OA
BRANCH  28  29
HETATM   29  C   UNK N   1      32.271  10.409   6.060  0.00  0.00     0.255 C 
HETATM   30  O   UNK N   1      31.564   9.687   6.743  0.00  0.00    -0.266 OA
HETATM   31  C   UNK N   1      32.685   9.951   4.698  0.00  0.00     0.126 C 
ENDBRANCH  28  29
ENDBRANCH   9  28
BRANCH  16  32
HETATM   32  N   UNK N   1      36.482  11.256  12.994  0.00  0.00     0.099 N 
HETATM   33  C   UNK N   1      36.943  10.239  12.039  0.00  0.00     0.301 C 
HETATM   34  C   UNK N   1      36.756   8.805  12.569  0.00  0.00     0.266 C 
HETATM   35  N   UNK N   1      36.460   8.753  14.006  0.00  0.00    -0.071 N 
HETATM   36  C   UNK N   1      35.315   9.586  14.389  0.00  0.00     0.266 C 
HETATM   37  C   UNK N   1      36.133   7.382  14.345  0.00  0.00     0.272 C 
HETATM   38  C   UNK N   1      37.630   9.135  14.784  0.00  0.00     0.272 C 
HETATM   39  C   UNK N   1      35.193  10.867  13.561  0.00  0.00     0.301 C 
ENDBRANCH  16  32
BRANCH  19  40
HETATM   40  O   UNK N   1      36.832  13.972  14.186  0.00  0.00    -0.314 OA
BRANCH  40  41
HETATM   41  C   UNK N   1      36.744  14.185  15.528  0.00  0.00     0.255 C 
HETATM   42  O   UNK N   1      37.455  14.994  16.099  0.00  0.00    -0.266 OA
HETATM   43  C   UNK N   1      35.719  13.437  16.307  0.00  0.00     0.126 C 
ENDBRANCH  40  41
ENDBRANCH  19  40
TORSDOF 6
ENDMDL
MODEL 7
REMARK VINA RESULT:      -7.0      2.547      9.840
REMARK  6 active torsions:
REMARK  status: ('A' for Active; 'I' for Inactive)
REMARK    1  A    between atoms: C_17  and  O_1 
REMARK    2  A    between atoms: O_1  and  C_36 
REMARK    3  A    between atoms: C_27  and  O_2 
REMARK    4  A    between atoms: O_2  and  C_39 
REMARK    5  A    between atoms: C_20  and  N_5 
REMARK    6  A    between atoms: C_24  and  N_6 
ROOT
HETATM    1  C   UNK N   1      26.913  16.230   5.980  0.00  0.00    -0.005 C 
HETATM    2  C   UNK N   1      28.142  15.949   5.080  0.00  0.00    -0.002 C 
HETATM    3  C   UNK N   1      26.031  14.979   5.964  0.00  0.00     0.003 C 
HETATM    4  C   UNK N   1      25.516  14.695   4.537  0.00  0.00    -0.011 C 
HETATM    5  C   UNK N   1      29.066  17.203   5.023  0.00  0.00    -0.034 C 
HETATM    6  C   UNK N   1      29.465  17.688   6.454  0.00  0.00    -0.004 C 
HETATM    7  C   UNK N   1      27.720  15.496   3.653  0.00  0.00     0.007 C 
HETATM    8  C   UNK N   1      26.715  14.328   3.660  0.00  0.00     0.012 C 
HETATM    9  C   UNK N   1      24.468  13.612   4.779  0.00  0.00     0.173 C 
HETATM   10  C   UNK N   1      24.800  15.006   6.841  0.00  0.00     0.044 C 
HETATM   11  C   UNK N   1      27.380  16.596   7.390  0.00  0.00     0.006 C 
HETATM   12  C   UNK N   1      23.762  14.254   5.997  0.00  0.00     0.253 C 
HETATM   13  C   UNK N   1      28.222  17.876   7.335  0.00  0.00     0.006 C 
HETATM   14  C   UNK N   1      30.332  16.873   4.230  0.00  0.00     0.048 C 
HETATM   15  C   UNK N   1      30.442  16.732   7.175  0.00  0.00     0.040 C 
HETATM   16  C   UNK N   1      31.110  15.786   4.983  0.00  0.00     0.253 C 
HETATM   17  C   UNK N   1      24.791  15.890   3.890  0.00  0.00     0.018 C 
HETATM   18  C   UNK N   1      28.352  18.342   4.295  0.00  0.00     0.016 C 
HETATM   19  C   UNK N   1      31.648  16.299   6.316  0.00  0.00     0.165 C 
ENDROOT
BRANCH  12  20
HETATM   20  N   UNK N   1      22.663  13.563   6.683  0.00  0.00     0.099 N 
HETATM   21  C   UNK N   1      23.276  12.410   7.373  0.00  0.00     0.301 C 
HETATM   22  C   UNK N   1      22.390  11.810   8.462  0.00  0.00     0.266 C 
HETATM   23  N   UNK N   1      22.027  12.824   9.445  0.00  0.00    -0.071 N 
HETATM   24  C   UNK N   1      21.317  13.911   8.772  0.00  0.00     0.266 C 
HETATM   25  C   UNK N   1      23.201  13.316  10.162  0.00  0.00     0.272 C 
HETATM   26  C   UNK N   1      21.139  12.217  10.418  0.00  0.00     0.272 C 
HETATM   27  C   UNK N   1      22.180  14.542   7.670  0.00  0.00     0.301 C 
ENDBRANCH  12  20
BRANCH   9  28
HETATM   28  O   UNK N   1      25.119  12.431   5.074  0.00  0.00    -0.313 OA
BRANCH  28  29
HETATM   29  C   UNK N   1      24.851  11.289   4.397  0.00  0.00     0.255 C 
HETATM   30  O   UNK N   1      24.236  11.345   3.345  0.00  0.00    -0.266 OA
HETATM   31  C   UNK N   1      25.272   9.956   4.928  0.00  0.00     0.126 C 
ENDBRANCH  28  29
ENDBRANCH   9  28
BRANCH  16  32
HETATM   32  N   UNK N   1      32.071  15.037   4.174  0.00  0.00     0.099 N 
HETATM   33  C   UNK N   1      31.414  14.383   3.034  0.00  0.00     0.301 C 
HETATM   34  C   UNK N   1      32.271  13.258   2.425  0.00  0.00     0.266 C 
HETATM   35  N   UNK N   1      33.664  13.276   2.888  0.00  0.00    -0.071 N 
HETATM   36  C   UNK N   1      33.786  13.268   4.350  0.00  0.00     0.266 C 
HETATM   37  C   UNK N   1      34.315  12.080   2.390  0.00  0.00     0.272 C 
HETATM   38  C   UNK N   1      34.371  14.425   2.340  0.00  0.00     0.272 C 
HETATM   39  C   UNK N   1      32.665  14.034   5.056  0.00  0.00     0.301 C 
ENDBRANCH  16  32
BRANCH  19  40
HETATM   40  O   UNK N   1      32.658  17.236   6.107  0.00  0.00    -0.314 OA
BRANCH  40  41
HETATM   41  C   UNK N   1      33.877  17.355   6.703  0.00  0.00     0.255 C 
HETATM   42  O   UNK N   1      34.868  16.803   6.258  0.00  0.00    -0.266 OA
HETATM   43  C   UNK N   1      34.004  18.220   7.909  0.00  0.00     0.126 C 
ENDBRANCH  40  41
ENDBRANCH  19  40
TORSDOF 6
ENDMDL
MODEL 8
REMARK VINA RESULT:      -6.9      1.773      2.550
REMARK  6 active torsions:
REMARK  status: ('A' for Active; 'I' for Inactive)
REMARK    1  A    between atoms: C_17  and  O_1 
REMARK    2  A    between atoms: O_1  and  C_36 
REMARK    3  A    between atoms: C_27  and  O_2 
REMARK    4  A    between atoms: O_2  and  C_39 
REMARK    5  A    between atoms: C_20  and  N_5 
REMARK    6  A    between atoms: C_24  and  N_6 
ROOT
HETATM    1  C   UNK N   1      29.508  14.510   4.392  0.00  0.00    -0.005 C 
HETATM    2  C   UNK N   1      28.205  15.314   4.156  0.00  0.00    -0.002 C 
HETATM    3  C   UNK N   1      30.230  15.138   5.587  0.00  0.00     0.003 C 
HETATM    4  C   UNK N   1      30.627  16.597   5.277  0.00  0.00    -0.011 C 
HETATM    5  C   UNK N   1      27.437  14.747   2.924  0.00  0.00    -0.034 C 
HETATM    6  C   UNK N   1      27.181  13.211   3.064  0.00  0.00    -0.004 C 
HETATM    7  C   UNK N   1      28.488  16.835   3.991  0.00  0.00     0.007 C 
HETATM    8  C   UNK N   1      29.344  17.420   5.131  0.00  0.00     0.012 C 
HETATM    9  C   UNK N   1      31.548  16.939   6.445  0.00  0.00     0.173 C 
HETATM   10  C   UNK N   1      31.503  14.461   6.042  0.00  0.00     0.044 C 
HETATM   11  C   UNK N   1      29.168  13.036   4.625  0.00  0.00     0.006 C 
HETATM   12  C   UNK N   1      32.393  15.642   6.447  0.00  0.00     0.253 C 
HETATM   13  C   UNK N   1      28.485  12.465   3.378  0.00  0.00     0.006 C 
HETATM   14  C   UNK N   1      26.098  15.471   2.775  0.00  0.00     0.048 C 
HETATM   15  C   UNK N   1      26.138  12.861   4.149  0.00  0.00     0.040 C 
HETATM   16  C   UNK N   1      25.238  15.167   4.009  0.00  0.00     0.253 C 
HETATM   17  C   UNK N   1      31.453  16.754   3.987  0.00  0.00     0.018 C 
HETATM   18  C   UNK N   1      28.241  15.000   1.648  0.00  0.00     0.016 C 
HETATM   19  C   UNK N   1      24.842  13.695   4.069  0.00  0.00     0.165 C 
ENDROOT
BRANCH  12  20
HETATM   20  N   UNK N   1      33.438  15.425   7.456  0.00  0.00     0.099 N 
HETATM   21  C   UNK N   1      32.912  14.390   8.369  0.00  0.00     0.301 C 
HETATM   22  C   UNK N   1      33.988  13.732   9.229  0.00  0.00     0.266 C 
HETATM   23  N   UNK N   1      35.032  13.152   8.392  0.00  0.00    -0.071 N 
HETATM   24  C   UNK N   1      35.629  14.206   7.572  0.00  0.00     0.266 C 
HETATM   25  C   UNK N   1      34.511  12.065   7.567  0.00  0.00     0.272 C 
HETATM   26  C   UNK N   1      36.053  12.597   9.258  0.00  0.00     0.272 C 
HETATM   27  C   UNK N   1      34.575  14.889   6.690  0.00  0.00     0.301 C 
ENDBRANCH  12  20
BRANCH   9  28
HETATM   28  O   UNK N   1      30.777  17.100   7.579  0.00  0.00    -0.313 OA
BRANCH  28  29
HETATM   29  C   UNK N   1      31.076  18.039   8.508  0.00  0.00     0.255 C 
HETATM   30  O   UNK N   1      32.235  18.391   8.655  0.00  0.00    -0.266 OA
HETATM   31  C   UNK N   1      30.015  18.634   9.377  0.00  0.00     0.126 C 
ENDBRANCH  28  29
ENDBRANCH   9  28
BRANCH  16  32
HETATM   32  N   UNK N   1      24.150  16.113   4.255  0.00  0.00     0.099 N 
HETATM   33  C   UNK N   1      22.962  15.781   3.458  0.00  0.00     0.301 C 
HETATM   34  C   UNK N   1      21.978  16.960   3.347  0.00  0.00     0.266 C 
HETATM   35  N   UNK N   1      22.262  18.043   4.297  0.00  0.00    -0.071 N 
HETATM   36  C   UNK N   1      23.644  18.530   4.218  0.00  0.00     0.266 C 
HETATM   37  C   UNK N   1      21.389  19.156   3.979  0.00  0.00     0.272 C 
HETATM   38  C   UNK N   1      21.964  17.622   5.659  0.00  0.00     0.272 C 
HETATM   39  C   UNK N   1      24.655  17.433   3.882  0.00  0.00     0.301 C 
ENDBRANCH  16  32
BRANCH  19  40
HETATM   40  O   UNK N   1      23.942  13.388   3.051  0.00  0.00    -0.314 OA
BRANCH  40  41
HETATM   41  C   UNK N   1      23.761  12.226   2.364  0.00  0.00     0.255 C 
HETATM   42  O   UNK N   1      23.182  11.273   2.855  0.00  0.00    -0.266 OA
HETATM   43  C   UNK N   1      24.249  12.140   0.960  0.00  0.00     0.126 C 
ENDBRANCH  40  41
ENDBRANCH  19  40
TORSDOF 6
ENDMDL
MODEL 9
REMARK VINA RESULT:      -6.8      8.198     15.144
REMARK  6 active torsions:
REMARK  status: ('A' for Active; 'I' for Inactive)
REMARK    1  A    between atoms: C_17  and  O_1 
REMARK    2  A    between atoms: O_1  and  C_36 
REMARK    3  A    between atoms: C_27  and  O_2 
REMARK    4  A    between atoms: O_2  and  C_39 
REMARK    5  A    between atoms: C_20  and  N_5 
REMARK    6  A    between atoms: C_24  and  N_6 
ROOT
HETATM    1  C   UNK N   1      35.255  11.772  12.401  0.00  0.00    -0.005 C 
HETATM    2  C   UNK N   1      36.557  11.135  12.947  0.00  0.00    -0.002 C 
HETATM    3  C   UNK N   1      35.513  12.183  10.950  0.00  0.00     0.003 C 
HETATM    4  C   UNK N   1      36.626  13.250  10.876  0.00  0.00    -0.011 C 
HETATM    5  C   UNK N   1      36.373  10.726  14.440  0.00  0.00    -0.034 C 
HETATM    6  C   UNK N   1      35.124   9.805  14.633  0.00  0.00    -0.004 C 
HETATM    7  C   UNK N   1      37.779  12.081  12.770  0.00  0.00     0.007 C 
HETATM    8  C   UNK N   1      37.938  12.605  11.329  0.00  0.00     0.012 C 
HETATM    9  C   UNK N   1      36.538  13.713   9.425  0.00  0.00     0.173 C 
HETATM   10  C   UNK N   1      34.343  12.767  10.192  0.00  0.00     0.044 C 
HETATM   11  C   UNK N   1      34.102  10.773  12.528  0.00  0.00     0.006 C 
HETATM   12  C   UNK N   1      35.000  13.851   9.328  0.00  0.00     0.253 C 
HETATM   13  C   UNK N   1      33.875  10.438  14.006  0.00  0.00     0.006 C 
HETATM   14  C   UNK N   1      37.623   9.993  14.930  0.00  0.00     0.048 C 
HETATM   15  C   UNK N   1      35.311   8.389  14.042  0.00  0.00     0.040 C 
HETATM   16  C   UNK N   1      37.770   8.691  14.131  0.00  0.00     0.253 C 
HETATM   17  C   UNK N   1      36.362  14.483  11.762  0.00  0.00     0.018 C 
HETATM   18  C   UNK N   1      36.204  11.976  15.304  0.00  0.00     0.016 C 
HETATM   19  C   UNK N   1      36.640   7.712  14.437  0.00  0.00     0.165 C 
ENDROOT
BRANCH  12  20
HETATM   20  N   UNK N   1      34.355  14.236   8.067  0.00  0.00     0.099 N 
HETATM   21  C   UNK N   1      32.922  14.411   8.381  0.00  0.00     0.301 C 
HETATM   22  C   UNK N   1      32.158  15.199   7.320  0.00  0.00     0.266 C 
HETATM   23  N   UNK N   1      32.770  16.506   7.110  0.00  0.00    -0.071 N 
HETATM   24  C   UNK N   1      34.158  16.323   6.687  0.00  0.00     0.266 C 
HETATM   25  C   UNK N   1      32.683  17.334   8.311  0.00  0.00     0.272 C 
HETATM   26  C   UNK N   1      32.043  17.184   6.054  0.00  0.00     0.272 C 
HETATM   27  C   UNK N   1      34.959  15.535   7.732  0.00  0.00     0.301 C 
ENDBRANCH  12  20
BRANCH   9  28
HETATM   28  O   UNK N   1      37.058  12.722   8.617  0.00  0.00    -0.313 OA
BRANCH  28  29
HETATM   29  C   UNK N   1      37.816  13.018   7.535  0.00  0.00     0.255 C 
HETATM   30  O   UNK N   1      37.396  12.759   6.419  0.00  0.00    -0.266 OA
HETATM   31  C   UNK N   1      39.172  13.631   7.681  0.00  0.00     0.126 C 
ENDBRANCH  28  29
ENDBRANCH   9  28
BRANCH  16  32
HETATM   32  N   UNK N   1      39.112   8.110  14.134  0.00  0.00     0.099 N 
HETATM   33  C   UNK N   1      40.011   8.846  15.033  0.00  0.00     0.301 C 
HETATM   34  C   UNK N   1      41.497   8.560  14.746  0.00  0.00     0.266 C 
HETATM   35  N   UNK N   1      41.704   7.401  13.869  0.00  0.00    -0.071 N 
HETATM   36  C   UNK N   1      40.954   7.488  12.611  0.00  0.00     0.266 C 
HETATM   37  C   UNK N   1      43.113   7.343  13.533  0.00  0.00     0.272 C 
HETATM   38  C   UNK N   1      41.363   6.167  14.562  0.00  0.00     0.272 C 
HETATM   39  C   UNK N   1      39.601   8.187  12.759  0.00  0.00     0.301 C 
ENDBRANCH  16  32
BRANCH  19  40
HETATM   40  O   UNK N   1      36.752   7.226  15.737  0.00  0.00    -0.314 OA
BRANCH  40  41
HETATM   41  C   UNK N   1      35.785   6.821  16.606  0.00  0.00     0.255 C 
HETATM   42  O   UNK N   1      35.253   5.729  16.514  0.00  0.00    -0.266 OA
HETATM   43  C   UNK N   1      35.401   7.728  17.724  0.00  0.00     0.126 C 
ENDBRANCH  40  41
ENDBRANCH  19  40
TORSDOF 6
ENDMDL
