REMARK  10 active torsions:
REMARK  status: ('A' for Active; 'I' for Inactive)
REMARK    1  A    between atoms: O_2  and  C_19 
REMARK    2  A    between atoms: O_4  and  C_22 
REMARK    3  A    between atoms: O_4  and  C_26 
REMARK    4  A    between atoms: C_10  and  N_8 
REMARK    5  A    between atoms: C_18  and  N_8 
REMARK    6  A    between atoms: C_9  and  C_19 
REMARK    7  A    between atoms: C_18  and  C_20 
REMARK    8  A    between atoms: C_18  and  C_22 
REMARK    9  A    between atoms: C_20  and  C_21 
REMARK   10  A    between atoms: C_21  and  C_23 
ROOT
HETATM    1  O   UNK N   1       6.319   1.605  -0.216  0.00  0.00    -0.270 OA
HETATM    2  N   UNK N   1       2.909   2.049   0.614  0.00  0.00    -0.226 NA
HETATM    3  N   UNK N   1       4.124   1.388   0.308  0.00  0.00    -0.264 N 
HETATM    4  C   UNK N   1       4.158  -0.095   0.422  0.00  0.00     0.203 C 
HETATM    5  C   UNK N   1       5.175   3.663  -0.230  0.00  0.00     0.171 C 
HETATM    6  C   UNK N   1       1.898   1.124   1.158  0.00  0.00     0.114 C 
HETATM    7  C   UNK N   1       2.327   2.634  -0.590  0.00  0.00     0.114 C 
HETATM    8  C   UNK N   1       2.949  -0.678  -0.295  0.00  0.00     0.039 C 
HETATM    9  C   UNK N   1       4.161   4.091  -1.275  0.00  0.00     0.035 C 
HETATM   10  C   UNK N   1       1.650  -0.081   0.237  0.00  0.00     0.019 C 
HETATM   11  C   UNK N   1       2.759   4.068  -0.725  0.00  0.00     0.019 C 
HETATM   12  C   UNK N   1       5.234   2.143  -0.053  0.00  0.00     0.257 C 
ENDROOT
BRANCH   5  13
HETATM   13  N   UNK N   1       6.464   4.181  -0.692  0.00  0.00    -0.396 N 
HETATM   14  H   UNK N   1       6.730   4.311  -1.668  0.00  0.00     0.154 HD
BRANCH  13  15
HETATM   15  C   UNK N   1       7.305   4.482   0.454  0.00  0.00     0.178 C 
BRANCH  15  16
HETATM   16  C   UNK N   1       7.178   5.954   0.847  0.00  0.00     0.039 C 
BRANCH  16  17
HETATM   17  C   UNK N   1       5.780   6.269   1.360  0.00  0.00     0.041 C 
BRANCH  17  18
HETATM   18  C   UNK N   1       5.174   7.442   0.659  0.00  0.00    -0.058 A 
HETATM   19  C   UNK N   1       3.975   7.285  -0.045  0.00  0.00     0.007 A 
HETATM   20  C   UNK N   1       3.377   8.385  -0.671  0.00  0.00     0.001 A 
HETATM   21  C   UNK N   1       3.976   9.645  -0.591  0.00  0.00     0.000 A 
HETATM   22  C   UNK N   1       5.173   9.806   0.113  0.00  0.00     0.001 A 
HETATM   23  C   UNK N   1       5.771   8.707   0.740  0.00  0.00     0.007 A 
ENDBRANCH  17  18
ENDBRANCH  16  17
ENDBRANCH  15  16
BRANCH  15  24
HETATM   24  C   UNK N   1       8.736   4.103   0.150  0.00  0.00     0.281 C 
HETATM   25  O   UNK N   1       9.231   3.175   0.766  0.00  0.00    -0.263 OA
BRANCH  24  26
HETATM   26  O   UNK N   1       9.492   4.747  -0.780  0.00  0.00    -0.320 OA
BRANCH  26  27
HETATM   27  C   UNK N   1       9.072   5.850  -1.485  0.00  0.00     0.174 C 
HETATM   28  C   UNK N   1       9.892   7.053  -1.058  0.00  0.00     0.034 C 
ENDBRANCH  26  27
ENDBRANCH  24  26
ENDBRANCH  15  24
ENDBRANCH  13  15
ENDBRANCH   5  13
BRANCH   4  29
HETATM   29  C   UNK N   1       5.375  -0.856  -0.040  0.00  0.00     0.165 C 
HETATM   30  O   UNK N   1       5.798  -0.723  -1.179  0.00  0.00    -0.648 OA
BRANCH  29  31
HETATM   31  O   UNK N   1       5.893  -1.814   0.751  0.00  0.00    -0.775 OA
HETATM   32  H   UNK N   1       5.496  -2.459   1.303  0.00  0.00     0.167 HD
ENDBRANCH  29  31
ENDBRANCH   4  29
TORSDOF 10
