MODEL 1
REMARK VINA RESULT:      -7.3      0.000      0.000
REMARK  10 active torsions:
REMARK  status: ('A' for Active; 'I' for Inactive)
REMARK    1  A    between atoms: O_2  and  C_19 
REMARK    2  A    between atoms: O_4  and  C_22 
REMARK    3  A    between atoms: O_4  and  C_26 
REMARK    4  A    between atoms: C_10  and  N_8 
REMARK    5  A    between atoms: C_18  and  N_8 
REMARK    6  A    between atoms: C_9  and  C_19 
REMARK    7  A    between atoms: C_18  and  C_20 
REMARK    8  A    between atoms: C_18  and  C_22 
REMARK    9  A    between atoms: C_20  and  C_21 
REMARK   10  A    between atoms: C_21  and  C_23 
ROOT
HETATM    1  O   UNK N   1      28.551  23.764  -4.000  0.00  0.00    -0.270 OA
HETATM    2  N   UNK N   1      30.262  21.276  -5.843  0.00  0.00    -0.226 NA
HETATM    3  N   UNK N   1      29.973  22.190  -4.800  0.00  0.00    -0.264 N 
HETATM    4  C   UNK N   1      30.843  22.167  -3.593  0.00  0.00     0.203 C 
HETATM    5  C   UNK N   1      28.032  23.106  -6.200  0.00  0.00     0.171 C 
HETATM    6  C   UNK N   1      31.322  20.323  -5.466  0.00  0.00     0.114 C 
HETATM    7  C   UNK N   1      30.744  21.983  -7.026  0.00  0.00     0.114 C 
HETATM    8  C   UNK N   1      32.301  22.178  -4.029  0.00  0.00     0.039 C 
HETATM    9  C   UNK N   1      28.844  23.460  -7.432  0.00  0.00     0.035 C 
HETATM   10  C   UNK N   1      32.601  21.029  -4.987  0.00  0.00     0.019 C 
HETATM   11  C   UNK N   1      29.598  22.266  -7.957  0.00  0.00     0.019 C 
HETATM   12  C   UNK N   1      28.884  23.043  -4.929  0.00  0.00     0.257 C 
ENDROOT
BRANCH   5  13
HETATM   13  N   UNK N   1      27.009  24.147  -6.087  0.00  0.00    -0.396 N 
HETATM   14  H   UNK N   1      26.716  24.592  -5.217  0.00  0.00     0.154 HD
BRANCH  13  15
HETATM   15  C   UNK N   1      26.476  24.450  -7.405  0.00  0.00     0.178 C 
BRANCH  15  16
HETATM   16  C   UNK N   1      26.066  25.920  -7.499  0.00  0.00     0.039 C 
BRANCH  16  17
HETATM   17  C   UNK N   1      25.374  26.382  -6.224  0.00  0.00     0.041 C 
BRANCH  17  18
HETATM   18  C   UNK N   1      26.049  27.568  -5.615  0.00  0.00    -0.058 A 
HETATM   19  C   UNK N   1      27.116  28.177  -6.284  0.00  0.00     0.007 A 
HETATM   20  C   UNK N   1      27.730  29.314  -5.743  0.00  0.00     0.001 A 
HETATM   21  C   UNK N   1      27.274  29.845  -4.534  0.00  0.00     0.000 A 
HETATM   22  C   UNK N   1      26.206  29.240  -3.864  0.00  0.00     0.001 A 
HETATM   23  C   UNK N   1      25.592  28.104  -4.404  0.00  0.00     0.007 A 
ENDBRANCH  17  18
ENDBRANCH  16  17
ENDBRANCH  15  16
BRANCH  15  24
HETATM   24  C   UNK N   1      25.322  23.524  -7.713  0.00  0.00     0.281 C 
HETATM   25  O   UNK N   1      24.719  23.682  -8.761  0.00  0.00    -0.263 OA
BRANCH  24  26
HETATM   26  O   UNK N   1      24.930  22.524  -6.878  0.00  0.00    -0.320 OA
BRANCH  26  27
HETATM   27  C   UNK N   1      24.553  21.271  -7.300  0.00  0.00     0.174 C 
HETATM   28  C   UNK N   1      25.701  20.638  -8.063  0.00  0.00     0.034 C 
ENDBRANCH  26  27
ENDBRANCH  24  26
ENDBRANCH  15  24
ENDBRANCH  13  15
ENDBRANCH   5  13
BRANCH   4  29
HETATM   29  C   UNK N   1      30.676  23.220  -2.527  0.00  0.00     0.165 C 
HETATM   30  O   UNK N   1      30.214  22.931  -1.433  0.00  0.00    -0.648 OA
BRANCH  29  31
HETATM   31  O   UNK N   1      30.875  24.513  -2.841  0.00  0.00    -0.775 OA
HETATM   32  H   UNK N   1      31.178  24.933  -3.622  0.00  0.00     0.167 HD
ENDBRANCH  29  31
ENDBRANCH   4  29
TORSDOF 10
ENDMDL
MODEL 2
REMARK VINA RESULT:      -7.3      2.781      5.373
REMARK  10 active torsions:
REMARK  status: ('A' for Active; 'I' for Inactive)
REMARK    1  A    between atoms: O_2  and  C_19 
REMARK    2  A    between atoms: O_4  and  C_22 
REMARK    3  A    between atoms: O_4  and  C_26 
REMARK    4  A    between atoms: C_10  and  N_8 
REMARK    5  A    between atoms: C_18  and  N_8 
REMARK    6  A    between atoms: C_9  and  C_19 
REMARK    7  A    between atoms: C_18  and  C_20 
REMARK    8  A    between atoms: C_18  and  C_22 
REMARK    9  A    between atoms: C_20  and  C_21 
REMARK   10  A    between atoms: C_21  and  C_23 
ROOT
HETATM    1  O   UNK N   1      30.687  25.205  -2.969  0.00  0.00    -0.270 OA
HETATM    2  N   UNK N   1      29.294  23.748  -5.876  0.00  0.00    -0.226 NA
HETATM    3  N   UNK N   1      29.886  23.840  -4.592  0.00  0.00    -0.264 N 
HETATM    4  C   UNK N   1      30.033  22.589  -3.801  0.00  0.00     0.203 C 
HETATM    5  C   UNK N   1      30.179  26.360  -4.957  0.00  0.00     0.171 C 
HETATM    6  C   UNK N   1      28.771  22.396  -6.148  0.00  0.00     0.114 C 
HETATM    7  C   UNK N   1      30.280  24.025  -6.916  0.00  0.00     0.114 C 
HETATM    8  C   UNK N   1      30.651  21.512  -4.682  0.00  0.00     0.039 C 
HETATM    9  C   UNK N   1      30.972  26.268  -6.248  0.00  0.00     0.035 C 
HETATM   10  C   UNK N   1      29.837  21.306  -5.955  0.00  0.00     0.019 C 
HETATM   11  C   UNK N   1      30.231  25.479  -7.295  0.00  0.00     0.019 C 
HETATM   12  C   UNK N   1      30.275  25.086  -4.113  0.00  0.00     0.257 C 
ENDROOT
BRANCH   5  13
HETATM   13  N   UNK N   1      30.733  27.505  -4.232  0.00  0.00    -0.396 N 
HETATM   14  H   UNK N   1      31.725  27.669  -4.062  0.00  0.00     0.154 HD
BRANCH  13  15
HETATM   15  C   UNK N   1      29.652  28.370  -3.792  0.00  0.00     0.178 C 
BRANCH  15  16
HETATM   16  C   UNK N   1      29.258  29.350  -4.898  0.00  0.00     0.039 C 
BRANCH  16  17
HETATM   17  C   UNK N   1      27.754  29.583  -4.918  0.00  0.00     0.041 C 
BRANCH  17  18
HETATM   18  C   UNK N   1      27.019  28.464  -5.583  0.00  0.00    -0.058 A 
HETATM   19  C   UNK N   1      25.847  27.966  -5.006  0.00  0.00     0.007 A 
HETATM   20  C   UNK N   1      25.128  26.946  -5.641  0.00  0.00     0.001 A 
HETATM   21  C   UNK N   1      25.580  26.426  -6.856  0.00  0.00     0.000 A 
HETATM   22  C   UNK N   1      26.750  26.923  -7.437  0.00  0.00     0.001 A 
HETATM   23  C   UNK N   1      27.469  27.943  -6.803  0.00  0.00     0.007 A 
ENDBRANCH  17  18
ENDBRANCH  16  17
ENDBRANCH  15  16
BRANCH  15  24
HETATM   24  C   UNK N   1      30.056  29.087  -2.524  0.00  0.00     0.281 C 
HETATM   25  O   UNK N   1      31.108  28.775  -1.995  0.00  0.00    -0.263 OA
BRANCH  24  26
HETATM   26  O   UNK N   1      29.302  30.065  -1.953  0.00  0.00    -0.320 OA
BRANCH  26  27
HETATM   27  C   UNK N   1      28.184  29.827  -1.189  0.00  0.00     0.174 C 
HETATM   28  C   UNK N   1      28.522  30.062   0.272  0.00  0.00     0.034 C 
ENDBRANCH  26  27
ENDBRANCH  24  26
ENDBRANCH  15  24
ENDBRANCH  13  15
ENDBRANCH   5  13
BRANCH   4  29
HETATM   29  C   UNK N   1      30.795  22.608  -2.500  0.00  0.00     0.165 C 
HETATM   30  O   UNK N   1      31.902  22.097  -2.418  0.00  0.00    -0.648 OA
BRANCH  29  31
HETATM   31  O   UNK N   1      30.179  23.037  -1.382  0.00  0.00    -0.775 OA
HETATM   32  H   UNK N   1      29.451  23.610  -1.244  0.00  0.00     0.167 HD
ENDBRANCH  29  31
ENDBRANCH   4  29
TORSDOF 10
ENDMDL
MODEL 3
REMARK VINA RESULT:      -7.3     14.002     16.194
REMARK  10 active torsions:
REMARK  status: ('A' for Active; 'I' for Inactive)
REMARK    1  A    between atoms: O_2  and  C_19 
REMARK    2  A    between atoms: O_4  and  C_22 
REMARK    3  A    between atoms: O_4  and  C_26 
REMARK    4  A    between atoms: C_10  and  N_8 
REMARK    5  A    between atoms: C_18  and  N_8 
REMARK    6  A    between atoms: C_9  and  C_19 
REMARK    7  A    between atoms: C_18  and  C_20 
REMARK    8  A    between atoms: C_18  and  C_22 
REMARK    9  A    between atoms: C_20  and  C_21 
REMARK   10  A    between atoms: C_21  and  C_23 
ROOT
HETATM    1  O   UNK N   1      21.454  18.384   3.833  0.00  0.00    -0.270 OA
HETATM    2  N   UNK N   1      24.878  18.826   4.607  0.00  0.00    -0.226 NA
HETATM    3  N   UNK N   1      23.605  19.071   4.034  0.00  0.00    -0.264 N 
HETATM    4  C   UNK N   1      23.415  20.337   3.277  0.00  0.00     0.203 C 
HETATM    5  C   UNK N   1      22.807  16.814   4.951  0.00  0.00     0.171 C 
HETATM    6  C   UNK N   1      25.777  19.986   4.473  0.00  0.00     0.114 C 
HETATM    7  C   UNK N   1      25.537  17.712   3.932  0.00  0.00     0.114 C 
HETATM    8  C   UNK N   1      24.568  20.512   2.299  0.00  0.00     0.039 C 
HETATM    9  C   UNK N   1      23.877  15.961   4.296  0.00  0.00     0.035 C 
HETATM   10  C   UNK N   1      25.913  20.457   3.016  0.00  0.00     0.019 C 
HETATM   11  C   UNK N   1      25.260  16.429   4.666  0.00  0.00     0.019 C 
HETATM   12  C   UNK N   1      22.587  18.144   4.225  0.00  0.00     0.257 C 
ENDROOT
BRANCH   5  13
HETATM   13  N   UNK N   1      21.587  16.005   4.931  0.00  0.00    -0.396 N 
HETATM   14  H   UNK N   1      21.097  15.700   4.091  0.00  0.00     0.154 HD
BRANCH  13  15
HETATM   15  C   UNK N   1      21.183  15.703   6.294  0.00  0.00     0.178 C 
BRANCH  15  16
HETATM   16  C   UNK N   1      21.522  14.255   6.651  0.00  0.00     0.039 C 
BRANCH  16  17
HETATM   17  C   UNK N   1      22.777  14.178   7.508  0.00  0.00     0.041 C 
BRANCH  17  18
HETATM   18  C   UNK N   1      22.521  13.514   8.823  0.00  0.00    -0.058 A 
HETATM   19  C   UNK N   1      21.208  13.382   9.288  0.00  0.00     0.007 A 
HETATM   20  C   UNK N   1      20.953  12.726  10.498  0.00  0.00     0.001 A 
HETATM   21  C   UNK N   1      22.011  12.198  11.243  0.00  0.00     0.000 A 
HETATM   22  C   UNK N   1      23.324  12.327  10.780  0.00  0.00     0.001 A 
HETATM   23  C   UNK N   1      23.580  12.982   9.571  0.00  0.00     0.007 A 
ENDBRANCH  17  18
ENDBRANCH  16  17
ENDBRANCH  15  16
BRANCH  15  24
HETATM   24  C   UNK N   1      19.710  15.994   6.466  0.00  0.00     0.281 C 
HETATM   25  O   UNK N   1      19.037  16.176   5.466  0.00  0.00    -0.263 OA
BRANCH  24  26
HETATM   26  O   UNK N   1      19.104  16.058   7.682  0.00  0.00    -0.320 OA
BRANCH  26  27
HETATM   27  C   UNK N   1      19.710  16.532   8.821  0.00  0.00     0.174 C 
HETATM   28  C   UNK N   1      19.455  18.023   8.934  0.00  0.00     0.034 C 
ENDBRANCH  26  27
ENDBRANCH  24  26
ENDBRANCH  15  24
ENDBRANCH  13  15
ENDBRANCH   5  13
BRANCH   4  29
HETATM   29  C   UNK N   1      22.133  20.573   2.519  0.00  0.00     0.165 C 
HETATM   30  O   UNK N   1      22.083  20.403   1.309  0.00  0.00    -0.648 OA
BRANCH  29  31
HETATM   31  O   UNK N   1      21.088  21.138   3.151  0.00  0.00    -0.775 OA
HETATM   32  H   UNK N   1      20.697  20.981   3.989  0.00  0.00     0.167 HD
ENDBRANCH  29  31
ENDBRANCH   4  29
TORSDOF 10
ENDMDL
MODEL 4
REMARK VINA RESULT:      -7.2     11.479     14.432
REMARK  10 active torsions:
REMARK  status: ('A' for Active; 'I' for Inactive)
REMARK    1  A    between atoms: O_2  and  C_19 
REMARK    2  A    between atoms: O_4  and  C_22 
REMARK    3  A    between atoms: O_4  and  C_26 
REMARK    4  A    between atoms: C_10  and  N_8 
REMARK    5  A    between atoms: C_18  and  N_8 
REMARK    6  A    between atoms: C_9  and  C_19 
REMARK    7  A    between atoms: C_18  and  C_20 
REMARK    8  A    between atoms: C_18  and  C_22 
REMARK    9  A    between atoms: C_20  and  C_21 
REMARK   10  A    between atoms: C_21  and  C_23 
ROOT
HETATM    1  O   UNK N   1      23.550  19.448   4.067  0.00  0.00    -0.270 OA
HETATM    2  N   UNK N   1      22.180  16.306   3.191  0.00  0.00    -0.226 NA
HETATM    3  N   UNK N   1      22.278  17.709   3.362  0.00  0.00    -0.264 N 
HETATM    4  C   UNK N   1      21.185  18.555   2.811  0.00  0.00     0.203 C 
HETATM    5  C   UNK N   1      24.481  17.358   4.623  0.00  0.00     0.171 C 
HETATM    6  C   UNK N   1      21.043  15.932   2.331  0.00  0.00     0.114 C 
HETATM    7  C   UNK N   1      21.961  15.648   4.475  0.00  0.00     0.114 C 
HETATM    8  C   UNK N   1      19.844  17.980   3.242  0.00  0.00     0.039 C 
HETATM    9  C   UNK N   1      23.939  16.415   5.681  0.00  0.00     0.035 C 
HETATM   10  C   UNK N   1      19.713  16.517   2.831  0.00  0.00     0.019 C 
HETATM   11  C   UNK N   1      23.276  15.213   5.061  0.00  0.00     0.019 C 
HETATM   12  C   UNK N   1      23.392  18.238   4.003  0.00  0.00     0.257 C 
ENDROOT
BRANCH   5  13
HETATM   13  N   UNK N   1      25.487  18.179   5.301  0.00  0.00    -0.396 N 
HETATM   14  H   UNK N   1      25.360  18.640   6.201  0.00  0.00     0.154 HD
BRANCH  13  15
HETATM   15  C   UNK N   1      26.693  18.234   4.493  0.00  0.00     0.178 C 
BRANCH  15  16
HETATM   16  C   UNK N   1      27.776  17.324   5.074  0.00  0.00     0.039 C 
BRANCH  16  17
HETATM   17  C   UNK N   1      27.587  17.129   6.571  0.00  0.00     0.041 C 
BRANCH  17  18
HETATM   18  C   UNK N   1      28.804  17.517   7.348  0.00  0.00    -0.058 A 
HETATM   19  C   UNK N   1      28.675  18.341   8.471  0.00  0.00     0.007 A 
HETATM   20  C   UNK N   1      29.802  18.678   9.230  0.00  0.00     0.001 A 
HETATM   21  C   UNK N   1      31.060  18.189   8.867  0.00  0.00     0.000 A 
HETATM   22  C   UNK N   1      31.192  17.364   7.746  0.00  0.00     0.001 A 
HETATM   23  C   UNK N   1      30.065  17.026   6.988  0.00  0.00     0.007 A 
ENDBRANCH  17  18
ENDBRANCH  16  17
ENDBRANCH  15  16
BRANCH  15  24
HETATM   24  C   UNK N   1      27.164  19.665   4.377  0.00  0.00     0.281 C 
HETATM   25  O   UNK N   1      26.957  20.259   3.333  0.00  0.00    -0.263 OA
BRANCH  24  26
HETATM   26  O   UNK N   1      27.804  20.319   5.384  0.00  0.00    -0.320 OA
BRANCH  26  27
HETATM   27  C   UNK N   1      27.355  21.488   5.951  0.00  0.00     0.174 C 
HETATM   28  C   UNK N   1      26.461  21.156   7.131  0.00  0.00     0.034 C 
ENDBRANCH  26  27
ENDBRANCH  24  26
ENDBRANCH  15  24
ENDBRANCH  13  15
ENDBRANCH   5  13
BRANCH   4  29
HETATM   29  C   UNK N   1      21.162  20.035   3.101  0.00  0.00     0.165 C 
HETATM   30  O   UNK N   1      20.415  20.492   3.954  0.00  0.00    -0.648 OA
BRANCH  29  31
HETATM   31  O   UNK N   1      21.842  20.874   2.299  0.00  0.00    -0.775 OA
HETATM   32  H   UNK N   1      21.566  21.470   1.630  0.00  0.00     0.167 HD
ENDBRANCH  29  31
ENDBRANCH   4  29
TORSDOF 10
ENDMDL
MODEL 5
REMARK VINA RESULT:      -7.1      2.421      5.627
REMARK  10 active torsions:
REMARK  status: ('A' for Active; 'I' for Inactive)
REMARK    1  A    between atoms: O_2  and  C_19 
REMARK    2  A    between atoms: O_4  and  C_22 
REMARK    3  A    between atoms: O_4  and  C_26 
REMARK    4  A    between atoms: C_10  and  N_8 
REMARK    5  A    between atoms: C_18  and  N_8 
REMARK    6  A    between atoms: C_9  and  C_19 
REMARK    7  A    between atoms: C_18  and  C_20 
REMARK    8  A    between atoms: C_18  and  C_22 
REMARK    9  A    between atoms: C_20  and  C_21 
REMARK   10  A    between atoms: C_21  and  C_23 
ROOT
HETATM    1  O   UNK N   1      25.328  23.710  -5.940  0.00  0.00    -0.270 OA
HETATM    2  N   UNK N   1      28.573  22.901  -7.094  0.00  0.00    -0.226 NA
HETATM    3  N   UNK N   1      27.165  22.846  -6.951  0.00  0.00    -0.264 N 
HETATM    4  C   UNK N   1      26.408  21.933  -7.849  0.00  0.00     0.203 C 
HETATM    5  C   UNK N   1      27.337  24.550  -5.043  0.00  0.00     0.171 C 
HETATM    6  C   UNK N   1      29.041  22.125  -8.257  0.00  0.00     0.114 C 
HETATM    7  C   UNK N   1      29.230  22.327  -5.924  0.00  0.00     0.114 C 
HETATM    8  C   UNK N   1      27.075  20.566  -7.847  0.00  0.00     0.039 C 
HETATM    9  C   UNK N   1      28.305  23.761  -4.180  0.00  0.00     0.035 C 
HETATM   10  C   UNK N   1      28.549  20.669  -8.227  0.00  0.00     0.019 C 
HETATM   11  C   UNK N   1      29.559  23.411  -4.936  0.00  0.00     0.019 C 
HETATM   12  C   UNK N   1      26.547  23.660  -6.008  0.00  0.00     0.257 C 
ENDROOT
BRANCH   5  13
HETATM   13  N   UNK N   1      26.436  25.230  -4.111  0.00  0.00    -0.396 N 
HETATM   14  H   UNK N   1      25.986  24.795  -3.305  0.00  0.00     0.154 HD
BRANCH  13  15
HETATM   15  C   UNK N   1      26.284  26.619  -4.509  0.00  0.00     0.178 C 
BRANCH  15  16
HETATM   16  C   UNK N   1      27.494  27.086  -5.319  0.00  0.00     0.039 C 
BRANCH  16  17
HETATM   17  C   UNK N   1      27.062  27.789  -6.598  0.00  0.00     0.041 C 
BRANCH  17  18
HETATM   18  C   UNK N   1      27.033  26.861  -7.769  0.00  0.00    -0.058 A 
HETATM   19  C   UNK N   1      28.233  26.472  -8.375  0.00  0.00     0.007 A 
HETATM   20  C   UNK N   1      28.221  25.571  -9.446  0.00  0.00     0.001 A 
HETATM   21  C   UNK N   1      27.009  25.056  -9.912  0.00  0.00     0.000 A 
HETATM   22  C   UNK N   1      25.808  25.440  -9.308  0.00  0.00     0.001 A 
HETATM   23  C   UNK N   1      25.819  26.340  -8.236  0.00  0.00     0.007 A 
ENDBRANCH  17  18
ENDBRANCH  16  17
ENDBRANCH  15  16
BRANCH  15  24
HETATM   24  C   UNK N   1      26.061  27.478  -3.286  0.00  0.00     0.281 C 
HETATM   25  O   UNK N   1      26.065  26.939  -2.193  0.00  0.00    -0.263 OA
BRANCH  24  26
HETATM   26  O   UNK N   1      25.862  28.823  -3.351  0.00  0.00    -0.320 OA
BRANCH  26  27
HETATM   27  C   UNK N   1      26.838  29.759  -3.107  0.00  0.00     0.174 C 
HETATM   28  C   UNK N   1      26.926  30.703  -4.292  0.00  0.00     0.034 C 
ENDBRANCH  26  27
ENDBRANCH  24  26
ENDBRANCH  15  24
ENDBRANCH  13  15
ENDBRANCH   5  13
BRANCH   4  29
HETATM   29  C   UNK N   1      24.930  21.722  -7.634  0.00  0.00     0.165 C 
HETATM   30  O   UNK N   1      24.526  20.773  -6.979  0.00  0.00    -0.648 OA
BRANCH  29  31
HETATM   31  O   UNK N   1      24.050  22.484  -8.309  0.00  0.00    -0.775 OA
HETATM   32  H   UNK N   1      24.122  23.331  -8.703  0.00  0.00     0.167 HD
ENDBRANCH  29  31
ENDBRANCH   4  29
TORSDOF 10
ENDMDL
MODEL 6
REMARK VINA RESULT:      -7.1      2.544      5.021
REMARK  10 active torsions:
REMARK  status: ('A' for Active; 'I' for Inactive)
REMARK    1  A    between atoms: O_2  and  C_19 
REMARK    2  A    between atoms: O_4  and  C_22 
REMARK    3  A    between atoms: O_4  and  C_26 
REMARK    4  A    between atoms: C_10  and  N_8 
REMARK    5  A    between atoms: C_18  and  N_8 
REMARK    6  A    between atoms: C_9  and  C_19 
REMARK    7  A    between atoms: C_18  and  C_20 
REMARK    8  A    between atoms: C_18  and  C_22 
REMARK    9  A    between atoms: C_20  and  C_21 
REMARK   10  A    between atoms: C_21  and  C_23 
ROOT
HETATM    1  O   UNK N   1      28.744  25.392  -2.981  0.00  0.00    -0.270 OA
HETATM    2  N   UNK N   1      29.362  23.603  -5.969  0.00  0.00    -0.226 NA
HETATM    3  N   UNK N   1      29.247  23.869  -4.583  0.00  0.00    -0.264 N 
HETATM    4  C   UNK N   1      29.416  22.731  -3.639  0.00  0.00     0.203 C 
HETATM    5  C   UNK N   1      28.844  26.339  -5.135  0.00  0.00     0.171 C 
HETATM    6  C   UNK N   1      29.483  22.160  -6.248  0.00  0.00     0.114 C 
HETATM    7  C   UNK N   1      30.562  24.230  -6.514  0.00  0.00     0.114 C 
HETATM    8  C   UNK N   1      30.673  21.958  -4.010  0.00  0.00     0.039 C 
HETATM    9  C   UNK N   1      30.116  26.558  -5.934  0.00  0.00     0.035 C 
HETATM   10  C   UNK N   1      30.635  21.508  -5.467  0.00  0.00     0.019 C 
HETATM   11  C   UNK N   1      30.224  25.583  -7.076  0.00  0.00     0.019 C 
HETATM   12  C   UNK N   1      28.954  25.161  -4.162  0.00  0.00     0.257 C 
ENDROOT
BRANCH   5  13
HETATM   13  N   UNK N   1      28.610  27.589  -4.409  0.00  0.00    -0.396 N 
HETATM   14  H   UNK N   1      29.339  28.208  -4.054  0.00  0.00     0.154 HD
BRANCH  13  15
HETATM   15  C   UNK N   1      27.181  27.812  -4.275  0.00  0.00     0.178 C 
BRANCH  15  16
HETATM   16  C   UNK N   1      26.533  28.015  -5.645  0.00  0.00     0.039 C 
BRANCH  16  17
HETATM   17  C   UNK N   1      25.251  27.205  -5.774  0.00  0.00     0.041 C 
BRANCH  17  18
HETATM   18  C   UNK N   1      25.510  25.816  -6.264  0.00  0.00    -0.058 A 
HETATM   19  C   UNK N   1      25.820  25.604  -7.612  0.00  0.00     0.007 A 
HETATM   20  C   UNK N   1      26.104  24.313  -8.074  0.00  0.00     0.001 A 
HETATM   21  C   UNK N   1      26.081  23.233  -7.187  0.00  0.00     0.000 A 
HETATM   22  C   UNK N   1      25.774  23.442  -5.839  0.00  0.00     0.001 A 
HETATM   23  C   UNK N   1      25.491  24.732  -5.377  0.00  0.00     0.007 A 
ENDBRANCH  17  18
ENDBRANCH  16  17
ENDBRANCH  15  16
BRANCH  15  24
HETATM   24  C   UNK N   1      26.932  28.986  -3.356  0.00  0.00     0.281 C 
HETATM   25  O   UNK N   1      26.277  29.922  -3.780  0.00  0.00    -0.263 OA
BRANCH  24  26
HETATM   26  O   UNK N   1      27.403  29.043  -2.081  0.00  0.00    -0.320 OA
BRANCH  26  27
HETATM   27  C   UNK N   1      28.142  30.087  -1.577  0.00  0.00     0.174 C 
HETATM   28  C   UNK N   1      28.346  29.877  -0.089  0.00  0.00     0.034 C 
ENDBRANCH  26  27
ENDBRANCH  24  26
ENDBRANCH  15  24
ENDBRANCH  13  15
ENDBRANCH   5  13
BRANCH   4  29
HETATM   29  C   UNK N   1      29.458  22.987  -2.154  0.00  0.00     0.165 C 
HETATM   30  O   UNK N   1      30.524  23.015  -1.556  0.00  0.00    -0.648 OA
BRANCH  29  31
HETATM   31  O   UNK N   1      28.307  23.013  -1.456  0.00  0.00    -0.775 OA
HETATM   32  H   UNK N   1      28.107  23.275  -0.579  0.00  0.00     0.167 HD
ENDBRANCH  29  31
ENDBRANCH   4  29
TORSDOF 10
ENDMDL
MODEL 7
REMARK VINA RESULT:      -7.1      2.179      3.334
REMARK  10 active torsions:
REMARK  status: ('A' for Active; 'I' for Inactive)
REMARK    1  A    between atoms: O_2  and  C_19 
REMARK    2  A    between atoms: O_4  and  C_22 
REMARK    3  A    between atoms: O_4  and  C_26 
REMARK    4  A    between atoms: C_10  and  N_8 
REMARK    5  A    between atoms: C_18  and  N_8 
REMARK    6  A    between atoms: C_9  and  C_19 
REMARK    7  A    between atoms: C_18  and  C_20 
REMARK    8  A    between atoms: C_18  and  C_22 
REMARK    9  A    between atoms: C_20  and  C_21 
REMARK   10  A    between atoms: C_21  and  C_23 
ROOT
HETATM    1  O   UNK N   1      28.389  22.414  -7.054  0.00  0.00    -0.270 OA
HETATM    2  N   UNK N   1      29.196  24.211  -4.115  0.00  0.00    -0.226 NA
HETATM    3  N   UNK N   1      29.290  23.244  -5.146  0.00  0.00    -0.264 N 
HETATM    4  C   UNK N   1      30.498  22.376  -5.179  0.00  0.00     0.203 C 
HETATM    5  C   UNK N   1      27.008  24.016  -6.020  0.00  0.00     0.171 C 
HETATM    6  C   UNK N   1      30.432  24.289  -3.315  0.00  0.00     0.114 C 
HETATM    7  C   UNK N   1      28.124  23.865  -3.186  0.00  0.00     0.114 C 
HETATM    8  C   UNK N   1      30.743  21.810  -3.788  0.00  0.00     0.039 C 
HETATM    9  C   UNK N   1      26.236  23.802  -4.731  0.00  0.00     0.035 C 
HETATM   10  C   UNK N   1      30.851  22.923  -2.750  0.00  0.00     0.019 C 
HETATM   11  C   UNK N   1      26.853  24.562  -3.586  0.00  0.00     0.019 C 
HETATM   12  C   UNK N   1      28.278  23.164  -6.096  0.00  0.00     0.257 C 
ENDROOT
BRANCH   5  13
HETATM   13  N   UNK N   1      26.083  23.665  -7.099  0.00  0.00    -0.396 N 
HETATM   14  H   UNK N   1      25.454  22.862  -7.097  0.00  0.00     0.154 HD
BRANCH  13  15
HETATM   15  C   UNK N   1      26.199  24.636  -8.173  0.00  0.00     0.178 C 
BRANCH  15  16
HETATM   16  C   UNK N   1      25.698  26.008  -7.720  0.00  0.00     0.039 C 
BRANCH  16  17
HETATM   17  C   UNK N   1      26.852  26.985  -7.544  0.00  0.00     0.041 C 
BRANCH  17  18
HETATM   18  C   UNK N   1      26.719  27.793  -6.293  0.00  0.00    -0.058 A 
HETATM   19  C   UNK N   1      27.549  28.901  -6.092  0.00  0.00     0.007 A 
HETATM   20  C   UNK N   1      27.407  29.689  -4.944  0.00  0.00     0.001 A 
HETATM   21  C   UNK N   1      26.430  29.372  -3.996  0.00  0.00     0.000 A 
HETATM   22  C   UNK N   1      25.598  28.266  -4.194  0.00  0.00     0.001 A 
HETATM   23  C   UNK N   1      25.739  27.479  -5.342  0.00  0.00     0.007 A 
ENDBRANCH  17  18
ENDBRANCH  16  17
ENDBRANCH  15  16
BRANCH  15  24
HETATM   24  C   UNK N   1      25.455  24.141  -9.392  0.00  0.00     0.281 C 
HETATM   25  O   UNK N   1      25.696  23.018  -9.799  0.00  0.00    -0.263 OA
BRANCH  24  26
HETATM   26  O   UNK N   1      24.528  24.889 -10.050  0.00  0.00    -0.320 OA
BRANCH  26  27
HETATM   27  C   UNK N   1      24.743  25.482 -11.271  0.00  0.00     0.174 C 
HETATM   28  C   UNK N   1      23.992  26.800 -11.321  0.00  0.00     0.034 C 
ENDBRANCH  26  27
ENDBRANCH  24  26
ENDBRANCH  15  24
ENDBRANCH  13  15
ENDBRANCH   5  13
BRANCH   4  29
HETATM   29  C   UNK N   1      30.575  21.232  -6.158  0.00  0.00     0.165 C 
HETATM   30  O   UNK N   1      30.377  20.083  -5.791  0.00  0.00    -0.648 OA
BRANCH  29  31
HETATM   31  O   UNK N   1      31.033  21.460  -7.403  0.00  0.00    -0.775 OA
HETATM   32  H   UNK N   1      30.851  21.051  -8.227  0.00  0.00     0.167 HD
ENDBRANCH  29  31
ENDBRANCH   4  29
TORSDOF 10
ENDMDL
MODEL 8
REMARK VINA RESULT:      -7.0     17.262     21.516
REMARK  10 active torsions:
REMARK  status: ('A' for Active; 'I' for Inactive)
REMARK    1  A    between atoms: O_2  and  C_19 
REMARK    2  A    between atoms: O_4  and  C_22 
REMARK    3  A    between atoms: O_4  and  C_26 
REMARK    4  A    between atoms: C_10  and  N_8 
REMARK    5  A    between atoms: C_18  and  N_8 
REMARK    6  A    between atoms: C_9  and  C_19 
REMARK    7  A    between atoms: C_18  and  C_20 
REMARK    8  A    between atoms: C_18  and  C_22 
REMARK    9  A    between atoms: C_20  and  C_21 
REMARK   10  A    between atoms: C_21  and  C_23 
ROOT
HETATM    1  O   UNK N   1      34.666  16.496  10.000  0.00  0.00    -0.270 OA
HETATM    2  N   UNK N   1      34.764  14.660   6.978  0.00  0.00    -0.226 NA
HETATM    3  N   UNK N   1      34.650  15.768   7.853  0.00  0.00    -0.264 N 
HETATM    4  C   UNK N   1      34.562  17.126   7.250  0.00  0.00     0.203 C 
HETATM    5  C   UNK N   1      34.681  14.147   9.838  0.00  0.00     0.171 C 
HETATM    6  C   UNK N   1      34.934  15.079   5.575  0.00  0.00     0.114 C 
HETATM    7  C   UNK N   1      33.553  13.846   7.021  0.00  0.00     0.114 C 
HETATM    8  C   UNK N   1      33.519  17.113   6.143  0.00  0.00     0.039 C 
HETATM    9  C   UNK N   1      33.505  13.295   9.398  0.00  0.00     0.035 C 
HETATM   10  C   UNK N   1      33.823  16.033   5.109  0.00  0.00     0.019 C 
HETATM   11  C   UNK N   1      33.718  12.732   8.018  0.00  0.00     0.019 C 
HETATM   12  C   UNK N   1      34.655  15.551   9.226  0.00  0.00     0.257 C 
ENDROOT
BRANCH   5  13
HETATM   13  N   UNK N   1      34.596  14.218  11.298  0.00  0.00    -0.396 N 
HETATM   14  H   UNK N   1      34.296  15.034  11.831  0.00  0.00     0.154 HD
BRANCH  13  15
HETATM   15  C   UNK N   1      35.005  12.946  11.870  0.00  0.00     0.178 C 
BRANCH  15  16
HETATM   16  C   UNK N   1      35.105  13.044  13.392  0.00  0.00     0.039 C 
BRANCH  16  17
HETATM   17  C   UNK N   1      34.533  11.804  14.064  0.00  0.00     0.041 C 
BRANCH  17  18
HETATM   18  C   UNK N   1      34.757  11.810  15.542  0.00  0.00    -0.058 A 
HETATM   19  C   UNK N   1      34.974  10.602  16.214  0.00  0.00     0.007 A 
HETATM   20  C   UNK N   1      35.226  10.599  17.592  0.00  0.00     0.001 A 
HETATM   21  C   UNK N   1      35.263  11.804  18.298  0.00  0.00     0.000 A 
HETATM   22  C   UNK N   1      35.047  13.013  17.629  0.00  0.00     0.001 A 
HETATM   23  C   UNK N   1      34.797  13.017  16.252  0.00  0.00     0.007 A 
ENDBRANCH  17  18
ENDBRANCH  16  17
ENDBRANCH  15  16
BRANCH  15  24
HETATM   24  C   UNK N   1      36.308  12.502  11.248  0.00  0.00     0.281 C 
HETATM   25  O   UNK N   1      36.308  11.495  10.562  0.00  0.00    -0.263 OA
BRANCH  24  26
HETATM   26  O   UNK N   1      37.478  13.177  11.416  0.00  0.00    -0.320 OA
BRANCH  26  27
HETATM   27  C   UNK N   1      38.536  13.116  10.541  0.00  0.00     0.174 C 
HETATM   28  C   UNK N   1      38.344  14.160   9.458  0.00  0.00     0.034 C 
ENDBRANCH  26  27
ENDBRANCH  24  26
ENDBRANCH  15  24
ENDBRANCH  13  15
ENDBRANCH   5  13
BRANCH   4  29
HETATM   29  C   UNK N   1      34.284  18.320   8.127  0.00  0.00     0.165 C 
HETATM   30  O   UNK N   1      33.138  18.699   8.320  0.00  0.00    -0.648 OA
BRANCH  29  31
HETATM   31  O   UNK N   1      35.312  19.074   8.559  0.00  0.00    -0.775 OA
HETATM   32  H   UNK N   1      35.816  19.749   8.147  0.00  0.00     0.167 HD
ENDBRANCH  29  31
ENDBRANCH   4  29
TORSDOF 10
ENDMDL
MODEL 9
REMARK VINA RESULT:      -7.0     17.295     21.685
REMARK  10 active torsions:
REMARK  status: ('A' for Active; 'I' for Inactive)
REMARK    1  A    between atoms: O_2  and  C_19 
REMARK    2  A    between atoms: O_4  and  C_22 
REMARK    3  A    between atoms: O_4  and  C_26 
REMARK    4  A    between atoms: C_10  and  N_8 
REMARK    5  A    between atoms: C_18  and  N_8 
REMARK    6  A    between atoms: C_9  and  C_19 
REMARK    7  A    between atoms: C_18  and  C_20 
REMARK    8  A    between atoms: C_18  and  C_22 
REMARK    9  A    between atoms: C_20  and  C_21 
REMARK   10  A    between atoms: C_21  and  C_23 
ROOT
HETATM    1  O   UNK N   1      34.278  16.353   9.771  0.00  0.00    -0.270 OA
HETATM    2  N   UNK N   1      34.599  14.640   6.693  0.00  0.00    -0.226 NA
HETATM    3  N   UNK N   1      34.428  15.714   7.601  0.00  0.00    -0.264 N 
HETATM    4  C   UNK N   1      34.411  17.096   7.051  0.00  0.00     0.203 C 
HETATM    5  C   UNK N   1      34.272  14.013   9.512  0.00  0.00     0.171 C 
HETATM    6  C   UNK N   1      34.890  15.113   5.327  0.00  0.00     0.114 C 
HETATM    7  C   UNK N   1      33.376  13.847   6.602  0.00  0.00     0.114 C 
HETATM    8  C   UNK N   1      33.462  17.147   5.862  0.00  0.00     0.039 C 
HETATM    9  C   UNK N   1      33.124  13.201   8.942  0.00  0.00     0.035 C 
HETATM   10  C   UNK N   1      33.835  16.106   4.812  0.00  0.00     0.019 C 
HETATM   11  C   UNK N   1      33.442  12.691   7.561  0.00  0.00     0.019 C 
HETATM   12  C   UNK N   1      34.317  15.440   8.960  0.00  0.00     0.257 C 
ENDROOT
BRANCH   5  13
HETATM   13  N   UNK N   1      34.068  14.025  10.962  0.00  0.00    -0.396 N 
HETATM   14  H   UNK N   1      33.255  14.416  11.438  0.00  0.00     0.154 HD
BRANCH  13  15
HETATM   15  C   UNK N   1      35.201  13.393  11.617  0.00  0.00     0.178 C 
BRANCH  15  16
HETATM   16  C   UNK N   1      34.884  11.937  11.960  0.00  0.00     0.039 C 
BRANCH  16  17
HETATM   17  C   UNK N   1      36.158  11.116  12.109  0.00  0.00     0.041 C 
BRANCH  17  18
HETATM   18  C   UNK N   1      36.255  10.467  13.452  0.00  0.00    -0.058 A 
HETATM   19  C   UNK N   1      37.497  10.381  14.091  0.00  0.00     0.007 A 
HETATM   20  C   UNK N   1      37.594   9.811  15.366  0.00  0.00     0.001 A 
HETATM   21  C   UNK N   1      36.448   9.329  16.005  0.00  0.00     0.000 A 
HETATM   22  C   UNK N   1      35.206   9.415  15.370  0.00  0.00     0.001 A 
HETATM   23  C   UNK N   1      35.108   9.985  14.096  0.00  0.00     0.007 A 
ENDBRANCH  17  18
ENDBRANCH  16  17
ENDBRANCH  15  16
BRANCH  15  24
HETATM   24  C   UNK N   1      35.590  14.187  12.842  0.00  0.00     0.281 C 
HETATM   25  O   UNK N   1      36.179  15.242  12.683  0.00  0.00    -0.263 OA
BRANCH  24  26
HETATM   26  O   UNK N   1      35.309  13.780  14.110  0.00  0.00    -0.320 OA
BRANCH  26  27
HETATM   27  C   UNK N   1      36.240  13.706  15.119  0.00  0.00     0.174 C 
HETATM   28  C   UNK N   1      35.608  13.043  16.328  0.00  0.00     0.034 C 
ENDBRANCH  26  27
ENDBRANCH  24  26
ENDBRANCH  15  24
ENDBRANCH  13  15
ENDBRANCH   5  13
BRANCH   4  29
HETATM   29  C   UNK N   1      34.078  18.258   7.952  0.00  0.00     0.165 C 
HETATM   30  O   UNK N   1      34.959  18.999   8.365  0.00  0.00    -0.648 OA
BRANCH  29  31
HETATM   31  O   UNK N   1      32.830  18.377   8.442  0.00  0.00    -0.775 OA
HETATM   32  H   UNK N   1      32.488  18.333   9.313  0.00  0.00     0.167 HD
ENDBRANCH  29  31
ENDBRANCH   4  29
TORSDOF 10
ENDMDL
