MODEL 1
REMARK VINA RESULT:      -6.5      0.000      0.000
REMARK  11 active torsions:
REMARK  status: ('A' for Active; 'I' for Inactive)
REMARK    1  A    between atoms: O_4  and  C_17 
REMARK    2  A    between atoms: O_6  and  C_23 
REMARK    3  A    between atoms: O_6  and  C_27 
REMARK       I    between atoms: N_8  and  C_14 
REMARK    4  A    between atoms: C_18  and  N_9 
REMARK    5  A    between atoms: C_19  and  N_9 
REMARK    6  A    between atoms: C_12  and  C_17 
REMARK    7  A    between atoms: C_14  and  C_18 
REMARK    8  A    between atoms: C_19  and  C_21 
REMARK    9  A    between atoms: C_19  and  C_23 
REMARK   10  A    between atoms: C_21  and  C_22 
REMARK   11  A    between atoms: C_22  and  C_24 
ROOT
HETATM    1  C   UNK N   1      25.819  22.784  -7.604  0.00  0.00     0.166 C 
HETATM    2  C   UNK N   1      25.155  21.424  -7.479  0.00  0.00     0.042 C 
ENDROOT
BRANCH   1   3
HETATM    3  N   UNK N   1      24.926  23.785  -8.190  0.00  0.00    -0.397 N 
HETATM    4  H   UNK N   1      23.915  23.791  -8.046  0.00  0.00     0.154 HD
BRANCH   3   5
HETATM    5  C   UNK N   1      25.636  24.784  -9.011  0.00  0.00     0.178 C 
BRANCH   5   6
HETATM    6  C   UNK N   1      25.518  26.185  -8.412  0.00  0.00     0.039 C 
BRANCH   6   7
HETATM    7  C   UNK N   1      26.844  26.632  -7.824  0.00  0.00     0.041 C 
BRANCH   7   8
HETATM    8  C   UNK N   1      26.629  27.442  -6.594  0.00  0.00    -0.058 A 
HETATM    9  C   UNK N   1      27.534  28.447  -6.233  0.00  0.00     0.007 A 
HETATM   10  C   UNK N   1      27.300  29.216  -5.087  0.00  0.00     0.001 A 
HETATM   11  C   UNK N   1      26.167  28.977  -4.302  0.00  0.00     0.000 A 
HETATM   12  C   UNK N   1      25.265  27.974  -4.664  0.00  0.00     0.001 A 
HETATM   13  C   UNK N   1      25.494  27.212  -5.811  0.00  0.00     0.007 A 
ENDBRANCH   7   8
ENDBRANCH   6   7
ENDBRANCH   5   6
BRANCH   5  14
HETATM   14  C   UNK N   1      25.504  24.626 -10.533  0.00  0.00     0.281 C 
HETATM   15  O   UNK N   1      26.448  24.168 -11.158  0.00  0.00    -0.263 OA
BRANCH  14  16
HETATM   16  O   UNK N   1      24.404  25.016 -11.232  0.00  0.00    -0.320 OA
BRANCH  16  17
HETATM   17  C   UNK N   1      24.382  26.072 -12.114  0.00  0.00     0.174 C 
HETATM   18  C   UNK N   1      23.538  27.204 -11.570  0.00  0.00     0.034 C 
ENDBRANCH  16  17
ENDBRANCH  14  16
ENDBRANCH   5  14
ENDBRANCH   3   5
ENDBRANCH   1   3
BRANCH   1  19
HETATM   19  C   UNK N   1      26.332  23.273  -6.280  0.00  0.00     0.242 C 
HETATM   20  O   UNK N   1      25.538  23.840  -5.544  0.00  0.00    -0.271 OA
HETATM   21  N   UNK N   1      27.642  23.096  -5.901  0.00  0.00    -0.333 N 
HETATM   22  C   UNK N   1      28.285  23.618  -4.719  0.00  0.00     0.187 C 
HETATM   23  C   UNK N   1      28.621  22.566  -6.802  0.00  0.00     0.158 C 
HETATM   24  C   UNK N   1      29.509  24.302  -5.302  0.00  0.00     0.069 C 
HETATM   25  C   UNK N   1      29.817  23.485  -6.570  0.00  0.00     0.074 C 
HETATM   26  S   UNK N   1      29.984  24.610  -8.003  0.00  0.00    -0.145 SA
HETATM   27  S   UNK N   1      31.318  22.480  -6.316  0.00  0.00    -0.145 SA
HETATM   28  C   UNK N   1      31.598  23.957  -8.495  0.00  0.00     0.086 C 
HETATM   29  C   UNK N   1      32.346  23.650  -7.231  0.00  0.00     0.086 C 
BRANCH  22  30
HETATM   30  C   UNK N   1      27.474  24.460  -3.766  0.00  0.00     0.163 C 
HETATM   31  O   UNK N   1      27.621  25.671  -3.750  0.00  0.00    -0.648 OA
BRANCH  30  32
HETATM   32  O   UNK N   1      26.540  23.893  -2.977  0.00  0.00    -0.775 OA
HETATM   33  H   UNK N   1      26.379  23.151  -2.430  0.00  0.00     0.167 HD
ENDBRANCH  30  32
ENDBRANCH  22  30
ENDBRANCH   1  19
TORSDOF 11
ENDMDL
MODEL 2
REMARK VINA RESULT:      -6.4     19.040     22.686
REMARK  11 active torsions:
REMARK  status: ('A' for Active; 'I' for Inactive)
REMARK    1  A    between atoms: O_4  and  C_17 
REMARK    2  A    between atoms: O_6  and  C_23 
REMARK    3  A    between atoms: O_6  and  C_27 
REMARK       I    between atoms: N_8  and  C_14 
REMARK    4  A    between atoms: C_18  and  N_9 
REMARK    5  A    between atoms: C_19  and  N_9 
REMARK    6  A    between atoms: C_12  and  C_17 
REMARK    7  A    between atoms: C_14  and  C_18 
REMARK    8  A    between atoms: C_19  and  C_21 
REMARK    9  A    between atoms: C_19  and  C_23 
REMARK   10  A    between atoms: C_21  and  C_22 
REMARK   11  A    between atoms: C_22  and  C_24 
ROOT
HETATM    1  C   UNK N   1      35.331  13.795   8.407  0.00  0.00     0.166 C 
HETATM    2  C   UNK N   1      36.819  13.525   8.546  0.00  0.00     0.042 C 
ENDROOT
BRANCH   1   3
HETATM    3  N   UNK N   1      34.556  13.195   9.494  0.00  0.00    -0.397 N 
HETATM    4  H   UNK N   1      33.537  13.122   9.485  0.00  0.00     0.154 HD
BRANCH   3   5
HETATM    5  C   UNK N   1      35.397  12.708  10.603  0.00  0.00     0.178 C 
BRANCH   5   6
HETATM    6  C   UNK N   1      35.343  11.185  10.718  0.00  0.00     0.039 C 
BRANCH   6   7
HETATM    7  C   UNK N   1      34.111  10.747  11.488  0.00  0.00     0.041 C 
BRANCH   7   8
HETATM    8  C   UNK N   1      34.472  10.345  12.875  0.00  0.00    -0.058 A 
HETATM    9  C   UNK N   1      33.748  10.829  13.970  0.00  0.00     0.007 A 
HETATM   10  C   UNK N   1      34.086  10.417  15.265  0.00  0.00     0.001 A 
HETATM   11  C   UNK N   1      35.148   9.529  15.463  0.00  0.00     0.000 A 
HETATM   12  C   UNK N   1      35.871   9.048  14.368  0.00  0.00     0.001 A 
HETATM   13  C   UNK N   1      35.528   9.452  13.077  0.00  0.00     0.007 A 
ENDBRANCH   7   8
ENDBRANCH   6   7
ENDBRANCH   5   6
BRANCH   5  14
HETATM   14  C   UNK N   1      35.362  13.539  11.895  0.00  0.00     0.281 C 
HETATM   15  O   UNK N   1      34.431  14.311  12.069  0.00  0.00    -0.263 OA
BRANCH  14  16
HETATM   16  O   UNK N   1      36.342  13.497  12.837  0.00  0.00    -0.320 OA
BRANCH  16  17
HETATM   17  C   UNK N   1      36.128  13.682  14.183  0.00  0.00     0.174 C 
HETATM   18  C   UNK N   1      37.025  12.774  14.997  0.00  0.00     0.034 C 
ENDBRANCH  16  17
ENDBRANCH  14  16
ENDBRANCH   5  14
ENDBRANCH   3   5
ENDBRANCH   1   3
BRANCH   1  19
HETATM   19  C   UNK N   1      35.041  15.265   8.326  0.00  0.00     0.242 C 
HETATM   20  O   UNK N   1      35.180  15.923   9.346  0.00  0.00    -0.271 OA
HETATM   21  N   UNK N   1      34.633  15.860   7.155  0.00  0.00    -0.333 N 
HETATM   22  C   UNK N   1      34.210  17.228   6.974  0.00  0.00     0.187 C 
HETATM   23  C   UNK N   1      34.325  15.089   5.988  0.00  0.00     0.158 C 
HETATM   24  C   UNK N   1      32.873  17.055   6.275  0.00  0.00     0.069 C 
HETATM   25  C   UNK N   1      33.035  15.738   5.493  0.00  0.00     0.074 C 
HETATM   26  S   UNK N   1      31.632  14.624   5.864  0.00  0.00    -0.145 SA
HETATM   27  S   UNK N   1      33.174  16.086   3.707  0.00  0.00    -0.145 SA
HETATM   28  C   UNK N   1      31.219  14.350   4.124  0.00  0.00     0.086 C 
HETATM   29  C   UNK N   1      31.446  15.652   3.413  0.00  0.00     0.086 C 
BRANCH  22  30
HETATM   30  C   UNK N   1      34.193  18.145   8.171  0.00  0.00     0.163 C 
HETATM   31  O   UNK N   1      35.020  19.037   8.263  0.00  0.00    -0.648 OA
BRANCH  30  32
HETATM   32  O   UNK N   1      33.232  18.030   9.108  0.00  0.00    -0.775 OA
HETATM   33  H   UNK N   1      32.304  17.999   9.222  0.00  0.00     0.167 HD
ENDBRANCH  30  32
ENDBRANCH  22  30
ENDBRANCH   1  19
TORSDOF 11
ENDMDL
MODEL 3
REMARK VINA RESULT:      -6.4     15.511     18.553
REMARK  11 active torsions:
REMARK  status: ('A' for Active; 'I' for Inactive)
REMARK    1  A    between atoms: O_4  and  C_17 
REMARK    2  A    between atoms: O_6  and  C_23 
REMARK    3  A    between atoms: O_6  and  C_27 
REMARK       I    between atoms: N_8  and  C_14 
REMARK    4  A    between atoms: C_18  and  N_9 
REMARK    5  A    between atoms: C_19  and  N_9 
REMARK    6  A    between atoms: C_12  and  C_17 
REMARK    7  A    between atoms: C_14  and  C_18 
REMARK    8  A    between atoms: C_19  and  C_21 
REMARK    9  A    between atoms: C_19  and  C_23 
REMARK   10  A    between atoms: C_21  and  C_22 
REMARK   11  A    between atoms: C_22  and  C_24 
ROOT
HETATM    1  C   UNK N   1      20.986  16.610   5.592  0.00  0.00     0.166 C 
HETATM    2  C   UNK N   1      21.360  18.030   5.978  0.00  0.00     0.042 C 
ENDROOT
BRANCH   1   3
HETATM    3  N   UNK N   1      19.891  16.084   6.409  0.00  0.00    -0.397 N 
HETATM    4  H   UNK N   1      19.170  15.458   6.048  0.00  0.00     0.154 HD
BRANCH   3   5
HETATM    5  C   UNK N   1      19.937  16.552   7.807  0.00  0.00     0.178 C 
BRANCH   5   6
HETATM    6  C   UNK N   1      20.893  15.707   8.648  0.00  0.00     0.039 C 
BRANCH   6   7
HETATM    7  C   UNK N   1      20.166  14.526   9.266  0.00  0.00     0.041 C 
BRANCH   7   8
HETATM    8  C   UNK N   1      21.127  13.603   9.928  0.00  0.00    -0.058 A 
HETATM    9  C   UNK N   1      22.486  13.624   9.592  0.00  0.00     0.007 A 
HETATM   10  C   UNK N   1      23.379  12.767  10.245  0.00  0.00     0.001 A 
HETATM   11  C   UNK N   1      22.913  11.887  11.227  0.00  0.00     0.000 A 
HETATM   12  C   UNK N   1      21.556  11.866  11.561  0.00  0.00     0.001 A 
HETATM   13  C   UNK N   1      20.668  12.726  10.915  0.00  0.00     0.007 A 
ENDBRANCH   7   8
ENDBRANCH   6   7
ENDBRANCH   5   6
BRANCH   5  14
HETATM   14  C   UNK N   1      18.593  16.968   8.425  0.00  0.00     0.281 C 
HETATM   15  O   UNK N   1      17.562  16.548   7.923  0.00  0.00    -0.263 OA
BRANCH  14  16
HETATM   16  O   UNK N   1      18.489  17.822   9.479  0.00  0.00    -0.320 OA
BRANCH  16  17
HETATM   17  C   UNK N   1      17.337  18.014  10.207  0.00  0.00     0.174 C 
HETATM   18  C   UNK N   1      17.585  18.967  11.357  0.00  0.00     0.034 C 
ENDBRANCH  16  17
ENDBRANCH  14  16
ENDBRANCH   5  14
ENDBRANCH   3   5
ENDBRANCH   1   3
BRANCH   1  19
HETATM   19  C   UNK N   1      20.631  16.507   4.138  0.00  0.00     0.242 C 
HETATM   20  O   UNK N   1      19.476  16.751   3.822  0.00  0.00    -0.271 OA
HETATM   21  N   UNK N   1      21.561  16.152   3.188  0.00  0.00    -0.333 N 
HETATM   22  C   UNK N   1      21.324  15.903   1.787  0.00  0.00     0.187 C 
HETATM   23  C   UNK N   1      22.879  15.724   3.550  0.00  0.00     0.158 C 
HETATM   24  C   UNK N   1      21.965  14.540   1.596  0.00  0.00     0.069 C 
HETATM   25  C   UNK N   1      23.096  14.516   2.641  0.00  0.00     0.074 C 
HETATM   26  S   UNK N   1      22.975  12.992   3.646  0.00  0.00    -0.145 SA
HETATM   27  S   UNK N   1      24.715  14.659   1.813  0.00  0.00    -0.145 SA
HETATM   28  C   UNK N   1      24.695  12.510   3.358  0.00  0.00     0.086 C 
HETATM   29  C   UNK N   1      25.020  12.884   1.941  0.00  0.00     0.086 C 
BRANCH  22  30
HETATM   30  C   UNK N   1      19.917  16.029   1.257  0.00  0.00     0.163 C 
HETATM   31  O   UNK N   1      19.251  15.026   1.060  0.00  0.00    -0.648 OA
BRANCH  30  32
HETATM   32  O   UNK N   1      19.366  17.243   1.063  0.00  0.00    -0.775 OA
HETATM   33  H   UNK N   1      19.434  18.016   0.540  0.00  0.00     0.167 HD
ENDBRANCH  30  32
ENDBRANCH  22  30
ENDBRANCH   1  19
TORSDOF 11
ENDMDL
MODEL 4
REMARK VINA RESULT:      -6.3     17.583     20.388
REMARK  11 active torsions:
REMARK  status: ('A' for Active; 'I' for Inactive)
REMARK    1  A    between atoms: O_4  and  C_17 
REMARK    2  A    between atoms: O_6  and  C_23 
REMARK    3  A    between atoms: O_6  and  C_27 
REMARK       I    between atoms: N_8  and  C_14 
REMARK    4  A    between atoms: C_18  and  N_9 
REMARK    5  A    between atoms: C_19  and  N_9 
REMARK    6  A    between atoms: C_12  and  C_17 
REMARK    7  A    between atoms: C_14  and  C_18 
REMARK    8  A    between atoms: C_19  and  C_21 
REMARK    9  A    between atoms: C_19  and  C_23 
REMARK   10  A    between atoms: C_21  and  C_22 
REMARK   11  A    between atoms: C_22  and  C_24 
ROOT
HETATM    1  C   UNK N   1      34.002  14.902   9.093  0.00  0.00     0.166 C 
HETATM    2  C   UNK N   1      32.533  14.560   8.917  0.00  0.00     0.042 C 
ENDROOT
BRANCH   1   3
HETATM    3  N   UNK N   1      34.267  16.328   8.894  0.00  0.00    -0.397 N 
HETATM    4  H   UNK N   1      34.406  16.987   9.661  0.00  0.00     0.154 HD
BRANCH   3   5
HETATM    5  C   UNK N   1      34.311  16.714   7.471  0.00  0.00     0.178 C 
BRANCH   5   6
HETATM    6  C   UNK N   1      33.138  17.622   7.103  0.00  0.00     0.039 C 
BRANCH   6   7
HETATM    7  C   UNK N   1      32.483  18.188   8.349  0.00  0.00     0.041 C 
BRANCH   7   8
HETATM    8  C   UNK N   1      31.009  17.992   8.307  0.00  0.00    -0.058 A 
HETATM    9  C   UNK N   1      30.182  18.577   9.272  0.00  0.00     0.007 A 
HETATM   10  C   UNK N   1      28.795  18.403   9.199  0.00  0.00     0.001 A 
HETATM   11  C   UNK N   1      28.237  17.641   8.167  0.00  0.00     0.000 A 
HETATM   12  C   UNK N   1      29.065  17.057   7.204  0.00  0.00     0.001 A 
HETATM   13  C   UNK N   1      30.447  17.237   7.273  0.00  0.00     0.007 A 
ENDBRANCH   7   8
ENDBRANCH   6   7
ENDBRANCH   5   6
BRANCH   5  14
HETATM   14  C   UNK N   1      34.720  15.612   6.483  0.00  0.00     0.281 C 
HETATM   15  O   UNK N   1      35.897  15.292   6.417  0.00  0.00    -0.263 OA
BRANCH  14  16
HETATM   16  O   UNK N   1      33.845  15.003   5.638  0.00  0.00    -0.320 OA
BRANCH  16  17
HETATM   17  C   UNK N   1      33.973  14.992   4.268  0.00  0.00     0.174 C 
HETATM   18  C   UNK N   1      33.216  16.150   3.652  0.00  0.00     0.034 C 
ENDBRANCH  16  17
ENDBRANCH  14  16
ENDBRANCH   5  14
ENDBRANCH   3   5
ENDBRANCH   1   3
BRANCH   1  19
HETATM   19  C   UNK N   1      34.512  14.473  10.437  0.00  0.00     0.242 C 
HETATM   20  O   UNK N   1      34.125  15.098  11.413  0.00  0.00    -0.271 OA
HETATM   21  N   UNK N   1      35.384  13.418  10.579  0.00  0.00    -0.333 N 
HETATM   22  C   UNK N   1      36.038  12.984  11.790  0.00  0.00     0.187 C 
HETATM   23  C   UNK N   1      35.963  12.764   9.444  0.00  0.00     0.158 C 
HETATM   24  C   UNK N   1      37.493  12.934  11.362  0.00  0.00     0.069 C 
HETATM   25  C   UNK N   1      37.424  12.612   9.858  0.00  0.00     0.074 C 
HETATM   26  S   UNK N   1      38.433  13.818   8.922  0.00  0.00    -0.145 SA
HETATM   27  S   UNK N   1      37.966  10.895   9.562  0.00  0.00    -0.145 SA
HETATM   28  C   UNK N   1      39.380  12.546   8.050  0.00  0.00     0.086 C 
HETATM   29  C   UNK N   1      39.606  11.428   9.025  0.00  0.00     0.086 C 
BRANCH  22  30
HETATM   30  C   UNK N   1      35.770  13.739  13.067  0.00  0.00     0.163 C 
HETATM   31  O   UNK N   1      34.971  13.298  13.877  0.00  0.00    -0.648 OA
BRANCH  30  32
HETATM   32  O   UNK N   1      36.454  14.864  13.353  0.00  0.00    -0.775 OA
HETATM   33  H   UNK N   1      37.149  15.411  13.046  0.00  0.00     0.167 HD
ENDBRANCH  30  32
ENDBRANCH  22  30
ENDBRANCH   1  19
TORSDOF 11
ENDMDL
MODEL 5
REMARK VINA RESULT:      -6.3      3.422      7.640
REMARK  11 active torsions:
REMARK  status: ('A' for Active; 'I' for Inactive)
REMARK    1  A    between atoms: O_4  and  C_17 
REMARK    2  A    between atoms: O_6  and  C_23 
REMARK    3  A    between atoms: O_6  and  C_27 
REMARK       I    between atoms: N_8  and  C_14 
REMARK    4  A    between atoms: C_18  and  N_9 
REMARK    5  A    between atoms: C_19  and  N_9 
REMARK    6  A    between atoms: C_12  and  C_17 
REMARK    7  A    between atoms: C_14  and  C_18 
REMARK    8  A    between atoms: C_19  and  C_21 
REMARK    9  A    between atoms: C_19  and  C_23 
REMARK   10  A    between atoms: C_21  and  C_22 
REMARK   11  A    between atoms: C_22  and  C_24 
ROOT
HETATM    1  C   UNK N   1      29.643  25.998  -4.164  0.00  0.00     0.166 C 
HETATM    2  C   UNK N   1      30.923  26.665  -3.693  0.00  0.00     0.042 C 
ENDROOT
BRANCH   1   3
HETATM    3  N   UNK N   1      29.261  24.870  -3.312  0.00  0.00    -0.397 N 
HETATM    4  H   UNK N   1      28.614  24.951  -2.527  0.00  0.00     0.154 HD
BRANCH   3   5
HETATM    5  C   UNK N   1      29.907  23.604  -3.706  0.00  0.00     0.178 C 
BRANCH   5   6
HETATM    6  C   UNK N   1      29.049  22.827  -4.705  0.00  0.00     0.039 C 
BRANCH   6   7
HETATM    7  C   UNK N   1      29.661  22.876  -6.092  0.00  0.00     0.041 C 
BRANCH   7   8
HETATM    8  C   UNK N   1      29.611  21.536  -6.739  0.00  0.00    -0.058 A 
HETATM    9  C   UNK N   1      30.589  20.573  -6.465  0.00  0.00     0.007 A 
HETATM   10  C   UNK N   1      30.509  19.310  -7.062  0.00  0.00     0.001 A 
HETATM   11  C   UNK N   1      29.456  19.012  -7.934  0.00  0.00     0.000 A 
HETATM   12  C   UNK N   1      28.481  19.975  -8.207  0.00  0.00     0.001 A 
HETATM   13  C   UNK N   1      28.557  21.232  -7.606  0.00  0.00     0.007 A 
ENDBRANCH   7   8
ENDBRANCH   6   7
ENDBRANCH   5   6
BRANCH   5  14
HETATM   14  C   UNK N   1      30.609  22.824  -2.584  0.00  0.00     0.281 C 
HETATM   15  O   UNK N   1      30.438  23.180  -1.429  0.00  0.00    -0.263 OA
BRANCH  14  16
HETATM   16  O   UNK N   1      31.453  21.783  -2.813  0.00  0.00    -0.320 OA
BRANCH  16  17
HETATM   17  C   UNK N   1      32.540  21.840  -3.655  0.00  0.00     0.174 C 
HETATM   18  C   UNK N   1      33.649  20.937  -3.156  0.00  0.00     0.034 C 
ENDBRANCH  16  17
ENDBRANCH  14  16
ENDBRANCH   5  14
ENDBRANCH   3   5
ENDBRANCH   1   3
BRANCH   1  19
HETATM   19  C   UNK N   1      28.508  26.977  -4.250  0.00  0.00     0.242 C 
HETATM   20  O   UNK N   1      28.266  27.647  -3.258  0.00  0.00    -0.271 OA
HETATM   21  N   UNK N   1      27.762  27.122  -5.397  0.00  0.00    -0.333 N 
HETATM   22  C   UNK N   1      26.581  27.932  -5.572  0.00  0.00     0.187 C 
HETATM   23  C   UNK N   1      27.933  26.250  -6.520  0.00  0.00     0.158 C 
HETATM   24  C   UNK N   1      25.598  26.935  -6.158  0.00  0.00     0.069 C 
HETATM   25  C   UNK N   1      26.493  25.944  -6.924  0.00  0.00     0.074 C 
HETATM   26  S   UNK N   1      26.089  24.232  -6.419  0.00  0.00    -0.145 SA
HETATM   27  S   UNK N   1      26.299  26.187  -8.721  0.00  0.00    -0.145 SA
HETATM   28  C   UNK N   1      25.843  23.651  -8.115  0.00  0.00     0.086 C 
HETATM   29  C   UNK N   1      25.187  24.772  -8.868  0.00  0.00     0.086 C 
BRANCH  22  30
HETATM   30  C   UNK N   1      26.067  28.724  -4.395  0.00  0.00     0.163 C 
HETATM   31  O   UNK N   1      26.314  29.916  -4.312  0.00  0.00    -0.648 OA
BRANCH  30  32
HETATM   32  O   UNK N   1      25.281  28.141  -3.469  0.00  0.00    -0.775 OA
HETATM   33  H   UNK N   1      25.247  27.428  -2.864  0.00  0.00     0.167 HD
ENDBRANCH  30  32
ENDBRANCH  22  30
ENDBRANCH   1  19
TORSDOF 11
ENDMDL
MODEL 6
REMARK VINA RESULT:      -6.3     13.154     15.777
REMARK  11 active torsions:
REMARK  status: ('A' for Active; 'I' for Inactive)
REMARK    1  A    between atoms: O_4  and  C_17 
REMARK    2  A    between atoms: O_6  and  C_23 
REMARK    3  A    between atoms: O_6  and  C_27 
REMARK       I    between atoms: N_8  and  C_14 
REMARK    4  A    between atoms: C_18  and  N_9 
REMARK    5  A    between atoms: C_19  and  N_9 
REMARK    6  A    between atoms: C_12  and  C_17 
REMARK    7  A    between atoms: C_14  and  C_18 
REMARK    8  A    between atoms: C_19  and  C_21 
REMARK    9  A    between atoms: C_19  and  C_23 
REMARK   10  A    between atoms: C_21  and  C_22 
REMARK   11  A    between atoms: C_22  and  C_24 
ROOT
HETATM    1  C   UNK N   1      24.713  17.231   4.305  0.00  0.00     0.166 C 
HETATM    2  C   UNK N   1      25.472  16.680   3.110  0.00  0.00     0.042 C 
ENDROOT
BRANCH   1   3
HETATM    3  N   UNK N   1      25.568  18.033   5.181  0.00  0.00    -0.397 N 
HETATM    4  H   UNK N   1      25.295  18.326   6.120  0.00  0.00     0.154 HD
BRANCH   3   5
HETATM    5  C   UNK N   1      26.864  18.377   4.567  0.00  0.00     0.178 C 
BRANCH   5   6
HETATM    6  C   UNK N   1      27.995  17.518   5.133  0.00  0.00     0.039 C 
BRANCH   6   7
HETATM    7  C   UNK N   1      27.812  17.302   6.624  0.00  0.00     0.041 C 
BRANCH   7   8
HETATM    8  C   UNK N   1      29.072  17.597   7.358  0.00  0.00    -0.058 A 
HETATM    9  C   UNK N   1      29.082  18.504   8.424  0.00  0.00     0.007 A 
HETATM   10  C   UNK N   1      30.272  18.748   9.120  0.00  0.00     0.001 A 
HETATM   11  C   UNK N   1      31.449  18.091   8.747  0.00  0.00     0.000 A 
HETATM   12  C   UNK N   1      31.437  17.188   7.681  0.00  0.00     0.001 A 
HETATM   13  C   UNK N   1      30.249  16.939   6.993  0.00  0.00     0.007 A 
ENDBRANCH   7   8
ENDBRANCH   6   7
ENDBRANCH   5   6
BRANCH   5  14
HETATM   14  C   UNK N   1      27.129  19.872   4.335  0.00  0.00     0.281 C 
HETATM   15  O   UNK N   1      26.773  20.373   3.279  0.00  0.00    -0.263 OA
BRANCH  14  16
HETATM   16  O   UNK N   1      27.785  20.662   5.227  0.00  0.00    -0.320 OA
BRANCH  16  17
HETATM   17  C   UNK N   1      27.175  21.611   6.014  0.00  0.00     0.174 C 
HETATM   18  C   UNK N   1      26.503  20.964   7.207  0.00  0.00     0.034 C 
ENDBRANCH  16  17
ENDBRANCH  14  16
ENDBRANCH   5  14
ENDBRANCH   3   5
ENDBRANCH   1   3
BRANCH   1  19
HETATM   19  C   UNK N   1      23.521  18.037   3.879  0.00  0.00     0.242 C 
HETATM   20  O   UNK N   1      23.625  19.254   3.909  0.00  0.00    -0.271 OA
HETATM   21  N   UNK N   1      22.351  17.440   3.472  0.00  0.00    -0.333 N 
HETATM   22  C   UNK N   1      21.103  18.093   3.155  0.00  0.00     0.187 C 
HETATM   23  C   UNK N   1      22.156  16.024   3.566  0.00  0.00     0.158 C 
HETATM   24  C   UNK N   1      20.118  17.325   4.017  0.00  0.00     0.069 C 
HETATM   25  C   UNK N   1      20.740  15.921   4.124  0.00  0.00     0.074 C 
HETATM   26  S   UNK N   1      20.832  15.419   5.881  0.00  0.00    -0.145 SA
HETATM   27  S   UNK N   1      19.777  14.734   3.127  0.00  0.00    -0.145 SA
HETATM   28  C   UNK N   1      19.982  13.844   5.612  0.00  0.00     0.086 C 
HETATM   29  C   UNK N   1      18.920  14.094   4.582  0.00  0.00     0.086 C 
BRANCH  22  30
HETATM   30  C   UNK N   1      21.023  19.595   3.273  0.00  0.00     0.163 C 
HETATM   31  O   UNK N   1      20.540  20.100   4.273  0.00  0.00    -0.648 OA
BRANCH  30  32
HETATM   32  O   UNK N   1      21.539  20.385   2.311  0.00  0.00    -0.775 OA
HETATM   33  H   UNK N   1      22.345  20.737   1.990  0.00  0.00     0.167 HD
ENDBRANCH  30  32
ENDBRANCH  22  30
ENDBRANCH   1  19
TORSDOF 11
ENDMDL
MODEL 7
REMARK VINA RESULT:      -6.2     17.270     20.234
REMARK  11 active torsions:
REMARK  status: ('A' for Active; 'I' for Inactive)
REMARK    1  A    between atoms: O_4  and  C_17 
REMARK    2  A    between atoms: O_6  and  C_23 
REMARK    3  A    between atoms: O_6  and  C_27 
REMARK       I    between atoms: N_8  and  C_14 
REMARK    4  A    between atoms: C_18  and  N_9 
REMARK    5  A    between atoms: C_19  and  N_9 
REMARK    6  A    between atoms: C_12  and  C_17 
REMARK    7  A    between atoms: C_14  and  C_18 
REMARK    8  A    between atoms: C_19  and  C_21 
REMARK    9  A    between atoms: C_19  and  C_23 
REMARK   10  A    between atoms: C_21  and  C_22 
REMARK   11  A    between atoms: C_22  and  C_24 
ROOT
HETATM    1  C   UNK N   1      33.829  15.106   9.300  0.00  0.00     0.166 C 
HETATM    2  C   UNK N   1      32.787  14.154   8.739  0.00  0.00     0.042 C 
ENDROOT
BRANCH   1   3
HETATM    3  N   UNK N   1      33.309  16.465   9.460  0.00  0.00    -0.397 N 
HETATM    4  H   UNK N   1      33.391  17.001  10.325  0.00  0.00     0.154 HD
BRANCH   3   5
HETATM    5  C   UNK N   1      32.652  16.979   8.243  0.00  0.00     0.178 C 
BRANCH   5   6
HETATM    6  C   UNK N   1      33.579  17.907   7.459  0.00  0.00     0.039 C 
BRANCH   6   7
HETATM    7  C   UNK N   1      34.509  17.108   6.564  0.00  0.00     0.041 C 
BRANCH   7   8
HETATM    8  C   UNK N   1      33.827  16.736   5.295  0.00  0.00    -0.058 A 
HETATM    9  C   UNK N   1      33.987  15.458   4.746  0.00  0.00     0.007 A 
HETATM   10  C   UNK N   1      33.316  15.119   3.565  0.00  0.00     0.001 A 
HETATM   11  C   UNK N   1      32.493  16.056   2.933  0.00  0.00     0.000 A 
HETATM   12  C   UNK N   1      32.336  17.332   3.481  0.00  0.00     0.001 A 
HETATM   13  C   UNK N   1      32.999  17.667   4.662  0.00  0.00     0.007 A 
ENDBRANCH   7   8
ENDBRANCH   6   7
ENDBRANCH   5   6
BRANCH   5  14
HETATM   14  C   UNK N   1      31.174  17.374   8.386  0.00  0.00     0.281 C 
HETATM   15  O   UNK N   1      30.891  18.343   9.073  0.00  0.00    -0.263 OA
BRANCH  14  16
HETATM   16  O   UNK N   1      30.155  16.669   7.825  0.00  0.00    -0.320 OA
BRANCH  16  17
HETATM   17  C   UNK N   1      29.924  16.590   6.471  0.00  0.00     0.174 C 
HETATM   18  C   UNK N   1      30.377  15.251   5.929  0.00  0.00     0.034 C 
ENDBRANCH  16  17
ENDBRANCH  14  16
ENDBRANCH   5  14
ENDBRANCH   3   5
ENDBRANCH   1   3
BRANCH   1  19
HETATM   19  C   UNK N   1      34.380  14.615  10.607  0.00  0.00     0.242 C 
HETATM   20  O   UNK N   1      34.057  15.222  11.617  0.00  0.00    -0.271 OA
HETATM   21  N   UNK N   1      35.218  13.527  10.677  0.00  0.00    -0.333 N 
HETATM   22  C   UNK N   1      35.906  13.031  11.844  0.00  0.00     0.187 C 
HETATM   23  C   UNK N   1      35.724  12.891   9.498  0.00  0.00     0.158 C 
HETATM   24  C   UNK N   1      37.340  12.945  11.352  0.00  0.00     0.069 C 
HETATM   25  C   UNK N   1      37.195  12.675   9.843  0.00  0.00     0.074 C 
HETATM   26  S   UNK N   1      38.206  13.875   8.902  0.00  0.00    -0.145 SA
HETATM   27  S   UNK N   1      37.662  10.951   9.470  0.00  0.00    -0.145 SA
HETATM   28  C   UNK N   1      39.069  12.601   7.951  0.00  0.00     0.086 C 
HETATM   29  C   UNK N   1      39.296  11.444   8.879  0.00  0.00     0.086 C 
BRANCH  22  30
HETATM   30  C   UNK N   1      35.721  13.753  13.155  0.00  0.00     0.163 C 
HETATM   31  O   UNK N   1      34.946  13.310  13.987  0.00  0.00    -0.648 OA
BRANCH  30  32
HETATM   32  O   UNK N   1      36.453  14.847  13.444  0.00  0.00    -0.775 OA
HETATM   33  H   UNK N   1      36.976  15.517  13.051  0.00  0.00     0.167 HD
ENDBRANCH  30  32
ENDBRANCH  22  30
ENDBRANCH   1  19
TORSDOF 11
ENDMDL
MODEL 8
REMARK VINA RESULT:      -6.1     20.769     24.205
REMARK  11 active torsions:
REMARK  status: ('A' for Active; 'I' for Inactive)
REMARK    1  A    between atoms: O_4  and  C_17 
REMARK    2  A    between atoms: O_6  and  C_23 
REMARK    3  A    between atoms: O_6  and  C_27 
REMARK       I    between atoms: N_8  and  C_14 
REMARK    4  A    between atoms: C_18  and  N_9 
REMARK    5  A    between atoms: C_19  and  N_9 
REMARK    6  A    between atoms: C_12  and  C_17 
REMARK    7  A    between atoms: C_14  and  C_18 
REMARK    8  A    between atoms: C_19  and  C_21 
REMARK    9  A    between atoms: C_19  and  C_23 
REMARK   10  A    between atoms: C_21  and  C_22 
REMARK   11  A    between atoms: C_22  and  C_24 
ROOT
HETATM    1  C   UNK N   1      37.241  13.797  10.465  0.00  0.00     0.166 C 
HETATM    2  C   UNK N   1      38.671  13.800   9.952  0.00  0.00     0.042 C 
ENDROOT
BRANCH   1   3
HETATM    3  N   UNK N   1      37.177  13.777  11.927  0.00  0.00    -0.397 N 
HETATM    4  H   UNK N   1      37.739  14.385  12.524  0.00  0.00     0.154 HD
BRANCH   3   5
HETATM    5  C   UNK N   1      36.216  12.787  12.449  0.00  0.00     0.178 C 
BRANCH   5   6
HETATM    6  C   UNK N   1      35.414  13.352  13.621  0.00  0.00     0.039 C 
BRANCH   6   7
HETATM    7  C   UNK N   1      36.336  13.766  14.753  0.00  0.00     0.041 C 
BRANCH   7   8
HETATM    8  C   UNK N   1      35.987  13.046  16.008  0.00  0.00    -0.058 A 
HETATM    9  C   UNK N   1      35.493  13.742  17.118  0.00  0.00     0.007 A 
HETATM   10  C   UNK N   1      35.145  13.043  18.279  0.00  0.00     0.001 A 
HETATM   11  C   UNK N   1      35.296  11.653  18.333  0.00  0.00     0.000 A 
HETATM   12  C   UNK N   1      35.791  10.960  17.224  0.00  0.00     0.001 A 
HETATM   13  C   UNK N   1      36.130  11.657  16.064  0.00  0.00     0.007 A 
ENDBRANCH   7   8
ENDBRANCH   6   7
ENDBRANCH   5   6
BRANCH   5  14
HETATM   14  C   UNK N   1      36.718  11.338  12.539  0.00  0.00     0.281 C 
HETATM   15  O   UNK N   1      37.886  11.140  12.837  0.00  0.00    -0.263 OA
BRANCH  14  16
HETATM   16  O   UNK N   1      35.940  10.259  12.255  0.00  0.00    -0.320 OA
BRANCH  16  17
HETATM   17  C   UNK N   1      34.696  10.038  12.799  0.00  0.00     0.174 C 
HETATM   18  C   UNK N   1      33.639   9.997  11.717  0.00  0.00     0.034 C 
ENDBRANCH  16  17
ENDBRANCH  14  16
ENDBRANCH   5  14
ENDBRANCH   3   5
ENDBRANCH   1   3
BRANCH   1  19
HETATM   19  C   UNK N   1      36.463  14.967   9.938  0.00  0.00     0.242 C 
HETATM   20  O   UNK N   1      36.347  15.941  10.667  0.00  0.00    -0.271 OA
HETATM   21  N   UNK N   1      35.895  14.955   8.685  0.00  0.00    -0.333 N 
HETATM   22  C   UNK N   1      35.030  15.957   8.110  0.00  0.00     0.187 C 
HETATM   23  C   UNK N   1      35.894  13.776   7.872  0.00  0.00     0.158 C 
HETATM   24  C   UNK N   1      33.848  15.124   7.647  0.00  0.00     0.069 C 
HETATM   25  C   UNK N   1      34.469  13.752   7.326  0.00  0.00     0.074 C 
HETATM   26  S   UNK N   1      33.530  12.435   8.182  0.00  0.00    -0.145 SA
HETATM   27  S   UNK N   1      34.511  13.493   5.520  0.00  0.00    -0.145 SA
HETATM   28  C   UNK N   1      33.269  11.463   6.679  0.00  0.00     0.086 C 
HETATM   29  C   UNK N   1      33.045  12.440   5.562  0.00  0.00     0.086 C 
BRANCH  22  30
HETATM   30  C   UNK N   1      34.676  17.168   8.937  0.00  0.00     0.163 C 
HETATM   31  O   UNK N   1      35.193  18.244   8.687  0.00  0.00    -0.648 OA
BRANCH  30  32
HETATM   32  O   UNK N   1      33.745  17.086   9.907  0.00  0.00    -0.775 OA
HETATM   33  H   UNK N   1      33.347  16.488  10.508  0.00  0.00     0.167 HD
ENDBRANCH  30  32
ENDBRANCH  22  30
ENDBRANCH   1  19
TORSDOF 11
ENDMDL
MODEL 9
REMARK VINA RESULT:      -6.1     17.381     20.347
REMARK  11 active torsions:
REMARK  status: ('A' for Active; 'I' for Inactive)
REMARK    1  A    between atoms: O_4  and  C_17 
REMARK    2  A    between atoms: O_6  and  C_23 
REMARK    3  A    between atoms: O_6  and  C_27 
REMARK       I    between atoms: N_8  and  C_14 
REMARK    4  A    between atoms: C_18  and  N_9 
REMARK    5  A    between atoms: C_19  and  N_9 
REMARK    6  A    between atoms: C_12  and  C_17 
REMARK    7  A    between atoms: C_14  and  C_18 
REMARK    8  A    between atoms: C_19  and  C_21 
REMARK    9  A    between atoms: C_19  and  C_23 
REMARK   10  A    between atoms: C_21  and  C_22 
REMARK   11  A    between atoms: C_22  and  C_24 
ROOT
HETATM    1  C   UNK N   1      34.052  14.588   8.841  0.00  0.00     0.166 C 
HETATM    2  C   UNK N   1      32.544  14.773   8.821  0.00  0.00     0.042 C 
ENDROOT
BRANCH   1   3
HETATM    3  N   UNK N   1      34.759  15.751   8.303  0.00  0.00    -0.397 N 
HETATM    4  H   UNK N   1      35.749  15.936   8.471  0.00  0.00     0.154 HD
BRANCH   3   5
HETATM    5  C   UNK N   1      33.894  16.628   7.492  0.00  0.00     0.178 C 
BRANCH   5   6
HETATM    6  C   UNK N   1      34.086  16.375   5.997  0.00  0.00     0.039 C 
BRANCH   6   7
HETATM    7  C   UNK N   1      33.068  17.153   5.184  0.00  0.00     0.041 C 
BRANCH   7   8
HETATM    8  C   UNK N   1      31.731  16.504   5.253  0.00  0.00    -0.058 A 
HETATM    9  C   UNK N   1      30.565  17.275   5.329  0.00  0.00     0.007 A 
HETATM   10  C   UNK N   1      29.315  16.646   5.366  0.00  0.00     0.001 A 
HETATM   11  C   UNK N   1      29.232  15.250   5.334  0.00  0.00     0.000 A 
HETATM   12  C   UNK N   1      30.397  14.481   5.259  0.00  0.00     0.001 A 
HETATM   13  C   UNK N   1      31.642  15.109   5.214  0.00  0.00     0.007 A 
ENDBRANCH   7   8
ENDBRANCH   6   7
ENDBRANCH   5   6
BRANCH   5  14
HETATM   14  C   UNK N   1      33.759  18.080   7.975  0.00  0.00     0.281 C 
HETATM   15  O   UNK N   1      34.744  18.803   7.940  0.00  0.00    -0.263 OA
BRANCH  14  16
HETATM   16  O   UNK N   1      32.608  18.594   8.487  0.00  0.00    -0.320 OA
BRANCH  16  17
HETATM   17  C   UNK N   1      31.459  17.865   8.689  0.00  0.00     0.174 C 
HETATM   18  C   UNK N   1      30.297  18.780   9.013  0.00  0.00     0.034 C 
ENDBRANCH  16  17
ENDBRANCH  14  16
ENDBRANCH   5  14
ENDBRANCH   3   5
ENDBRANCH   1   3
BRANCH   1  19
HETATM   19  C   UNK N   1      34.553  14.283  10.223  0.00  0.00     0.242 C 
HETATM   20  O   UNK N   1      34.098  14.942  11.145  0.00  0.00    -0.271 OA
HETATM   21  N   UNK N   1      35.490  13.302  10.453  0.00  0.00    -0.333 N 
HETATM   22  C   UNK N   1      36.138  12.993  11.705  0.00  0.00     0.187 C 
HETATM   23  C   UNK N   1      36.142  12.618   9.378  0.00  0.00     0.158 C 
HETATM   24  C   UNK N   1      37.605  13.017  11.315  0.00  0.00     0.069 C 
HETATM   25  C   UNK N   1      37.598  12.594   9.834  0.00  0.00     0.074 C 
HETATM   26  S   UNK N   1      38.548  13.803   8.843  0.00  0.00    -0.145 SA
HETATM   27  S   UNK N   1      38.263  10.903   9.665  0.00  0.00    -0.145 SA
HETATM   28  C   UNK N   1      39.602  12.546   8.080  0.00  0.00     0.086 C 
HETATM   29  C   UNK N   1      39.877  11.512   9.132  0.00  0.00     0.086 C 
BRANCH  22  30
HETATM   30  C   UNK N   1      35.785  13.810  12.923  0.00  0.00     0.163 C 
HETATM   31  O   UNK N   1      34.946  13.398  13.707  0.00  0.00    -0.648 OA
BRANCH  30  32
HETATM   32  O   UNK N   1      36.437  14.959  13.189  0.00  0.00    -0.775 OA
HETATM   33  H   UNK N   1      36.479  15.863  12.949  0.00  0.00     0.167 HD
ENDBRANCH  30  32
ENDBRANCH  22  30
ENDBRANCH   1  19
TORSDOF 11
ENDMDL
