REMARK  11 active torsions:
REMARK  status: ('A' for Active; 'I' for Inactive)
REMARK    1  A    between atoms: O_4  and  C_17 
REMARK    2  A    between atoms: O_6  and  C_23 
REMARK    3  A    between atoms: O_6  and  C_27 
REMARK       I    between atoms: N_8  and  C_14 
REMARK    4  A    between atoms: C_18  and  N_9 
REMARK    5  A    between atoms: C_19  and  N_9 
REMARK    6  A    between atoms: C_12  and  C_17 
REMARK    7  A    between atoms: C_14  and  C_18 
REMARK    8  A    between atoms: C_19  and  C_21 
REMARK    9  A    between atoms: C_19  and  C_23 
REMARK   10  A    between atoms: C_21  and  C_22 
REMARK   11  A    between atoms: C_22  and  C_24 
ROOT
HETATM    1  C   UNK N   1       5.206   0.914  -0.409  0.00  0.00     0.166 C 
HETATM    2  C   UNK N   1       4.847  -0.295  -1.255  0.00  0.00     0.042 C 
ENDROOT
BRANCH   1   3
HETATM    3  N   UNK N   1       4.575   0.873   0.911  0.00  0.00    -0.397 N 
HETATM    4  H   UNK N   1       4.911   0.289   1.678  0.00  0.00     0.154 HD
BRANCH   3   5
HETATM    5  C   UNK N   1       3.403   1.762   1.019  0.00  0.00     0.178 C 
BRANCH   5   6
HETATM    6  C   UNK N   1       2.097   0.968   1.006  0.00  0.00     0.039 C 
BRANCH   6   7
HETATM    7  C   UNK N   1       1.874   0.322  -0.349  0.00  0.00     0.041 C 
BRANCH   7   8
HETATM    8  C   UNK N   1       1.496  -1.109  -0.195  0.00  0.00    -0.058 A 
HETATM    9  C   UNK N   1       0.203  -1.468   0.203  0.00  0.00     0.007 A 
HETATM   10  C   UNK N   1      -0.141  -2.820   0.316  0.00  0.00     0.001 A 
HETATM   11  C   UNK N   1       0.807  -3.810   0.037  0.00  0.00     0.000 A 
HETATM   12  C   UNK N   1       2.098  -3.450  -0.359  0.00  0.00     0.001 A 
HETATM   13  C   UNK N   1       2.438  -2.102  -0.479  0.00  0.00     0.007 A 
ENDBRANCH   7   8
ENDBRANCH   6   7
ENDBRANCH   5   6
BRANCH   5  14
HETATM   14  C   UNK N   1       3.470   3.071   0.218  0.00  0.00     0.281 C 
HETATM   15  O   UNK N   1       4.561   3.587   0.030  0.00  0.00    -0.263 OA
BRANCH  14  16
HETATM   16  O   UNK N   1       2.369   3.715  -0.255  0.00  0.00    -0.320 OA
BRANCH  16  17
HETATM   17  C   UNK N   1       1.102   3.558   0.257  0.00  0.00     0.174 C 
HETATM   18  C   UNK N   1       0.153   3.057  -0.811  0.00  0.00     0.034 C 
ENDBRANCH  16  17
ENDBRANCH  14  16
ENDBRANCH   5  14
ENDBRANCH   3   5
ENDBRANCH   1   3
BRANCH   1  19
HETATM   19  C   UNK N   1       6.692   1.062  -0.258  0.00  0.00     0.242 C 
HETATM   20  O   UNK N   1       7.205   2.076  -0.707  0.00  0.00    -0.271 OA
HETATM   21  N   UNK N   1       7.457   0.100   0.359  0.00  0.00    -0.333 N 
HETATM   22  C   UNK N   1       8.896   0.064   0.462  0.00  0.00     0.187 C 
HETATM   23  C   UNK N   1       6.902  -1.157   0.763  0.00  0.00     0.158 C 
HETATM   24  C   UNK N   1       9.215  -1.326  -0.058  0.00  0.00     0.069 C 
HETATM   25  C   UNK N   1       7.968  -2.151   0.310  0.00  0.00     0.074 C 
HETATM   26  S   UNK N   1       7.358  -3.039  -1.169  0.00  0.00    -0.145 SA
HETATM   27  S   UNK N   1       8.357  -3.294   1.678  0.00  0.00    -0.145 SA
HETATM   28  C   UNK N   1       7.340  -4.654  -0.353  0.00  0.00     0.086 C 
HETATM   29  C   UNK N   1       8.535  -4.696   0.554  0.00  0.00     0.086 C 
BRANCH  22  30
HETATM   30  C   UNK N   1       9.694   1.181  -0.163  0.00  0.00     0.163 C 
HETATM   31  O   UNK N   1       9.636   2.305   0.308  0.00  0.00    -0.648 OA
BRANCH  30  32
HETATM   32  O   UNK N   1      10.522   0.935  -1.197  0.00  0.00    -0.775 OA
HETATM   33  H   UNK N   1      10.662   0.352  -1.916  0.00  0.00     0.167 HD
ENDBRANCH  30  32
ENDBRANCH  22  30
ENDBRANCH   1  19
TORSDOF 11
