MODEL 1
REMARK VINA RESULT:      -8.4      0.000      0.000
REMARK  4 active torsions:
REMARK  status: ('A' for Active; 'I' for Inactive)
REMARK    1  A    between atoms: N_2  and  C_17 
REMARK    2  A    between atoms: C_17  and  C_20 
REMARK    3  A    between atoms: C_25  and  C_28 
REMARK    4  A    between atoms: C_30  and  C_34 
ROOT
HETATM    1  C   UNK N   1      34.659  16.228   9.759  0.00  0.00    -0.040 A 
HETATM    2  C   UNK N   1      35.673  16.615  10.628  0.00  0.00     0.010 A 
HETATM    3  C   UNK N   1      34.171  14.911   9.776  0.00  0.00     0.010 A 
HETATM    4  C   UNK N   1      35.692  14.393  11.582  0.00  0.00    -0.025 A 
HETATM    5  C   UNK N   1      36.178  15.706  11.542  0.00  0.00     0.013 A 
HETATM    6  C   UNK N   1      34.692  13.987  10.689  0.00  0.00     0.013 A 
ENDROOT
BRANCH   1   7
HETATM    7  C   UNK N   1      34.138  17.235   8.798  0.00  0.00     0.172 C 
BRANCH   7   8
HETATM    8  N   UNK N   1      33.398  16.714   7.648  0.00  0.00    -0.299 N 
HETATM    9  C   UNK N   1      31.981  16.887   7.680  0.00  0.00     0.119 A 
HETATM   10  N   UNK N   1      31.412  17.596   8.697  0.00  0.00    -0.332 N 
HETATM   11  C   UNK N   1      31.158  16.349   6.681  0.00  0.00     0.009 A 
HETATM   12  C   UNK N   1      30.072  17.798   8.758  0.00  0.00     0.078 A 
ATOM     13  HN  UNK N   1      32.008  17.985   9.428  1.00  0.00     0.168 HD
HETATM   14  N   UNK N   1      29.263  17.278   7.801  0.00  0.00    -0.349 N 
HETATM   15  C   UNK N   1      29.490  18.592   9.871  0.00  0.00     0.089 C 
HETATM   16  C   UNK N   1      29.773  16.556   6.771  0.00  0.00     0.016 A 
ATOM     17  HN  UNK N   1      28.256  17.433   7.857  1.00  0.00     0.167 HD
HETATM   18  C   UNK N   1      28.844  16.002   5.744  0.00  0.00     0.069 C 
HETATM   19  C   UNK N   1      31.724  15.550   5.551  0.00  0.00     0.053 C 
HETATM   20  C   UNK N   1      33.230  15.650   5.370  0.00  0.00     0.108 C 
HETATM   21  C   UNK N   1      34.011  16.157   6.544  0.00  0.00     0.226 C 
HETATM   22  O   UNK N   1      35.228  16.095   6.462  0.00  0.00    -0.273 OA
ENDBRANCH   7   8
ENDBRANCH   1   7
BRANCH   4  23
HETATM   23  C   UNK N   1      36.117  13.537  12.690  0.00  0.00    -0.012 A 
HETATM   24  C   UNK N   1      37.092  12.525  12.478  0.00  0.00     0.021 A 
HETATM   25  C   UNK N   1      37.388  11.642  13.524  0.00  0.00     0.016 A 
HETATM   26  C   UNK N   1      36.751  11.764  14.762  0.00  0.00     0.001 A 
HETATM   27  C   UNK N   1      35.823  12.787  14.975  0.00  0.00     0.001 A 
HETATM   28  C   UNK N   1      35.504  13.671  13.942  0.00  0.00     0.013 A 
BRANCH  24  29
HETATM   29  C   UNK N   1      37.859  12.411  11.204  0.00  0.00     0.145 A 
HETATM   30  N   UNK N   1      37.660  11.478  10.251  0.00  0.00    -0.271 N 
HETATM   31  N   UNK N   1      38.510  11.760   9.282  0.00  0.00    -0.225 N 
ATOM     32  HN  UNK N   1      36.989  10.710  10.275  1.00  0.00     0.190 HD
HETATM   33  N   UNK N   1      39.206  12.838   9.614  0.00  0.00    -0.005 NA
HETATM   34  H   UNK N   1      38.612  11.251   8.446  0.00  0.00     0.205 HD
HETATM   35  N   UNK N   1      38.813  13.268  10.802  0.00  0.00    -0.266 N 
ATOM     36  HN  UNK N   1      39.163  14.083  11.308  1.00  0.00     0.186 HD
ENDBRANCH  24  29
ENDBRANCH   4  23
TORSDOF 4
ENDMDL
MODEL 2
REMARK VINA RESULT:      -8.4      2.118      3.122
REMARK  4 active torsions:
REMARK  status: ('A' for Active; 'I' for Inactive)
REMARK    1  A    between atoms: N_2  and  C_17 
REMARK    2  A    between atoms: C_17  and  C_20 
REMARK    3  A    between atoms: C_25  and  C_28 
REMARK    4  A    between atoms: C_30  and  C_34 
ROOT
HETATM    1  C   UNK N   1      33.845  16.130   9.018  0.00  0.00    -0.040 A 
HETATM    2  C   UNK N   1      33.372  14.840   8.807  0.00  0.00     0.010 A 
HETATM    3  C   UNK N   1      35.114  16.339   9.585  0.00  0.00     0.010 A 
HETATM    4  C   UNK N   1      35.447  13.946   9.673  0.00  0.00    -0.025 A 
HETATM    5  C   UNK N   1      34.172  13.755   9.122  0.00  0.00     0.013 A 
HETATM    6  C   UNK N   1      35.917  15.242   9.918  0.00  0.00     0.013 A 
ENDROOT
BRANCH   1   7
HETATM    7  C   UNK N   1      32.960  17.268   8.661  0.00  0.00     0.172 C 
BRANCH   7   8
HETATM    8  N   UNK N   1      32.517  17.337   7.269  0.00  0.00    -0.299 N 
HETATM    9  C   UNK N   1      31.105  17.321   7.055  0.00  0.00     0.119 A 
HETATM   10  N   UNK N   1      30.261  17.347   8.126  0.00  0.00    -0.332 N 
HETATM   11  C   UNK N   1      30.564  17.289   5.763  0.00  0.00     0.009 A 
HETATM   12  C   UNK N   1      28.914  17.349   7.969  0.00  0.00     0.078 A 
ATOM     13  HN  UNK N   1      30.653  17.365   9.068  1.00  0.00     0.168 HD
HETATM   14  N   UNK N   1      28.376  17.313   6.724  0.00  0.00    -0.349 N 
HETATM   15  C   UNK N   1      28.027  17.397   9.160  0.00  0.00     0.089 C 
HETATM   16  C   UNK N   1      29.168  17.277   5.622  0.00  0.00     0.016 A 
ATOM     17  HN  UNK N   1      27.362  17.312   6.615  1.00  0.00     0.167 HD
HETATM   18  C   UNK N   1      28.531  17.234   4.274  0.00  0.00     0.069 C 
HETATM   19  C   UNK N   1      31.439  17.244   4.551  0.00  0.00     0.053 C 
HETATM   20  C   UNK N   1      32.902  17.578   4.790  0.00  0.00     0.108 C 
HETATM   21  C   UNK N   1      33.385  17.490   6.206  0.00  0.00     0.226 C 
HETATM   22  O   UNK N   1      34.587  17.605   6.385  0.00  0.00    -0.273 OA
ENDBRANCH   7   8
ENDBRANCH   1   7
BRANCH   4  23
HETATM   23  C   UNK N   1      36.321  12.780   9.801  0.00  0.00    -0.012 A 
HETATM   24  C   UNK N   1      36.775  12.364  11.082  0.00  0.00     0.021 A 
HETATM   25  C   UNK N   1      37.709  11.324  11.163  0.00  0.00     0.016 A 
HETATM   26  C   UNK N   1      38.173  10.691  10.007  0.00  0.00     0.001 A 
HETATM   27  C   UNK N   1      37.692  11.079   8.754  0.00  0.00     0.001 A 
HETATM   28  C   UNK N   1      36.770  12.122   8.649  0.00  0.00     0.013 A 
BRANCH  24  29
HETATM   29  C   UNK N   1      36.242  12.951  12.346  0.00  0.00     0.145 A 
HETATM   30  N   UNK N   1      36.864  13.879  13.101  0.00  0.00    -0.271 N 
HETATM   31  N   UNK N   1      36.039  14.153  14.094  0.00  0.00    -0.225 N 
ATOM     32  HN  UNK N   1      37.785  14.286  12.938  1.00  0.00     0.190 HD
HETATM   33  N   UNK N   1      34.937  13.430  13.956  0.00  0.00    -0.005 NA
HETATM   34  H   UNK N   1      36.214  14.792  14.821  0.00  0.00     0.205 HD
HETATM   35  N   UNK N   1      35.035  12.680  12.870  0.00  0.00    -0.266 N 
ATOM     36  HN  UNK N   1      34.337  12.030  12.506  1.00  0.00     0.186 HD
ENDBRANCH  24  29
ENDBRANCH   4  23
TORSDOF 4
ENDMDL
MODEL 3
REMARK VINA RESULT:      -8.4      3.217      8.354
REMARK  4 active torsions:
REMARK  status: ('A' for Active; 'I' for Inactive)
REMARK    1  A    between atoms: N_2  and  C_17 
REMARK    2  A    between atoms: C_17  and  C_20 
REMARK    3  A    between atoms: C_25  and  C_28 
REMARK    4  A    between atoms: C_30  and  C_34 
ROOT
HETATM    1  C   UNK N   1      36.417  13.599  11.805  0.00  0.00    -0.040 A 
HETATM    2  C   UNK N   1      36.969  13.808  10.546  0.00  0.00     0.010 A 
HETATM    3  C   UNK N   1      35.242  14.268  12.186  0.00  0.00     0.010 A 
HETATM    4  C   UNK N   1      35.156  15.314  10.009  0.00  0.00    -0.025 A 
HETATM    5  C   UNK N   1      36.337  14.651   9.650  0.00  0.00     0.013 A 
HETATM    6  C   UNK N   1      34.610  15.133  11.286  0.00  0.00     0.013 A 
ENDROOT
BRANCH   1   7
HETATM    7  C   UNK N   1      37.122  12.680  12.736  0.00  0.00     0.172 C 
BRANCH   7   8
HETATM    8  N   UNK N   1      36.332  12.149  13.847  0.00  0.00    -0.299 N 
HETATM    9  C   UNK N   1      36.320  12.930  15.042  0.00  0.00     0.119 A 
HETATM   10  N   UNK N   1      36.938  14.146  15.058  0.00  0.00    -0.332 N 
HETATM   11  C   UNK N   1      35.676  12.479  16.202  0.00  0.00     0.009 A 
HETATM   12  C   UNK N   1      36.938  14.928  16.167  0.00  0.00     0.078 A 
ATOM     13  HN  UNK N   1      37.413  14.475  14.217  1.00  0.00     0.168 HD
HETATM   14  N   UNK N   1      36.323  14.502  17.298  0.00  0.00    -0.349 N 
HETATM   15  C   UNK N   1      37.607  16.255  16.140  0.00  0.00     0.089 C 
HETATM   16  C   UNK N   1      35.699  13.297  17.342  0.00  0.00     0.016 A 
ATOM     17  HN  UNK N   1      36.330  15.096  18.127  1.00  0.00     0.167 HD
HETATM   18  C   UNK N   1      35.040  12.869  18.610  0.00  0.00     0.069 C 
HETATM   19  C   UNK N   1      34.994  11.149  16.248  0.00  0.00     0.053 C 
HETATM   20  C   UNK N   1      34.751  10.492  14.899  0.00  0.00     0.108 C 
HETATM   21  C   UNK N   1      35.567  11.004  13.751  0.00  0.00     0.226 C 
HETATM   22  O   UNK N   1      35.491  10.381  12.704  0.00  0.00    -0.273 OA
ENDBRANCH   7   8
ENDBRANCH   1   7
BRANCH   4  23
HETATM   23  C   UNK N   1      34.427  16.033   8.963  0.00  0.00    -0.012 A 
HETATM   24  C   UNK N   1      33.595  15.323   8.055  0.00  0.00     0.021 A 
HETATM   25  C   UNK N   1      33.009  16.017   6.990  0.00  0.00     0.016 A 
HETATM   26  C   UNK N   1      33.223  17.389   6.831  0.00  0.00     0.001 A 
HETATM   27  C   UNK N   1      34.010  18.088   7.750  0.00  0.00     0.001 A 
HETATM   28  C   UNK N   1      34.613  17.412   8.812  0.00  0.00     0.013 A 
BRANCH  24  29
HETATM   29  C   UNK N   1      33.268  13.878   8.236  0.00  0.00     0.145 A 
HETATM   30  N   UNK N   1      32.473  13.370   9.199  0.00  0.00    -0.271 N 
HETATM   31  N   UNK N   1      32.414  12.071   8.975  0.00  0.00    -0.225 N 
ATOM     32  HN  UNK N   1      32.011  13.886   9.949  1.00  0.00     0.190 HD
HETATM   33  N   UNK N   1      33.138  11.781   7.904  0.00  0.00    -0.005 NA
HETATM   34  H   UNK N   1      31.913  11.421   9.518  0.00  0.00     0.205 HD
HETATM   35  N   UNK N   1      33.673  12.890   7.419  0.00  0.00    -0.266 N 
ATOM     36  HN  UNK N   1      34.269  12.978   6.595  1.00  0.00     0.186 HD
ENDBRANCH  24  29
ENDBRANCH   4  23
TORSDOF 4
ENDMDL
MODEL 4
REMARK VINA RESULT:      -8.2      6.015      9.014
REMARK  4 active torsions:
REMARK  status: ('A' for Active; 'I' for Inactive)
REMARK    1  A    between atoms: N_2  and  C_17 
REMARK    2  A    between atoms: C_17  and  C_20 
REMARK    3  A    between atoms: C_25  and  C_28 
REMARK    4  A    between atoms: C_30  and  C_34 
ROOT
HETATM    1  C   UNK N   1      27.990  16.137   4.376  0.00  0.00    -0.040 A 
HETATM    2  C   UNK N   1      28.595  15.222   5.228  0.00  0.00     0.010 A 
HETATM    3  C   UNK N   1      28.495  17.443   4.258  0.00  0.00     0.010 A 
HETATM    4  C   UNK N   1      30.253  16.881   5.819  0.00  0.00    -0.025 A 
HETATM    5  C   UNK N   1      29.727  15.588   5.937  0.00  0.00     0.013 A 
HETATM    6  C   UNK N   1      29.630  17.818   4.986  0.00  0.00     0.013 A 
ENDROOT
BRANCH   1   7
HETATM    7  C   UNK N   1      26.781  15.704   3.627  0.00  0.00     0.172 C 
BRANCH   7   8
HETATM    8  N   UNK N   1      25.545  15.585   4.399  0.00  0.00    -0.299 N 
HETATM    9  C   UNK N   1      24.737  16.759   4.481  0.00  0.00     0.119 A 
HETATM   10  N   UNK N   1      25.091  17.871   3.774  0.00  0.00    -0.332 N 
HETATM   11  C   UNK N   1      23.578  16.794   5.268  0.00  0.00     0.009 A 
HETATM   12  C   UNK N   1      24.345  19.003   3.810  0.00  0.00     0.078 A 
ATOM     13  HN  UNK N   1      25.937  17.850   3.204  1.00  0.00     0.168 HD
HETATM   14  N   UNK N   1      23.224  19.052   4.572  0.00  0.00    -0.349 N 
HETATM   15  C   UNK N   1      24.753  20.188   3.011  0.00  0.00     0.089 C 
HETATM   16  C   UNK N   1      22.828  17.979   5.303  0.00  0.00     0.016 A 
ATOM     17  HN  UNK N   1      22.670  19.909   4.595  1.00  0.00     0.167 HD
HETATM   18  C   UNK N   1      21.590  18.082   6.129  0.00  0.00     0.069 C 
HETATM   19  C   UNK N   1      23.149  15.612   6.076  0.00  0.00     0.053 C 
HETATM   20  C   UNK N   1      23.833  14.300   5.729  0.00  0.00     0.108 C 
HETATM   21  C   UNK N   1      25.115  14.399   4.959  0.00  0.00     0.226 C 
HETATM   22  O   UNK N   1      25.748  13.365   4.811  0.00  0.00    -0.273 OA
ENDBRANCH   7   8
ENDBRANCH   1   7
BRANCH   4  23
HETATM   23  C   UNK N   1      31.554  17.151   6.432  0.00  0.00    -0.012 A 
HETATM   24  C   UNK N   1      31.627  17.671   7.753  0.00  0.00     0.021 A 
HETATM   25  C   UNK N   1      32.877  18.036   8.268  0.00  0.00     0.016 A 
HETATM   26  C   UNK N   1      34.036  17.875   7.504  0.00  0.00     0.001 A 
HETATM   27  C   UNK N   1      33.961  17.327   6.221  0.00  0.00     0.001 A 
HETATM   28  C   UNK N   1      32.723  16.967   5.685  0.00  0.00     0.013 A 
BRANCH  24  29
HETATM   29  C   UNK N   1      30.428  17.777   8.636  0.00  0.00     0.145 A 
HETATM   30  N   UNK N   1      29.467  18.718   8.540  0.00  0.00    -0.271 N 
HETATM   31  N   UNK N   1      28.579  18.427   9.470  0.00  0.00    -0.225 N 
ATOM     32  HN  UNK N   1      29.434  19.497   7.881  1.00  0.00     0.190 HD
HETATM   33  N   UNK N   1      28.966  17.337  10.116  0.00  0.00    -0.005 NA
HETATM   34  H   UNK N   1      27.758  18.938   9.655  0.00  0.00     0.205 HD
HETATM   35  N   UNK N   1      30.110  16.907   9.609  0.00  0.00    -0.266 N 
ATOM     36  HN  UNK N   1      30.642  16.085   9.898  1.00  0.00     0.186 HD
ENDBRANCH  24  29
ENDBRANCH   4  23
TORSDOF 4
ENDMDL
MODEL 5
REMARK VINA RESULT:      -8.2      2.706      8.508
REMARK  4 active torsions:
REMARK  status: ('A' for Active; 'I' for Inactive)
REMARK    1  A    between atoms: N_2  and  C_17 
REMARK    2  A    between atoms: C_17  and  C_20 
REMARK    3  A    between atoms: C_25  and  C_28 
REMARK    4  A    between atoms: C_30  and  C_34 
ROOT
HETATM    1  C   UNK N   1      33.993  15.603   8.213  0.00  0.00    -0.040 A 
HETATM    2  C   UNK N   1      32.902  14.813   7.873  0.00  0.00     0.010 A 
HETATM    3  C   UNK N   1      33.912  17.003   8.128  0.00  0.00     0.010 A 
HETATM    4  C   UNK N   1      31.612  16.806   7.412  0.00  0.00    -0.025 A 
HETATM    5  C   UNK N   1      31.715  15.410   7.486  0.00  0.00     0.013 A 
HETATM    6  C   UNK N   1      32.717  17.608   7.722  0.00  0.00     0.013 A 
ENDROOT
BRANCH   1   7
HETATM    7  C   UNK N   1      35.248  14.925   8.630  0.00  0.00     0.172 C 
BRANCH   7   8
HETATM    8  N   UNK N   1      35.384  14.628  10.056  0.00  0.00    -0.299 N 
HETATM    9  C   UNK N   1      34.968  13.326  10.471  0.00  0.00     0.119 A 
HETATM   10  N   UNK N   1      34.574  12.415   9.535  0.00  0.00    -0.332 N 
HETATM   11  C   UNK N   1      34.964  12.958  11.823  0.00  0.00     0.009 A 
HETATM   12  C   UNK N   1      34.187  11.162   9.883  0.00  0.00     0.078 A 
ATOM     13  HN  UNK N   1      34.571  12.681   8.550  1.00  0.00     0.168 HD
HETATM   14  N   UNK N   1      34.173  10.794  11.189  0.00  0.00    -0.349 N 
HETATM   15  C   UNK N   1      33.782  10.191   8.834  0.00  0.00     0.089 C 
HETATM   16  C   UNK N   1      34.546  11.662  12.163  0.00  0.00     0.016 A 
ATOM     17  HN  UNK N   1      33.878   9.851  11.441  1.00  0.00     0.167 HD
HETATM   18  C   UNK N   1      34.510  11.214  13.585  0.00  0.00     0.069 C 
HETATM   19  C   UNK N   1      35.371  13.919  12.894  0.00  0.00     0.053 C 
HETATM   20  C   UNK N   1      36.098  15.164  12.412  0.00  0.00     0.108 C 
HETATM   21  C   UNK N   1      35.952  15.502  10.960  0.00  0.00     0.226 C 
HETATM   22  O   UNK N   1      36.402  16.578  10.599  0.00  0.00    -0.273 OA
ENDBRANCH   7   8
ENDBRANCH   1   7
BRANCH   4  23
HETATM   23  C   UNK N   1      30.287  17.385   7.191  0.00  0.00    -0.012 A 
HETATM   24  C   UNK N   1      29.844  17.675   5.872  0.00  0.00     0.021 A 
HETATM   25  C   UNK N   1      28.625  18.343   5.699  0.00  0.00     0.016 A 
HETATM   26  C   UNK N   1      27.847  18.701   6.802  0.00  0.00     0.001 A 
HETATM   27  C   UNK N   1      28.269  18.378   8.094  0.00  0.00     0.001 A 
HETATM   28  C   UNK N   1      29.487  17.723   8.290  0.00  0.00     0.013 A 
BRANCH  24  29
HETATM   29  C   UNK N   1      30.599  17.234   4.662  0.00  0.00     0.145 A 
HETATM   30  N   UNK N   1      31.511  17.972   3.997  0.00  0.00    -0.271 N 
HETATM   31  N   UNK N   1      31.966  17.200   3.029  0.00  0.00    -0.225 N 
ATOM     32  HN  UNK N   1      31.791  18.932   4.201  1.00  0.00     0.190 HD
HETATM   33  N   UNK N   1      31.369  16.020   3.095  0.00  0.00    -0.005 NA
HETATM   34  H   UNK N   1      32.643  17.460   2.362  0.00  0.00     0.205 HD
HETATM   35  N   UNK N   1      30.519  16.012   4.110  0.00  0.00    -0.266 N 
ATOM     36  HN  UNK N   1      29.926  15.238   4.410  1.00  0.00     0.186 HD
ENDBRANCH  24  29
ENDBRANCH   4  23
TORSDOF 4
ENDMDL
MODEL 6
REMARK VINA RESULT:      -8.1      6.297      9.295
REMARK  4 active torsions:
REMARK  status: ('A' for Active; 'I' for Inactive)
REMARK    1  A    between atoms: N_2  and  C_17 
REMARK    2  A    between atoms: C_17  and  C_20 
REMARK    3  A    between atoms: C_25  and  C_28 
REMARK    4  A    between atoms: C_30  and  C_34 
ROOT
HETATM    1  C   UNK N   1      27.646  16.372   4.348  0.00  0.00    -0.040 A 
HETATM    2  C   UNK N   1      28.298  17.592   4.218  0.00  0.00     0.010 A 
HETATM    3  C   UNK N   1      28.202  15.348   5.133  0.00  0.00     0.010 A 
HETATM    4  C   UNK N   1      30.044  16.808   5.696  0.00  0.00    -0.025 A 
HETATM    5  C   UNK N   1      29.484  17.813   4.897  0.00  0.00     0.013 A 
HETATM    6  C   UNK N   1      29.409  15.565   5.808  0.00  0.00     0.013 A 
ENDROOT
BRANCH   1   7
HETATM    7  C   UNK N   1      26.371  16.176   3.610  0.00  0.00     0.172 C 
BRANCH   7   8
HETATM    8  N   UNK N   1      25.187  16.824   4.172  0.00  0.00    -0.299 N 
HETATM    9  C   UNK N   1      24.462  16.076   5.149  0.00  0.00     0.119 A 
HETATM   10  N   UNK N   1      24.950  14.874   5.574  0.00  0.00    -0.332 N 
HETATM   11  C   UNK N   1      23.261  16.553   5.690  0.00  0.00     0.009 A 
HETATM   12  C   UNK N   1      24.302  14.137   6.511  0.00  0.00     0.078 A 
ATOM     13  HN  UNK N   1      25.821  14.522   5.178  1.00  0.00     0.168 HD
HETATM   14  N   UNK N   1      23.136  14.584   7.040  0.00  0.00    -0.349 N 
HETATM   15  C   UNK N   1      24.874  12.842   6.963  0.00  0.00     0.089 C 
HETATM   16  C   UNK N   1      22.600  15.768   6.648  0.00  0.00     0.016 A 
ATOM     17  HN  UNK N   1      22.655  14.022   7.743  1.00  0.00     0.167 HD
HETATM   18  C   UNK N   1      21.314  16.217   7.255  0.00  0.00     0.069 C 
HETATM   19  C   UNK N   1      22.671  17.855   5.252  0.00  0.00     0.053 C 
HETATM   20  C   UNK N   1      23.603  18.762   4.466  0.00  0.00     0.108 C 
HETATM   21  C   UNK N   1      24.811  18.115   3.859  0.00  0.00     0.226 C 
HETATM   22  O   UNK N   1      25.478  18.800   3.101  0.00  0.00    -0.273 OA
ENDBRANCH   7   8
ENDBRANCH   1   7
BRANCH   4  23
HETATM   23  C   UNK N   1      31.185  17.160   6.542  0.00  0.00    -0.012 A 
HETATM   24  C   UNK N   1      30.974  17.774   7.807  0.00  0.00     0.021 A 
HETATM   25  C   UNK N   1      32.085  18.213   8.539  0.00  0.00     0.016 A 
HETATM   26  C   UNK N   1      33.379  18.033   8.045  0.00  0.00     0.001 A 
HETATM   27  C   UNK N   1      33.581  17.392   6.819  0.00  0.00     0.001 A 
HETATM   28  C   UNK N   1      32.487  16.958   6.068  0.00  0.00     0.013 A 
BRANCH  24  29
HETATM   29  C   UNK N   1      29.617  17.908   8.412  0.00  0.00     0.145 A 
HETATM   30  N   UNK N   1      28.747  18.910   8.170  0.00  0.00    -0.271 N 
HETATM   31  N   UNK N   1      27.662  18.624   8.864  0.00  0.00    -0.225 N 
ATOM     32  HN  UNK N   1      28.899  19.722   7.572  1.00  0.00     0.190 HD
HETATM   33  N   UNK N   1      27.844  17.480   9.506  0.00  0.00    -0.005 NA
HETATM   34  H   UNK N   1      26.846  19.174   8.899  0.00  0.00     0.205 HD
HETATM   35  N   UNK N   1      29.050  17.009   9.234  0.00  0.00    -0.266 N 
ATOM     36  HN  UNK N   1      29.464  16.141   9.578  1.00  0.00     0.186 HD
ENDBRANCH  24  29
ENDBRANCH   4  23
TORSDOF 4
ENDMDL
MODEL 7
REMARK VINA RESULT:      -7.8      8.636     12.566
REMARK  4 active torsions:
REMARK  status: ('A' for Active; 'I' for Inactive)
REMARK    1  A    between atoms: N_2  and  C_17 
REMARK    2  A    between atoms: C_17  and  C_20 
REMARK    3  A    between atoms: C_25  and  C_28 
REMARK    4  A    between atoms: C_30  and  C_34 
ROOT
HETATM    1  C   UNK N   1      23.853  18.331   4.394  0.00  0.00    -0.040 A 
HETATM    2  C   UNK N   1      24.756  19.108   3.679  0.00  0.00     0.010 A 
HETATM    3  C   UNK N   1      24.261  17.117   4.973  0.00  0.00     0.010 A 
HETATM    4  C   UNK N   1      26.502  17.503   4.153  0.00  0.00    -0.025 A 
HETATM    5  C   UNK N   1      26.075  18.703   3.568  0.00  0.00     0.013 A 
HETATM    6  C   UNK N   1      25.590  16.698   4.849  0.00  0.00     0.013 A 
ENDROOT
BRANCH   1   7
HETATM    7  C   UNK N   1      22.448  18.803   4.496  0.00  0.00     0.172 C 
BRANCH   7   8
HETATM    8  N   UNK N   1      21.705  18.911   3.241  0.00  0.00    -0.299 N 
HETATM    9  C   UNK N   1      21.018  17.735   2.812  0.00  0.00     0.119 A 
HETATM   10  N   UNK N   1      21.003  16.633   3.617  0.00  0.00    -0.332 N 
HETATM   11  C   UNK N   1      20.350  17.688   1.582  0.00  0.00     0.009 A 
HETATM   12  C   UNK N   1      20.350  15.500   3.256  0.00  0.00     0.078 A 
ATOM     13  HN  UNK N   1      21.493  16.662   4.512  1.00  0.00     0.168 HD
HETATM   14  N   UNK N   1      19.704  15.439   2.066  0.00  0.00    -0.349 N 
HETATM   15  C   UNK N   1      20.340  14.326   4.168  0.00  0.00     0.089 C 
HETATM   16  C   UNK N   1      19.693  16.501   1.221  0.00  0.00     0.016 A 
ATOM     17  HN  UNK N   1      19.217  14.581   1.802  1.00  0.00     0.167 HD
HETATM   18  C   UNK N   1      18.972  16.386  -0.080  0.00  0.00     0.069 C 
HETATM   19  C   UNK N   1      20.346  18.859   0.652  0.00  0.00     0.053 C 
HETATM   20  C   UNK N   1      20.801  20.176   1.258  0.00  0.00     0.108 C 
HETATM   21  C   UNK N   1      21.586  20.089   2.531  0.00  0.00     0.226 C 
HETATM   22  O   UNK N   1      22.086  21.125   2.940  0.00  0.00    -0.273 OA
ENDBRANCH   7   8
ENDBRANCH   1   7
BRANCH   4  23
HETATM   23  C   UNK N   1      27.938  17.223   4.175  0.00  0.00    -0.012 A 
HETATM   24  C   UNK N   1      28.759  17.782   5.192  0.00  0.00     0.021 A 
HETATM   25  C   UNK N   1      30.145  17.600   5.118  0.00  0.00     0.016 A 
HETATM   26  C   UNK N   1      30.712  16.865   4.073  0.00  0.00     0.001 A 
HETATM   27  C   UNK N   1      29.895  16.285   3.098  0.00  0.00     0.001 A 
HETATM   28  C   UNK N   1      28.511  16.465   3.147  0.00  0.00     0.013 A 
BRANCH  24  29
HETATM   29  C   UNK N   1      28.191  18.497   6.372  0.00  0.00     0.145 A 
HETATM   30  N   UNK N   1      27.946  17.946   7.578  0.00  0.00    -0.271 N 
HETATM   31  N   UNK N   1      27.494  18.924   8.340  0.00  0.00    -0.225 N 
ATOM     32  HN  UNK N   1      28.082  16.971   7.846  1.00  0.00     0.190 HD
HETATM   33  N   UNK N   1      27.470  20.047   7.638  0.00  0.00    -0.005 NA
HETATM   34  H   UNK N   1      27.219  18.834   9.280  0.00  0.00     0.205 HD
HETATM   35  N   UNK N   1      27.908  19.810   6.412  0.00  0.00    -0.266 N 
ATOM     36  HN  UNK N   1      28.010  20.486   5.653  1.00  0.00     0.186 HD
ENDBRANCH  24  29
ENDBRANCH   4  23
TORSDOF 4
ENDMDL
MODEL 8
REMARK VINA RESULT:      -7.7      7.958     11.917
REMARK  4 active torsions:
REMARK  status: ('A' for Active; 'I' for Inactive)
REMARK    1  A    between atoms: N_2  and  C_17 
REMARK    2  A    between atoms: C_17  and  C_20 
REMARK    3  A    between atoms: C_25  and  C_28 
REMARK    4  A    between atoms: C_30  and  C_34 
ROOT
HETATM    1  C   UNK N   1      24.066  16.510   4.988  0.00  0.00    -0.040 A 
HETATM    2  C   UNK N   1      24.864  15.688   5.774  0.00  0.00     0.010 A 
HETATM    3  C   UNK N   1      24.639  17.545   4.229  0.00  0.00     0.010 A 
HETATM    4  C   UNK N   1      26.826  16.882   5.016  0.00  0.00    -0.025 A 
HETATM    5  C   UNK N   1      26.237  15.865   5.780  0.00  0.00     0.013 A 
HETATM    6  C   UNK N   1      26.025  17.734   4.246  0.00  0.00     0.013 A 
ENDROOT
BRANCH   1   7
HETATM    7  C   UNK N   1      22.597  16.285   5.003  0.00  0.00     0.172 C 
BRANCH   7   8
HETATM    8  N   UNK N   1      22.022  15.662   3.811  0.00  0.00    -0.299 N 
HETATM    9  C   UNK N   1      21.296  16.526   2.936  0.00  0.00     0.119 A 
HETATM   10  N   UNK N   1      21.262  17.866   3.190  0.00  0.00    -0.332 N 
HETATM   11  C   UNK N   1      20.623  16.028   1.813  0.00  0.00     0.009 A 
HETATM   12  C   UNK N   1      20.598  18.725   2.376  0.00  0.00     0.078 A 
ATOM     13  HN  UNK N   1      21.747  18.231   4.010  1.00  0.00     0.168 HD
HETATM   14  N   UNK N   1      19.937  18.256   1.288  0.00  0.00    -0.349 N 
HETATM   15  C   UNK N   1      20.598  20.181   2.675  0.00  0.00     0.089 C 
HETATM   16  C   UNK N   1      19.930  16.932   0.992  0.00  0.00     0.016 A 
ATOM     17  HN  UNK N   1      19.439  18.910   0.683  1.00  0.00     0.167 HD
HETATM   18  C   UNK N   1      19.187  16.462  -0.213  0.00  0.00     0.069 C 
HETATM   19  C   UNK N   1      20.613  14.567   1.493  0.00  0.00     0.053 C 
HETATM   20  C   UNK N   1      21.635  13.728   2.242  0.00  0.00     0.108 C 
HETATM   21  C   UNK N   1      22.219  14.336   3.481  0.00  0.00     0.226 C 
HETATM   22  O   UNK N   1      22.921  13.612   4.169  0.00  0.00    -0.273 OA
ENDBRANCH   7   8
ENDBRANCH   1   7
BRANCH   4  23
HETATM   23  C   UNK N   1      28.285  16.897   4.904  0.00  0.00    -0.012 A 
HETATM   24  C   UNK N   1      29.076  17.443   5.951  0.00  0.00     0.021 A 
HETATM   25  C   UNK N   1      30.459  17.559   5.764  0.00  0.00     0.016 A 
HETATM   26  C   UNK N   1      31.055  17.128   4.576  0.00  0.00     0.001 A 
HETATM   27  C   UNK N   1      30.276  16.555   3.567  0.00  0.00     0.001 A 
HETATM   28  C   UNK N   1      28.894  16.442   3.729  0.00  0.00     0.013 A 
BRANCH  24  29
HETATM   29  C   UNK N   1      28.495  17.835   7.269  0.00  0.00     0.145 A 
HETATM   30  N   UNK N   1      27.840  18.986   7.524  0.00  0.00    -0.271 N 
HETATM   31  N   UNK N   1      27.457  18.914   8.784  0.00  0.00    -0.225 N 
ATOM     32  HN  UNK N   1      27.676  19.755   6.874  1.00  0.00     0.190 HD
HETATM   33  N   UNK N   1      27.848  17.755   9.293  0.00  0.00    -0.005 NA
HETATM   34  H   UNK N   1      26.959  19.611   9.270  0.00  0.00     0.205 HD
HETATM   35  N   UNK N   1      28.488  17.060   8.367  0.00  0.00    -0.266 N 
ATOM     36  HN  UNK N   1      28.893  16.129   8.466  1.00  0.00     0.186 HD
ENDBRANCH  24  29
ENDBRANCH   4  23
TORSDOF 4
ENDMDL
MODEL 9
REMARK VINA RESULT:      -7.6      6.316      9.534
REMARK  4 active torsions:
REMARK  status: ('A' for Active; 'I' for Inactive)
REMARK    1  A    between atoms: N_2  and  C_17 
REMARK    2  A    between atoms: C_17  and  C_20 
REMARK    3  A    between atoms: C_25  and  C_28 
REMARK    4  A    between atoms: C_30  and  C_34 
ROOT
HETATM    1  C   UNK N   1      27.124  16.893   4.367  0.00  0.00    -0.040 A 
HETATM    2  C   UNK N   1      27.947  17.993   4.158  0.00  0.00     0.010 A 
HETATM    3  C   UNK N   1      27.557  15.821   5.165  0.00  0.00     0.010 A 
HETATM    4  C   UNK N   1      29.628  16.996   5.582  0.00  0.00    -0.025 A 
HETATM    5  C   UNK N   1      29.187  18.050   4.771  0.00  0.00     0.013 A 
HETATM    6  C   UNK N   1      28.817  15.870   5.773  0.00  0.00     0.013 A 
ENDROOT
BRANCH   1   7
HETATM    7  C   UNK N   1      25.797  16.873   3.697  0.00  0.00     0.172 C 
BRANCH   7   8
HETATM    8  N   UNK N   1      25.298  15.562   3.283  0.00  0.00    -0.299 N 
HETATM    9  C   UNK N   1      24.192  15.046   4.026  0.00  0.00     0.119 A 
HETATM   10  N   UNK N   1      23.607  15.818   4.986  0.00  0.00    -0.332 N 
HETATM   11  C   UNK N   1      23.686  13.762   3.783  0.00  0.00     0.009 A 
HETATM   12  C   UNK N   1      22.545  15.374   5.705  0.00  0.00     0.078 A 
ATOM     13  HN  UNK N   1      23.976  16.751   5.169  1.00  0.00     0.168 HD
HETATM   14  N   UNK N   1      22.049  14.131   5.484  0.00  0.00    -0.349 N 
HETATM   15  C   UNK N   1      21.923  16.251   6.730  0.00  0.00     0.089 C 
HETATM   16  C   UNK N   1      22.597  13.316   4.547  0.00  0.00     0.016 A 
ATOM     17  HN  UNK N   1      21.251  13.805   6.031  1.00  0.00     0.167 HD
HETATM   18  C   UNK N   1      22.019  11.956   4.342  0.00  0.00     0.069 C 
HETATM   19  C   UNK N   1      24.296  12.865   2.754  0.00  0.00     0.053 C 
HETATM   20  C   UNK N   1      25.245  13.542   1.778  0.00  0.00     0.108 C 
HETATM   21  C   UNK N   1      25.790  14.875   2.192  0.00  0.00     0.226 C 
HETATM   22  O   UNK N   1      26.668  15.351   1.490  0.00  0.00    -0.273 OA
ENDBRANCH   7   8
ENDBRANCH   1   7
BRANCH   4  23
HETATM   23  C   UNK N   1      30.852  17.194   6.359  0.00  0.00    -0.012 A 
HETATM   24  C   UNK N   1      30.782  17.693   7.689  0.00  0.00     0.021 A 
HETATM   25  C   UNK N   1      31.972  17.990   8.363  0.00  0.00     0.016 A 
HETATM   26  C   UNK N   1      33.210  17.783   7.748  0.00  0.00     0.001 A 
HETATM   27  C   UNK N   1      33.272  17.254   6.456  0.00  0.00     0.001 A 
HETATM   28  C   UNK N   1      32.097  16.963   5.762  0.00  0.00     0.013 A 
BRANCH  24  29
HETATM   29  C   UNK N   1      29.487  17.848   8.415  0.00  0.00     0.145 A 
HETATM   30  N   UNK N   1      28.613  18.861   8.249  0.00  0.00    -0.271 N 
HETATM   31  N   UNK N   1      27.592  18.593   9.040  0.00  0.00    -0.225 N 
ATOM     32  HN  UNK N   1      28.720  19.670   7.636  1.00  0.00     0.190 HD
HETATM   33  N   UNK N   1      27.816  17.449   9.668  0.00  0.00    -0.005 NA
HETATM   34  H   UNK N   1      26.790  19.155   9.147  0.00  0.00     0.205 HD
HETATM   35  N   UNK N   1      28.986  16.959   9.289  0.00  0.00    -0.266 N 
ATOM     36  HN  UNK N   1      29.417  16.087   9.597  1.00  0.00     0.186 HD
ENDBRANCH  24  29
ENDBRANCH   4  23
TORSDOF 4
ENDMDL
