REMARK  4 active torsions:
REMARK  status: ('A' for Active; 'I' for Inactive)
REMARK    1  A    between atoms: C_6  and  C_7 
REMARK    2  A    between atoms: C_6  and  C_9 
REMARK    3  A    between atoms: C_7  and  C_8 
REMARK    4  A    between atoms: C_8  and  C_10 
ROOT
HETATM    1  O   UNK N   1       4.508   0.265  -1.901  0.00  0.00    -0.272 OA
HETATM    2  O   UNK N   1       1.186  -0.527   1.304  0.00  0.00    -0.272 OA
HETATM    3  O   UNK N   1       3.898  -3.759  -0.113  0.00  0.00    -0.247 OA
HETATM    4  N   UNK N   1       4.192  -1.755  -1.033  0.00  0.00    -0.278 N 
HETATM    5  N   UNK N   1       2.515  -2.156   0.576  0.00  0.00    -0.278 N 
HETATM    6  C   UNK N   1       2.971   0.213  -0.081  0.00  0.00     0.122 C 
HETATM    7  C   UNK N   1       3.918  -0.430  -1.087  0.00  0.00     0.243 C 
HETATM    8  C   UNK N   1       2.145  -0.851   0.620  0.00  0.00     0.243 C 
HETATM    9  C   UNK N   1       3.553  -2.590  -0.180  0.00  0.00     0.329 C 
HETATM   10  H   UNK N   1       4.880  -2.124  -1.634  0.00  0.00     0.173 HD
HETATM   11  H   UNK N   1       2.011  -2.810   1.111  0.00  0.00     0.173 HD
ENDROOT
BRANCH   6  12
HETATM   12  C   UNK N   1       3.795   0.901   1.022  0.00  0.00     0.029 C 
BRANCH  12  13
HETATM   13  C   UNK N   1       4.915   1.796   0.497  0.00  0.00     0.005 C 
BRANCH  13  14
HETATM   14  C   UNK N   1       4.771   3.228   0.966  0.00  0.00    -0.023 C 
HETATM   15  C   UNK N   1       5.998   3.997   0.529  0.00  0.00     0.009 C 
HETATM   16  C   UNK N   1       3.548   3.872   0.343  0.00  0.00     0.009 C 
ENDBRANCH  13  14
ENDBRANCH  12  13
ENDBRANCH   6  12
BRANCH   6  17
HETATM   17  C   UNK N   1       2.070   1.277  -0.738  0.00  0.00     0.024 C 
HETATM   18  C   UNK N   1       1.111   0.737  -1.782  0.00  0.00     0.007 C 
ENDBRANCH   6  17
TORSDOF 4
