MODEL 1
REMARK VINA RESULT:      -5.7      0.000      0.000
REMARK  4 active torsions:
REMARK  status: ('A' for Active; 'I' for Inactive)
REMARK    1  A    between atoms: C_6  and  C_7 
REMARK    2  A    between atoms: C_6  and  C_9 
REMARK    3  A    between atoms: C_7  and  C_8 
REMARK    4  A    between atoms: C_8  and  C_10 
ROOT
HETATM    1  O   UNK N   1      34.108  17.968   6.460  0.00  0.00    -0.272 OA
HETATM    2  O   UNK N   1      31.969  15.048   9.432  0.00  0.00    -0.272 OA
HETATM    3  O   UNK N   1      35.695  17.214  10.543  0.00  0.00    -0.247 OA
HETATM    4  N   UNK N   1      34.923  17.576   8.489  0.00  0.00    -0.278 N 
HETATM    5  N   UNK N   1      33.850  16.101   9.983  0.00  0.00    -0.278 N 
HETATM    6  C   UNK N   1      32.665  16.693   7.863  0.00  0.00     0.122 C 
HETATM    7  C   UNK N   1      33.962  17.428   7.546  0.00  0.00     0.243 C 
HETATM    8  C   UNK N   1      32.821  15.870   9.129  0.00  0.00     0.243 C 
HETATM    9  C   UNK N   1      34.843  16.979   9.701  0.00  0.00     0.329 C 
HETATM   10  H   UNK N   1      35.707  18.137   8.285  0.00  0.00     0.173 HD
HETATM   11  H   UNK N   1      33.877  15.612  10.837  0.00  0.00     0.173 HD
ENDROOT
BRANCH   6  12
HETATM   12  C   UNK N   1      31.560  17.722   8.164  0.00  0.00     0.029 C 
BRANCH  12  13
HETATM   13  C   UNK N   1      30.197  17.364   7.576  0.00  0.00     0.005 C 
BRANCH  13  14
HETATM   14  C   UNK N   1      29.055  17.873   8.428  0.00  0.00    -0.023 C 
HETATM   15  C   UNK N   1      29.636  18.518   9.667  0.00  0.00     0.009 C 
HETATM   16  C   UNK N   1      28.250  18.913   7.673  0.00  0.00     0.009 C 
ENDBRANCH  13  14
ENDBRANCH  12  13
ENDBRANCH   6  12
BRANCH   6  17
HETATM   17  C   UNK N   1      32.195  15.821   6.683  0.00  0.00     0.024 C 
HETATM   18  C   UNK N   1      33.162  14.720   6.286  0.00  0.00     0.007 C 
ENDBRANCH   6  17
TORSDOF 4
ENDMDL
MODEL 2
REMARK VINA RESULT:      -5.6     13.842     15.479
REMARK  4 active torsions:
REMARK  status: ('A' for Active; 'I' for Inactive)
REMARK    1  A    between atoms: C_6  and  C_7 
REMARK    2  A    between atoms: C_6  and  C_9 
REMARK    3  A    between atoms: C_7  and  C_8 
REMARK    4  A    between atoms: C_8  and  C_10 
ROOT
HETATM    1  O   UNK N   1      30.336  24.667  -5.569  0.00  0.00    -0.272 OA
HETATM    2  O   UNK N   1      26.442  23.897  -3.082  0.00  0.00    -0.272 OA
HETATM    3  O   UNK N   1      30.481  22.941  -1.475  0.00  0.00    -0.247 OA
HETATM    4  N   UNK N   1      30.415  23.778  -3.534  0.00  0.00    -0.278 N 
HETATM    5  N   UNK N   1      28.455  23.384  -2.284  0.00  0.00    -0.278 N 
HETATM    6  C   UNK N   1      28.250  24.673  -4.417  0.00  0.00     0.122 C 
HETATM    7  C   UNK N   1      29.731  24.343  -4.557  0.00  0.00     0.243 C 
HETATM    8  C   UNK N   1      27.654  23.931  -3.234  0.00  0.00     0.243 C 
HETATM    9  C   UNK N   1      29.805  23.365  -2.399  0.00  0.00     0.329 C 
HETATM   10  H   UNK N   1      31.391  23.665  -3.619  0.00  0.00     0.173 HD
HETATM   11  H   UNK N   1      28.040  22.986  -1.486  0.00  0.00     0.173 HD
ENDROOT
BRANCH   6  12
HETATM   12  C   UNK N   1      28.093  26.171  -4.097  0.00  0.00     0.029 C 
BRANCH  12  13
HETATM   13  C   UNK N   1      27.202  26.928  -5.079  0.00  0.00     0.005 C 
BRANCH  13  14
HETATM   14  C   UNK N   1      25.833  27.219  -4.503  0.00  0.00    -0.023 C 
HETATM   15  C   UNK N   1      25.850  28.614  -3.919  0.00  0.00     0.009 C 
HETATM   16  C   UNK N   1      24.775  27.160  -5.588  0.00  0.00     0.009 C 
ENDBRANCH  13  14
ENDBRANCH  12  13
ENDBRANCH   6  12
BRANCH   6  17
HETATM   17  C   UNK N   1      27.469  24.377  -5.713  0.00  0.00     0.024 C 
HETATM   18  C   UNK N   1      27.621  22.960  -6.233  0.00  0.00     0.007 C 
ENDBRANCH   6  17
TORSDOF 4
ENDMDL
MODEL 3
REMARK VINA RESULT:      -5.5      1.636      4.017
REMARK  4 active torsions:
REMARK  status: ('A' for Active; 'I' for Inactive)
REMARK    1  A    between atoms: C_6  and  C_7 
REMARK    2  A    between atoms: C_6  and  C_9 
REMARK    3  A    between atoms: C_7  and  C_8 
REMARK    4  A    between atoms: C_8  and  C_10 
ROOT
HETATM    1  O   UNK N   1      32.284  15.038   8.741  0.00  0.00    -0.272 OA
HETATM    2  O   UNK N   1      34.784  18.970   8.271  0.00  0.00    -0.272 OA
HETATM    3  O   UNK N   1      35.634  16.021  11.493  0.00  0.00    -0.247 OA
HETATM    4  N   UNK N   1      33.938  15.535  10.138  0.00  0.00    -0.278 N 
HETATM    5  N   UNK N   1      35.194  17.518   9.905  0.00  0.00    -0.278 N 
HETATM    6  C   UNK N   1      33.579  16.929   8.089  0.00  0.00     0.122 C 
HETATM    7  C   UNK N   1      33.204  15.790   9.029  0.00  0.00     0.243 C 
HETATM    8  C   UNK N   1      34.535  17.887   8.778  0.00  0.00     0.243 C 
HETATM    9  C   UNK N   1      34.950  16.342  10.535  0.00  0.00     0.329 C 
HETATM   10  H   UNK N   1      33.730  14.734  10.673  0.00  0.00     0.173 HD
HETATM   11  H   UNK N   1      35.871  18.125  10.279  0.00  0.00     0.173 HD
ENDROOT
BRANCH   6  12
HETATM   12  C   UNK N   1      34.348  16.360   6.884  0.00  0.00     0.029 C 
BRANCH  12  13
HETATM   13  C   UNK N   1      33.854  16.869   5.532  0.00  0.00     0.005 C 
BRANCH  13  14
HETATM   14  C   UNK N   1      33.627  15.745   4.545  0.00  0.00    -0.023 C 
HETATM   15  C   UNK N   1      32.567  14.824   5.109  0.00  0.00     0.009 C 
HETATM   16  C   UNK N   1      33.138  16.291   3.218  0.00  0.00     0.009 C 
ENDBRANCH  13  14
ENDBRANCH  12  13
ENDBRANCH   6  12
BRANCH   6  17
HETATM   17  C   UNK N   1      32.335  17.668   7.557  0.00  0.00     0.024 C 
HETATM   18  C   UNK N   1      31.370  18.138   8.629  0.00  0.00     0.007 C 
ENDBRANCH   6  17
TORSDOF 4
ENDMDL
MODEL 4
REMARK VINA RESULT:      -5.3      1.529      1.764
REMARK  4 active torsions:
REMARK  status: ('A' for Active; 'I' for Inactive)
REMARK    1  A    between atoms: C_6  and  C_7 
REMARK    2  A    between atoms: C_6  and  C_9 
REMARK    3  A    between atoms: C_7  and  C_8 
REMARK    4  A    between atoms: C_8  and  C_10 
ROOT
HETATM    1  O   UNK N   1      34.516  18.925   8.215  0.00  0.00    -0.272 OA
HETATM    2  O   UNK N   1      33.409  14.530   7.035  0.00  0.00    -0.272 OA
HETATM    3  O   UNK N   1      34.659  15.606  11.169  0.00  0.00    -0.247 OA
HETATM    4  N   UNK N   1      34.617  17.267   9.691  0.00  0.00    -0.278 N 
HETATM    5  N   UNK N   1      34.066  15.053   9.096  0.00  0.00    -0.278 N 
HETATM    6  C   UNK N   1      33.608  16.865   7.435  0.00  0.00     0.122 C 
HETATM    7  C   UNK N   1      34.307  17.746   8.463  0.00  0.00     0.243 C 
HETATM    8  C   UNK N   1      33.718  15.403   7.831  0.00  0.00     0.243 C 
HETATM    9  C   UNK N   1      34.443  15.966  10.023  0.00  0.00     0.329 C 
HETATM   10  H   UNK N   1      34.980  17.887  10.366  0.00  0.00     0.173 HD
HETATM   11  H   UNK N   1      34.044  14.102   9.347  0.00  0.00     0.173 HD
ENDROOT
BRANCH   6  12
HETATM   12  C   UNK N   1      32.103  17.187   7.430  0.00  0.00     0.029 C 
BRANCH  12  13
HETATM   13  C   UNK N   1      31.559  17.641   8.783  0.00  0.00     0.005 C 
BRANCH  13  14
HETATM   14  C   UNK N   1      30.048  17.567   8.846  0.00  0.00    -0.023 C 
HETATM   15  C   UNK N   1      29.554  18.688   9.733  0.00  0.00     0.009 C 
HETATM   16  C   UNK N   1      29.448  17.741   7.465  0.00  0.00     0.009 C 
ENDBRANCH  13  14
ENDBRANCH  12  13
ENDBRANCH   6  12
BRANCH   6  17
HETATM   17  C   UNK N   1      34.151  17.100   6.011  0.00  0.00     0.024 C 
HETATM   18  C   UNK N   1      33.095  17.461   4.983  0.00  0.00     0.007 C 
ENDBRANCH   6  17
TORSDOF 4
ENDMDL
MODEL 5
REMARK VINA RESULT:      -5.2      7.112      9.775
REMARK  4 active torsions:
REMARK  status: ('A' for Active; 'I' for Inactive)
REMARK    1  A    between atoms: C_6  and  C_7 
REMARK    2  A    between atoms: C_6  and  C_9 
REMARK    3  A    between atoms: C_7  and  C_8 
REMARK    4  A    between atoms: C_8  and  C_10 
ROOT
HETATM    1  O   UNK N   1      37.385  14.681  15.831  0.00  0.00    -0.272 OA
HETATM    2  O   UNK N   1      33.893  11.849  14.522  0.00  0.00    -0.272 OA
HETATM    3  O   UNK N   1      36.330  14.095  11.553  0.00  0.00    -0.247 OA
HETATM    4  N   UNK N   1      36.847  14.416  13.692  0.00  0.00    -0.278 N 
HETATM    5  N   UNK N   1      35.084  12.995  13.033  0.00  0.00    -0.278 N 
HETATM    6  C   UNK N   1      35.788  12.959  15.432  0.00  0.00     0.122 C 
HETATM    7  C   UNK N   1      36.703  14.098  15.001  0.00  0.00     0.243 C 
HETATM    8  C   UNK N   1      34.839  12.590  14.305  0.00  0.00     0.243 C 
HETATM    9  C   UNK N   1      36.101  13.835  12.723  0.00  0.00     0.329 C 
HETATM   10  H   UNK N   1      37.517  15.091  13.437  0.00  0.00     0.173 HD
HETATM   11  H   UNK N   1      34.501  12.667  12.311  0.00  0.00     0.173 HD
ENDROOT
BRANCH   6  12
HETATM   12  C   UNK N   1      36.635  11.702  15.699  0.00  0.00     0.029 C 
BRANCH  12  13
HETATM   13  C   UNK N   1      37.699  11.431  14.639  0.00  0.00     0.005 C 
BRANCH  13  14
HETATM   14  C   UNK N   1      37.714   9.983  14.199  0.00  0.00    -0.023 C 
HETATM   15  C   UNK N   1      37.512   9.940  12.700  0.00  0.00     0.009 C 
HETATM   16  C   UNK N   1      39.046   9.339  14.528  0.00  0.00     0.009 C 
ENDBRANCH  13  14
ENDBRANCH  12  13
ENDBRANCH   6  12
BRANCH   6  17
HETATM   17  C   UNK N   1      35.016  13.298  16.723  0.00  0.00     0.024 C 
HETATM   18  C   UNK N   1      35.223  12.316  17.860  0.00  0.00     0.007 C 
ENDBRANCH   6  17
TORSDOF 4
ENDMDL
MODEL 6
REMARK VINA RESULT:      -5.1     13.278     14.839
REMARK  4 active torsions:
REMARK  status: ('A' for Active; 'I' for Inactive)
REMARK    1  A    between atoms: C_6  and  C_7 
REMARK    2  A    between atoms: C_6  and  C_9 
REMARK    3  A    between atoms: C_7  and  C_8 
REMARK    4  A    between atoms: C_8  and  C_10 
ROOT
HETATM    1  O   UNK N   1      29.460  23.750  -6.124  0.00  0.00    -0.272 OA
HETATM    2  O   UNK N   1      30.708  22.891  -1.692  0.00  0.00    -0.272 OA
HETATM    3  O   UNK N   1      26.556  24.072  -2.774  0.00  0.00    -0.247 OA
HETATM    4  N   UNK N   1      28.009  23.940  -4.453  0.00  0.00    -0.278 N 
HETATM    5  N   UNK N   1      28.639  23.514  -2.220  0.00  0.00    -0.278 N 
HETATM    6  C   UNK N   1      30.274  22.959  -4.029  0.00  0.00     0.122 C 
HETATM    7  C   UNK N   1      29.231  23.606  -4.932  0.00  0.00     0.243 C 
HETATM    8  C   UNK N   1      29.898  23.150  -2.570  0.00  0.00     0.243 C 
HETATM    9  C   UNK N   1      27.697  23.838  -3.139  0.00  0.00     0.329 C 
HETATM   10  H   UNK N   1      27.324  24.267  -5.081  0.00  0.00     0.173 HD
HETATM   11  H   UNK N   1      28.401  23.545  -1.266  0.00  0.00     0.173 HD
ENDROOT
BRANCH   6  12
HETATM   12  C   UNK N   1      30.277  21.438  -4.267  0.00  0.00     0.029 C 
BRANCH  12  13
HETATM   13  C   UNK N   1      31.592  20.898  -4.823  0.00  0.00     0.005 C 
BRANCH  13  14
HETATM   14  C   UNK N   1      31.383  20.024  -6.042  0.00  0.00    -0.023 C 
HETATM   15  C   UNK N   1      30.025  20.344  -6.628  0.00  0.00     0.009 C 
HETATM   16  C   UNK N   1      32.442  20.308  -7.089  0.00  0.00     0.009 C 
ENDBRANCH  13  14
ENDBRANCH  12  13
ENDBRANCH   6  12
BRANCH   6  17
HETATM   17  C   UNK N   1      31.692  23.490  -4.315  0.00  0.00     0.024 C 
HETATM   18  C   UNK N   1      31.813  25.003  -4.315  0.00  0.00     0.007 C 
ENDBRANCH   6  17
TORSDOF 4
ENDMDL
MODEL 7
REMARK VINA RESULT:      -5.1     14.252     16.151
REMARK  4 active torsions:
REMARK  status: ('A' for Active; 'I' for Inactive)
REMARK    1  A    between atoms: C_6  and  C_7 
REMARK    2  A    between atoms: C_6  and  C_9 
REMARK    3  A    between atoms: C_7  and  C_8 
REMARK    4  A    between atoms: C_8  and  C_10 
ROOT
HETATM    1  O   UNK N   1      26.490  23.960  -2.927  0.00  0.00    -0.272 OA
HETATM    2  O   UNK N   1      28.535  26.378  -6.378  0.00  0.00    -0.272 OA
HETATM    3  O   UNK N   1      26.310  28.399  -3.095  0.00  0.00    -0.247 OA
HETATM    4  N   UNK N   1      26.372  26.176  -3.019  0.00  0.00    -0.278 N 
HETATM    5  N   UNK N   1      27.396  27.394  -4.760  0.00  0.00    -0.278 N 
HETATM    6  C   UNK N   1      27.871  24.944  -4.602  0.00  0.00     0.122 C 
HETATM    7  C   UNK N   1      26.840  24.992  -3.480  0.00  0.00     0.243 C 
HETATM    8  C   UNK N   1      27.929  26.280  -5.322  0.00  0.00     0.243 C 
HETATM    9  C   UNK N   1      26.691  27.355  -3.603  0.00  0.00     0.329 C 
HETATM   10  H   UNK N   1      25.781  26.180  -2.231  0.00  0.00     0.173 HD
HETATM   11  H   UNK N   1      27.526  28.260  -5.208  0.00  0.00     0.173 HD
ENDROOT
BRANCH   6  12
HETATM   12  C   UNK N   1      29.269  24.731  -3.996  0.00  0.00     0.029 C 
BRANCH  12  13
HETATM   13  C   UNK N   1      29.976  23.470  -4.487  0.00  0.00     0.005 C 
BRANCH  13  14
HETATM   14  C   UNK N   1      30.580  22.673  -3.351  0.00  0.00    -0.023 C 
HETATM   15  C   UNK N   1      29.802  22.978  -2.090  0.00  0.00     0.009 C 
HETATM   16  C   UNK N   1      30.481  21.186  -3.633  0.00  0.00     0.009 C 
ENDBRANCH  13  14
ENDBRANCH  12  13
ENDBRANCH   6  12
BRANCH   6  17
HETATM   17  C   UNK N   1      27.596  23.790  -5.586  0.00  0.00     0.024 C 
HETATM   18  C   UNK N   1      26.222  23.821  -6.230  0.00  0.00     0.007 C 
ENDBRANCH   6  17
TORSDOF 4
ENDMDL
MODEL 8
REMARK VINA RESULT:      -5.1     15.652     17.536
REMARK  4 active torsions:
REMARK  status: ('A' for Active; 'I' for Inactive)
REMARK    1  A    between atoms: C_6  and  C_7 
REMARK    2  A    between atoms: C_6  and  C_9 
REMARK    3  A    between atoms: C_7  and  C_8 
REMARK    4  A    between atoms: C_8  and  C_10 
ROOT
HETATM    1  O   UNK N   1      29.136  26.880  -4.845  0.00  0.00    -0.272 OA
HETATM    2  O   UNK N   1      25.263  25.047  -6.737  0.00  0.00    -0.272 OA
HETATM    3  O   UNK N   1      26.670  23.883  -2.678  0.00  0.00    -0.247 OA
HETATM    4  N   UNK N   1      27.925  25.363  -3.766  0.00  0.00    -0.278 N 
HETATM    5  N   UNK N   1      25.978  24.434  -4.721  0.00  0.00    -0.278 N 
HETATM    6  C   UNK N   1      27.065  26.352  -5.900  0.00  0.00     0.122 C 
HETATM    7  C   UNK N   1      28.126  26.192  -4.818  0.00  0.00     0.243 C 
HETATM    8  C   UNK N   1      26.063  25.214  -5.828  0.00  0.00     0.243 C 
HETATM    9  C   UNK N   1      26.846  24.548  -3.686  0.00  0.00     0.329 C 
HETATM   10  H   UNK N   1      28.584  25.352  -3.035  0.00  0.00     0.173 HD
HETATM   11  H   UNK N   1      25.262  23.762  -4.668  0.00  0.00     0.173 HD
ENDROOT
BRANCH   6  12
HETATM   12  C   UNK N   1      26.262  27.638  -5.635  0.00  0.00     0.029 C 
BRANCH  12  13
HETATM   13  C   UNK N   1      25.939  27.879  -4.163  0.00  0.00     0.005 C 
BRANCH  13  14
HETATM   14  C   UNK N   1      26.418  29.234  -3.686  0.00  0.00    -0.023 C 
HETATM   15  C   UNK N   1      27.406  29.019  -2.561  0.00  0.00     0.009 C 
HETATM   16  C   UNK N   1      27.115  29.978  -4.808  0.00  0.00     0.009 C 
ENDBRANCH  13  14
ENDBRANCH  12  13
ENDBRANCH   6  12
BRANCH   6  17
HETATM   17  C   UNK N   1      27.689  26.460  -7.305  0.00  0.00     0.024 C 
HETATM   18  C   UNK N   1      27.893  27.879  -7.801  0.00  0.00     0.007 C 
ENDBRANCH   6  17
TORSDOF 4
ENDMDL
MODEL 9
REMARK VINA RESULT:      -5.0      2.189      4.102
REMARK  4 active torsions:
REMARK  status: ('A' for Active; 'I' for Inactive)
REMARK    1  A    between atoms: C_6  and  C_7 
REMARK    2  A    between atoms: C_6  and  C_9 
REMARK    3  A    between atoms: C_7  and  C_8 
REMARK    4  A    between atoms: C_8  and  C_10 
ROOT
HETATM    1  O   UNK N   1      31.391  14.300   6.523  0.00  0.00    -0.272 OA
HETATM    2  O   UNK N   1      32.733  18.434   8.269  0.00  0.00    -0.272 OA
HETATM    3  O   UNK N   1      33.730  14.597  10.292  0.00  0.00    -0.247 OA
HETATM    4  N   UNK N   1      32.536  14.441   8.421  0.00  0.00    -0.278 N 
HETATM    5  N   UNK N   1      33.206  16.522   9.305  0.00  0.00    -0.278 N 
HETATM    6  C   UNK N   1      32.206  16.485   7.013  0.00  0.00     0.122 C 
HETATM    7  C   UNK N   1      31.990  15.008   7.319  0.00  0.00     0.243 C 
HETATM    8  C   UNK N   1      32.702  17.213   8.250  0.00  0.00     0.243 C 
HETATM    9  C   UNK N   1      33.183  15.168   9.362  0.00  0.00     0.329 C 
HETATM   10  H   UNK N   1      32.460  13.466   8.542  0.00  0.00     0.173 HD
HETATM   11  H   UNK N   1      33.600  17.023  10.055  0.00  0.00     0.173 HD
ENDROOT
BRANCH   6  12
HETATM   12  C   UNK N   1      33.323  16.627   5.964  0.00  0.00     0.029 C 
BRANCH  12  13
HETATM   13  C   UNK N   1      32.970  17.548   4.799  0.00  0.00     0.005 C 
BRANCH  13  14
HETATM   14  C   UNK N   1      33.033  16.833   3.466  0.00  0.00    -0.023 C 
HETATM   15  C   UNK N   1      33.516  15.420   3.706  0.00  0.00     0.009 C 
HETATM   16  C   UNK N   1      31.658  16.773   2.829  0.00  0.00     0.009 C 
ENDBRANCH  13  14
ENDBRANCH  12  13
ENDBRANCH   6  12
BRANCH   6  17
HETATM   17  C   UNK N   1      30.934  17.147   6.449  0.00  0.00     0.024 C 
HETATM   18  C   UNK N   1      29.737  17.115   7.380  0.00  0.00     0.007 C 
ENDBRANCH   6  17
TORSDOF 4
ENDMDL
