MODEL 1
REMARK VINA RESULT:      -5.6      0.000      0.000
REMARK  4 active torsions:
REMARK  status: ('A' for Active; 'I' for Inactive)
REMARK    1  A    between atoms: C_6  and  C_7 
REMARK    2  A    between atoms: C_6  and  C_8 
REMARK    3  A    between atoms: C_7  and  C_9 
REMARK    4  A    between atoms: C_9  and  C_12 
ROOT
HETATM    1  O   UNK N   1      37.428  14.545  15.797  0.00  0.00    -0.272 OA
HETATM    2  O   UNK N   1      34.308  11.662  13.754  0.00  0.00    -0.272 OA
HETATM    3  O   UNK N   1      36.032  15.158  11.625  0.00  0.00    -0.247 OA
HETATM    4  N   UNK N   1      36.728  14.851  13.714  0.00  0.00    -0.278 N 
HETATM    5  N   UNK N   1      35.161  13.416  12.696  0.00  0.00    -0.278 N 
HETATM    6  C   UNK N   1      35.875  12.902  15.050  0.00  0.00     0.122 A 
HETATM    7  C   UNK N   1      36.728  14.153  14.874  0.00  0.00     0.243 A 
HETATM    8  C   UNK N   1      35.057  12.627  13.792  0.00  0.00     0.243 A 
HETATM    9  C   UNK N   1      35.975  14.495  12.647  0.00  0.00     0.329 A 
HETATM   10  H   UNK N   1      37.298  15.651  13.643  0.00  0.00     0.173 HD
HETATM   11  H   UNK N   1      34.621  13.195  11.903  0.00  0.00     0.173 HD
ENDROOT
BRANCH   6  12
HETATM   12  C   UNK N   1      34.944  13.143  16.258  0.00  0.00     0.029 C 
BRANCH  12  13
HETATM   13  C   UNK N   1      35.216  12.235  17.454  0.00  0.00     0.001 C 
BRANCH  13  14
HETATM   14  C   UNK N   1      35.222  13.031  18.743  0.00  0.00    -0.005 C 
HETATM   15  C   UNK N   1      35.220  14.515  18.429  0.00  0.00     0.005 C 
ENDBRANCH  13  14
ENDBRANCH  12  13
ENDBRANCH   6  12
BRANCH   6  16
HETATM   16  C   UNK N   1      36.780  11.673  15.276  0.00  0.00     0.024 C 
HETATM   17  C   UNK N   1      37.818  11.434  14.187  0.00  0.00     0.007 C 
ENDBRANCH   6  16
TORSDOF 4
ENDMDL
MODEL 2
REMARK VINA RESULT:      -5.2      6.472      9.450
REMARK  4 active torsions:
REMARK  status: ('A' for Active; 'I' for Inactive)
REMARK    1  A    between atoms: C_6  and  C_7 
REMARK    2  A    between atoms: C_6  and  C_8 
REMARK    3  A    between atoms: C_7  and  C_9 
REMARK    4  A    between atoms: C_9  and  C_12 
ROOT
HETATM    1  O   UNK N   1      34.453  18.318   7.013  0.00  0.00    -0.272 OA
HETATM    2  O   UNK N   1      32.331  14.544   8.873  0.00  0.00    -0.272 OA
HETATM    3  O   UNK N   1      35.314  16.926  11.141  0.00  0.00    -0.247 OA
HETATM    4  N   UNK N   1      34.884  17.621   9.074  0.00  0.00    -0.278 N 
HETATM    5  N   UNK N   1      33.830  15.728  10.000  0.00  0.00    -0.278 N 
HETATM    6  C   UNK N   1      33.198  16.403   7.664  0.00  0.00     0.122 A 
HETATM    7  C   UNK N   1      34.219  17.511   7.899  0.00  0.00     0.243 A 
HETATM    8  C   UNK N   1      33.100  15.493   8.884  0.00  0.00     0.243 A 
HETATM    9  C   UNK N   1      34.695  16.763  10.104  0.00  0.00     0.329 A 
HETATM   10  H   UNK N   1      35.532  18.354   9.183  0.00  0.00     0.173 HD
HETATM   11  H   UNK N   1      33.728  15.119  10.768  0.00  0.00     0.173 HD
ENDROOT
BRANCH   6  12
HETATM   12  C   UNK N   1      33.660  15.603   6.428  0.00  0.00     0.029 C 
BRANCH  12  13
HETATM   13  C   UNK N   1      32.622  15.512   5.312  0.00  0.00     0.001 C 
BRANCH  13  14
HETATM   14  C   UNK N   1      33.127  16.186   4.053  0.00  0.00    -0.005 C 
HETATM   15  C   UNK N   1      32.287  17.413   3.755  0.00  0.00     0.005 C 
ENDBRANCH  13  14
ENDBRANCH  12  13
ENDBRANCH   6  12
BRANCH   6  16
HETATM   16  C   UNK N   1      31.798  17.014   7.445  0.00  0.00     0.024 C 
HETATM   17  C   UNK N   1      31.329  17.953   8.550  0.00  0.00     0.007 C 
ENDBRANCH   6  16
TORSDOF 4
ENDMDL
MODEL 3
REMARK VINA RESULT:      -5.2      6.102      8.988
REMARK  4 active torsions:
REMARK  status: ('A' for Active; 'I' for Inactive)
REMARK    1  A    between atoms: C_6  and  C_7 
REMARK    2  A    between atoms: C_6  and  C_8 
REMARK    3  A    between atoms: C_7  and  C_9 
REMARK    4  A    between atoms: C_9  and  C_12 
ROOT
HETATM    1  O   UNK N   1      32.362  15.042   8.050  0.00  0.00    -0.272 OA
HETATM    2  O   UNK N   1      34.899  19.013   8.162  0.00  0.00    -0.272 OA
HETATM    3  O   UNK N   1      35.124  15.980  11.400  0.00  0.00    -0.247 OA
HETATM    4  N   UNK N   1      33.741  15.513   9.723  0.00  0.00    -0.278 N 
HETATM    5  N   UNK N   1      35.001  17.502   9.784  0.00  0.00    -0.278 N 
HETATM    6  C   UNK N   1      33.517  17.108   7.795  0.00  0.00     0.122 A 
HETATM    7  C   UNK N   1      33.172  15.819   8.533  0.00  0.00     0.243 A 
HETATM    8  C   UNK N   1      34.511  17.940   8.599  0.00  0.00     0.243 A 
HETATM    9  C   UNK N   1      34.637  16.322  10.335  0.00  0.00     0.329 A 
HETATM   10  H   UNK N   1      33.491  14.667  10.162  0.00  0.00     0.173 HD
HETATM   11  H   UNK N   1      35.648  18.068  10.265  0.00  0.00     0.173 HD
ENDROOT
BRANCH   6  12
HETATM   12  C   UNK N   1      32.202  17.889   7.589  0.00  0.00     0.029 C 
BRANCH  12  13
HETATM   13  C   UNK N   1      31.395  18.115   8.866  0.00  0.00     0.001 C 
BRANCH  13  14
HETATM   14  C   UNK N   1      29.912  17.960   8.598  0.00  0.00    -0.005 C 
HETATM   15  C   UNK N   1      29.700  17.283   7.258  0.00  0.00     0.005 C 
ENDBRANCH  13  14
ENDBRANCH  12  13
ENDBRANCH   6  12
BRANCH   6  16
HETATM   16  C   UNK N   1      34.192  16.780   6.447  0.00  0.00     0.024 C 
HETATM   17  C   UNK N   1      33.415  17.229   5.216  0.00  0.00     0.007 C 
ENDBRANCH   6  16
TORSDOF 4
ENDMDL
MODEL 4
REMARK VINA RESULT:      -5.0      0.783      3.688
REMARK  4 active torsions:
REMARK  status: ('A' for Active; 'I' for Inactive)
REMARK    1  A    between atoms: C_6  and  C_7 
REMARK    2  A    between atoms: C_6  and  C_8 
REMARK    3  A    between atoms: C_7  and  C_9 
REMARK    4  A    between atoms: C_9  and  C_12 
ROOT
HETATM    1  O   UNK N   1      34.325  11.539  13.966  0.00  0.00    -0.272 OA
HETATM    2  O   UNK N   1      37.452  14.563  15.781  0.00  0.00    -0.272 OA
HETATM    3  O   UNK N   1      35.796  15.059  11.690  0.00  0.00    -0.247 OA
HETATM    4  N   UNK N   1      35.062  13.297  12.830  0.00  0.00    -0.278 N 
HETATM    5  N   UNK N   1      36.633  14.802  13.734  0.00  0.00    -0.278 N 
HETATM    6  C   UNK N   1      35.876  12.885  15.171  0.00  0.00     0.122 A 
HETATM    7  C   UNK N   1      35.036  12.533  13.948  0.00  0.00     0.243 A 
HETATM    8  C   UNK N   1      36.711  14.134  14.909  0.00  0.00     0.243 A 
HETATM    9  C   UNK N   1      35.830  14.406  12.720  0.00  0.00     0.329 A 
HETATM   10  H   UNK N   1      34.501  13.033  12.065  0.00  0.00     0.173 HD
HETATM   11  H   UNK N   1      37.184  15.609  13.612  0.00  0.00     0.173 HD
ENDROOT
BRANCH   6  12
HETATM   12  C   UNK N   1      36.788  11.677  15.470  0.00  0.00     0.029 C 
BRANCH  12  13
HETATM   13  C   UNK N   1      37.835  11.396  14.394  0.00  0.00     0.001 C 
BRANCH  13  14
HETATM   14  C   UNK N   1      38.203   9.927  14.374  0.00  0.00    -0.005 C 
HETATM   15  C   UNK N   1      36.944   9.082  14.393  0.00  0.00     0.005 C 
ENDBRANCH  13  14
ENDBRANCH  12  13
ENDBRANCH   6  12
BRANCH   6  16
HETATM   16  C   UNK N   1      34.956  13.203  16.369  0.00  0.00     0.024 C 
HETATM   17  C   UNK N   1      35.215  12.367  17.615  0.00  0.00     0.007 C 
ENDBRANCH   6  16
TORSDOF 4
ENDMDL
MODEL 5
REMARK VINA RESULT:      -4.6      7.582      9.148
REMARK  4 active torsions:
REMARK  status: ('A' for Active; 'I' for Inactive)
REMARK    1  A    between atoms: C_6  and  C_7 
REMARK    2  A    between atoms: C_6  and  C_8 
REMARK    3  A    between atoms: C_7  and  C_9 
REMARK    4  A    between atoms: C_9  and  C_12 
ROOT
HETATM    1  O   UNK N   1      32.854  15.458   9.674  0.00  0.00    -0.272 OA
HETATM    2  O   UNK N   1      33.122  17.377   5.377  0.00  0.00    -0.272 OA
HETATM    3  O   UNK N   1      35.319  19.060   8.850  0.00  0.00    -0.247 OA
HETATM    4  N   UNK N   1      34.083  17.259   9.261  0.00  0.00    -0.278 N 
HETATM    5  N   UNK N   1      34.209  18.223   7.116  0.00  0.00    -0.278 N 
HETATM    6  C   UNK N   1      32.800  16.162   7.401  0.00  0.00     0.122 A 
HETATM    7  C   UNK N   1      33.251  16.271   8.852  0.00  0.00     0.243 A 
HETATM    8  C   UNK N   1      33.382  17.301   6.569  0.00  0.00     0.243 A 
HETATM    9  C   UNK N   1      34.560  18.207   8.422  0.00  0.00     0.329 A 
HETATM   10  H   UNK N   1      34.352  17.288  10.208  0.00  0.00     0.173 HD
HETATM   11  H   UNK N   1      34.569  18.936   6.539  0.00  0.00     0.173 HD
ENDROOT
BRANCH   6  12
HETATM   12  C   UNK N   1      31.258  16.218   7.389  0.00  0.00     0.029 C 
BRANCH  12  13
HETATM   13  C   UNK N   1      30.670  17.517   7.936  0.00  0.00     0.001 C 
BRANCH  13  14
HETATM   14  C   UNK N   1      29.187  17.364   8.207  0.00  0.00    -0.005 C 
HETATM   15  C   UNK N   1      28.763  18.327   9.299  0.00  0.00     0.005 C 
ENDBRANCH  13  14
ENDBRANCH  12  13
ENDBRANCH   6  12
BRANCH   6  16
HETATM   16  C   UNK N   1      33.318  14.845   6.785  0.00  0.00     0.024 C 
HETATM   17  C   UNK N   1      32.232  13.852   6.392  0.00  0.00     0.007 C 
ENDBRANCH   6  16
TORSDOF 4
ENDMDL
MODEL 6
REMARK VINA RESULT:      -4.6      3.484      6.594
REMARK  4 active torsions:
REMARK  status: ('A' for Active; 'I' for Inactive)
REMARK    1  A    between atoms: C_6  and  C_7 
REMARK    2  A    between atoms: C_6  and  C_8 
REMARK    3  A    between atoms: C_7  and  C_9 
REMARK    4  A    between atoms: C_9  and  C_12 
ROOT
HETATM    1  O   UNK N   1      34.271  12.546  10.173  0.00  0.00    -0.272 OA
HETATM    2  O   UNK N   1      36.226  16.806  10.673  0.00  0.00    -0.272 OA
HETATM    3  O   UNK N   1      36.591  13.665  13.792  0.00  0.00    -0.247 OA
HETATM    4  N   UNK N   1      35.429  13.107  11.981  0.00  0.00    -0.278 N 
HETATM    5  N   UNK N   1      36.397  15.239  12.235  0.00  0.00    -0.278 N 
HETATM    6  C   UNK N   1      35.151  14.757  10.107  0.00  0.00     0.122 A 
HETATM    7  C   UNK N   1      34.925  13.397  10.757  0.00  0.00     0.243 A 
HETATM    8  C   UNK N   1      35.952  15.669  11.030  0.00  0.00     0.243 A 
HETATM    9  C   UNK N   1      36.152  13.994  12.703  0.00  0.00     0.329 A 
HETATM   10  H   UNK N   1      35.261  12.214  12.360  0.00  0.00     0.173 HD
HETATM   11  H   UNK N   1      36.918  15.860  12.794  0.00  0.00     0.173 HD
ENDROOT
BRANCH   6  12
HETATM   12  C   UNK N   1      33.764  15.367   9.815  0.00  0.00     0.029 C 
BRANCH  12  13
HETATM   13  C   UNK N   1      33.625  15.983   8.425  0.00  0.00     0.001 C 
BRANCH  13  14
HETATM   14  C   UNK N   1      33.228  17.442   8.521  0.00  0.00    -0.005 C 
HETATM   15  C   UNK N   1      34.395  18.320   8.110  0.00  0.00     0.005 C 
ENDBRANCH  13  14
ENDBRANCH  12  13
ENDBRANCH   6  12
BRANCH   6  16
HETATM   16  C   UNK N   1      35.975  14.592   8.812  0.00  0.00     0.024 C 
HETATM   17  C   UNK N   1      37.318  13.898   8.992  0.00  0.00     0.007 C 
ENDBRANCH   6  16
TORSDOF 4
ENDMDL
MODEL 7
REMARK VINA RESULT:      -4.6      2.000      2.893
REMARK  4 active torsions:
REMARK  status: ('A' for Active; 'I' for Inactive)
REMARK    1  A    between atoms: C_6  and  C_7 
REMARK    2  A    between atoms: C_6  and  C_8 
REMARK    3  A    between atoms: C_7  and  C_9 
REMARK    4  A    between atoms: C_9  and  C_12 
ROOT
HETATM    1  O   UNK N   1      35.058  13.776  13.313  0.00  0.00    -0.272 OA
HETATM    2  O   UNK N   1      35.261   9.767  15.784  0.00  0.00    -0.272 OA
HETATM    3  O   UNK N   1      33.670   9.903  11.639  0.00  0.00    -0.247 OA
HETATM    4  N   UNK N   1      34.363  11.841  12.479  0.00  0.00    -0.278 N 
HETATM    5  N   UNK N   1      34.456   9.839  13.718  0.00  0.00    -0.278 N 
HETATM    6  C   UNK N   1      35.320  11.936  14.800  0.00  0.00     0.122 A 
HETATM    7  C   UNK N   1      34.906  12.575  13.480  0.00  0.00     0.243 A 
HETATM    8  C   UNK N   1      35.001  10.444  14.800  0.00  0.00     0.243 A 
HETATM    9  C   UNK N   1      34.148  10.509  12.583  0.00  0.00     0.329 A 
HETATM   10  H   UNK N   1      34.114  12.295  11.642  0.00  0.00     0.173 HD
HETATM   11  H   UNK N   1      34.275   8.872  13.759  0.00  0.00     0.173 HD
ENDROOT
BRANCH   6  12
HETATM   12  C   UNK N   1      34.545  12.654  15.925  0.00  0.00     0.029 C 
BRANCH  12  13
HETATM   13  C   UNK N   1      35.410  13.096  17.103  0.00  0.00     0.001 C 
BRANCH  13  14
HETATM   14  C   UNK N   1      35.287  12.120  18.255  0.00  0.00    -0.005 C 
HETATM   15  C   UNK N   1      35.053  12.878  19.548  0.00  0.00     0.005 C 
ENDBRANCH  13  14
ENDBRANCH  12  13
ENDBRANCH   6  12
BRANCH   6  16
HETATM   16  C   UNK N   1      36.845  12.069  14.996  0.00  0.00     0.024 C 
HETATM   17  C   UNK N   1      37.689  11.402  13.918  0.00  0.00     0.007 C 
ENDBRANCH   6  16
TORSDOF 4
ENDMDL
MODEL 8
REMARK VINA RESULT:      -4.5     22.355     24.592
REMARK  4 active torsions:
REMARK  status: ('A' for Active; 'I' for Inactive)
REMARK    1  A    between atoms: C_6  and  C_7 
REMARK    2  A    between atoms: C_6  and  C_8 
REMARK    3  A    between atoms: C_7  and  C_9 
REMARK    4  A    between atoms: C_9  and  C_12 
ROOT
HETATM    1  O   UNK N   1      27.528  26.484  -6.804  0.00  0.00    -0.272 OA
HETATM    2  O   UNK N   1      26.651  24.158  -2.800  0.00  0.00    -0.272 OA
HETATM    3  O   UNK N   1      26.016  28.538  -3.168  0.00  0.00    -0.247 OA
HETATM    4  N   UNK N   1      26.775  27.509  -4.987  0.00  0.00    -0.278 N 
HETATM    5  N   UNK N   1      26.346  26.348  -2.982  0.00  0.00    -0.278 N 
HETATM    6  C   UNK N   1      27.160  25.027  -4.958  0.00  0.00     0.122 A 
HETATM    7  C   UNK N   1      27.164  26.389  -5.642  0.00  0.00     0.243 A 
HETATM    8  C   UNK N   1      26.711  25.153  -3.506  0.00  0.00     0.243 A 
HETATM    9  C   UNK N   1      26.368  27.497  -3.696  0.00  0.00     0.329 A 
HETATM   10  H   UNK N   1      26.789  28.367  -5.469  0.00  0.00     0.173 HD
HETATM   11  H   UNK N   1      26.054  26.382  -2.042  0.00  0.00     0.173 HD
ENDROOT
BRANCH   6  12
HETATM   12  C   UNK N   1      28.597  24.468  -5.033  0.00  0.00     0.029 C 
BRANCH  12  13
HETATM   13  C   UNK N   1      29.607  25.208  -4.159  0.00  0.00     0.001 C 
BRANCH  13  14
HETATM   14  C   UNK N   1      30.348  24.242  -3.258  0.00  0.00    -0.005 C 
HETATM   15  C   UNK N   1      29.890  22.824  -3.539  0.00  0.00     0.005 C 
ENDBRANCH  13  14
ENDBRANCH  12  13
ENDBRANCH   6  12
BRANCH   6  16
HETATM   16  C   UNK N   1      26.156  24.087  -5.659  0.00  0.00     0.024 C 
HETATM   17  C   UNK N   1      26.787  23.031  -6.557  0.00  0.00     0.007 C 
ENDBRANCH   6  16
TORSDOF 4
ENDMDL
MODEL 9
REMARK VINA RESULT:      -4.5      5.438      8.425
REMARK  4 active torsions:
REMARK  status: ('A' for Active; 'I' for Inactive)
REMARK    1  A    between atoms: C_6  and  C_7 
REMARK    2  A    between atoms: C_6  and  C_8 
REMARK    3  A    between atoms: C_7  and  C_9 
REMARK    4  A    between atoms: C_9  and  C_12 
ROOT
HETATM    1  O   UNK N   1      32.479  13.590   8.485  0.00  0.00    -0.272 OA
HETATM    2  O   UNK N   1      34.671  17.692   9.254  0.00  0.00    -0.272 OA
HETATM    3  O   UNK N   1      34.742  14.389  12.222  0.00  0.00    -0.247 OA
HETATM    4  N   UNK N   1      33.608  13.992  10.352  0.00  0.00    -0.278 N 
HETATM    5  N   UNK N   1      34.695  16.046  10.740  0.00  0.00    -0.278 N 
HETATM    6  C   UNK N   1      33.493  15.743   8.554  0.00  0.00     0.122 A 
HETATM    7  C   UNK N   1      33.163  14.371   9.130  0.00  0.00     0.243 A 
HETATM    8  C   UNK N   1      34.317  16.559   9.545  0.00  0.00     0.243 A 
HETATM    9  C   UNK N   1      34.360  14.797  11.138  0.00  0.00     0.329 A 
HETATM   10  H   UNK N   1      33.374  13.094  10.682  0.00  0.00     0.173 HD
HETATM   11  H   UNK N   1      35.234  16.605  11.345  0.00  0.00     0.173 HD
ENDROOT
BRANCH   6  12
HETATM   12  C   UNK N   1      32.155  16.452   8.252  0.00  0.00     0.029 C 
BRANCH  12  13
HETATM   13  C   UNK N   1      31.851  16.616   6.765  0.00  0.00     0.001 C 
BRANCH  13  14
HETATM   14  C   UNK N   1      30.423  17.076   6.556  0.00  0.00    -0.005 C 
HETATM   15  C   UNK N   1      29.624  15.978   5.880  0.00  0.00     0.005 C 
ENDBRANCH  13  14
ENDBRANCH  12  13
ENDBRANCH   6  12
BRANCH   6  16
HETATM   16  C   UNK N   1      34.347  15.589   7.278  0.00  0.00     0.024 C 
HETATM   17  C   UNK N   1      35.629  14.788   7.460  0.00  0.00     0.007 C 
ENDBRANCH   6  16
TORSDOF 4
ENDMDL
