MODEL 1
REMARK VINA RESULT:      -6.8      0.000      0.000
REMARK  2 active torsions:
REMARK  status: ('A' for Active; 'I' for Inactive)
REMARK    1  A    between atoms: C_6  and  C_7 
REMARK    2  A    between atoms: C_6  and  C_10 
ROOT
HETATM    1  O   UNK N   1      33.728  18.108   6.453  0.00  0.00    -0.271 OA
HETATM    2  O   UNK N   1      32.011  14.973   9.536  0.00  0.00    -0.271 OA
HETATM    3  O   UNK N   1      35.694  17.307  10.354  0.00  0.00    -0.247 OA
HETATM    4  N   UNK N   1      34.698  17.717   8.409  0.00  0.00    -0.278 N 
HETATM    5  N   UNK N   1      33.839  16.154   9.945  0.00  0.00    -0.278 N 
HETATM    6  C   UNK N   1      32.583  16.491   7.784  0.00  0.00     0.145 A 
HETATM    7  C   UNK N   1      33.707  17.497   7.511  0.00  0.00     0.248 A 
HETATM    8  C   UNK N   1      32.792  15.829   9.150  0.00  0.00     0.248 A 
HETATM    9  C   UNK N   1      34.770  17.069   9.594  0.00  0.00     0.329 A 
HETATM   10  H   UNK N   1      35.395  18.378   8.190  0.00  0.00     0.173 HD
HETATM   11  H   UNK N   1      33.925  15.705  10.817  0.00  0.00     0.173 HD
ENDROOT
BRANCH   6  12
HETATM   12  C   UNK N   1      31.187  17.158   7.729  0.00  0.00    -0.057 C 
HETATM   13  C   UNK N   1      30.867  18.256   8.717  0.00  0.00     0.036 C 
HETATM   14  C   UNK N   1      29.653  17.898   9.560  0.00  0.00     0.004 C 
HETATM   15  C   UNK N   1      28.342  18.317   8.895  0.00  0.00     0.001 C 
HETATM   16  C   UNK N   1      28.445  18.512   7.382  0.00  0.00     0.004 C 
HETATM   17  C   UNK N   1      28.835  17.231   6.651  0.00  0.00     0.027 C 
HETATM   18  C   UNK N   1      30.260  16.747   6.829  0.00  0.00    -0.022 C 
ENDBRANCH   6  12
BRANCH   6  19
HETATM   19  C   UNK N   1      32.712  15.431   6.667  0.00  0.00     0.029 C 
HETATM   20  C   UNK N   1      33.990  14.605   6.667  0.00  0.00     0.007 C 
ENDBRANCH   6  19
TORSDOF 2
ENDMDL
MODEL 2
REMARK VINA RESULT:      -6.3      8.071     10.328
REMARK  2 active torsions:
REMARK  status: ('A' for Active; 'I' for Inactive)
REMARK    1  A    between atoms: C_6  and  C_7 
REMARK    2  A    between atoms: C_6  and  C_10 
ROOT
HETATM    1  O   UNK N   1      34.645  10.299  14.112  0.00  0.00    -0.271 OA
HETATM    2  O   UNK N   1      37.504  13.852  15.330  0.00  0.00    -0.271 OA
HETATM    3  O   UNK N   1      34.513  14.244  12.077  0.00  0.00    -0.247 OA
HETATM    4  N   UNK N   1      34.570  12.276  13.109  0.00  0.00    -0.278 N 
HETATM    5  N   UNK N   1      35.997  14.047  13.719  0.00  0.00    -0.278 N 
HETATM    6  C   UNK N   1      36.201  11.879  14.994  0.00  0.00     0.145 A 
HETATM    7  C   UNK N   1      35.082  11.438  14.044  0.00  0.00     0.248 A 
HETATM    8  C   UNK N   1      36.603  13.327  14.693  0.00  0.00     0.248 A 
HETATM    9  C   UNK N   1      35.009  13.545  12.945  0.00  0.00     0.329 A 
HETATM   10  H   UNK N   1      33.849  11.948  12.525  0.00  0.00     0.173 HD
HETATM   11  H   UNK N   1      36.287  14.976  13.569  0.00  0.00     0.173 HD
ENDROOT
BRANCH   6  12
HETATM   12  C   UNK N   1      35.783  11.746  16.478  0.00  0.00    -0.057 C 
HETATM   13  C   UNK N   1      34.799  12.742  17.048  0.00  0.00     0.036 C 
HETATM   14  C   UNK N   1      35.396  13.485  18.233  0.00  0.00     0.004 C 
HETATM   15  C   UNK N   1      35.181  12.741  19.552  0.00  0.00     0.001 C 
HETATM   16  C   UNK N   1      34.907  11.246  19.387  0.00  0.00     0.004 C 
HETATM   17  C   UNK N   1      36.069  10.506  18.732  0.00  0.00     0.027 C 
HETATM   18  C   UNK N   1      36.308  10.770  17.258  0.00  0.00    -0.022 C 
ENDBRANCH   6  12
BRANCH   6  19
HETATM   19  C   UNK N   1      37.385  10.936  14.686  0.00  0.00     0.029 C 
HETATM   20  C   UNK N   1      37.912  10.960  13.258  0.00  0.00     0.007 C 
ENDBRANCH   6  19
TORSDOF 2
ENDMDL
MODEL 3
REMARK VINA RESULT:      -5.9     14.022     15.637
REMARK  2 active torsions:
REMARK  status: ('A' for Active; 'I' for Inactive)
REMARK    1  A    between atoms: C_6  and  C_7 
REMARK    2  A    between atoms: C_6  and  C_10 
ROOT
HETATM    1  O   UNK N   1      30.658  25.159  -5.318  0.00  0.00    -0.271 OA
HETATM    2  O   UNK N   1      26.489  23.979  -3.444  0.00  0.00    -0.271 OA
HETATM    3  O   UNK N   1      30.331  22.960  -1.473  0.00  0.00    -0.247 OA
HETATM    4  N   UNK N   1      30.490  24.075  -3.390  0.00  0.00    -0.278 N 
HETATM    5  N   UNK N   1      28.410  23.489  -2.457  0.00  0.00    -0.278 N 
HETATM    6  C   UNK N   1      28.406  24.751  -4.642  0.00  0.00     0.145 A 
HETATM    7  C   UNK N   1      29.927  24.679  -4.465  0.00  0.00     0.248 A 
HETATM    8  C   UNK N   1      27.709  24.052  -3.470  0.00  0.00     0.248 A 
HETATM    9  C   UNK N   1      29.761  23.495  -2.410  0.00  0.00     0.329 A 
HETATM   10  H   UNK N   1      31.473  24.059  -3.319  0.00  0.00     0.173 HD
HETATM   11  H   UNK N   1      27.915  23.058  -1.723  0.00  0.00     0.173 HD
ENDROOT
BRANCH   6  12
HETATM   12  C   UNK N   1      27.908  26.211  -4.756  0.00  0.00    -0.057 C 
HETATM   13  C   UNK N   1      27.750  27.026  -3.494  0.00  0.00     0.036 C 
HETATM   14  C   UNK N   1      26.320  27.517  -3.333  0.00  0.00     0.004 C 
HETATM   15  C   UNK N   1      26.079  28.848  -4.046  0.00  0.00     0.001 C 
HETATM   16  C   UNK N   1      27.086  29.151  -5.156  0.00  0.00     0.004 C 
HETATM   17  C   UNK N   1      27.049  28.119  -6.280  0.00  0.00     0.027 C 
HETATM   18  C   UNK N   1      27.595  26.741  -5.965  0.00  0.00    -0.022 C 
ENDBRANCH   6  12
BRANCH   6  19
HETATM   19  C   UNK N   1      28.116  23.983  -5.952  0.00  0.00     0.029 C 
HETATM   20  C   UNK N   1      28.660  22.564  -6.035  0.00  0.00     0.007 C 
ENDBRANCH   6  19
TORSDOF 2
ENDMDL
MODEL 4
REMARK VINA RESULT:      -5.7     13.991     15.943
REMARK  2 active torsions:
REMARK  status: ('A' for Active; 'I' for Inactive)
REMARK    1  A    between atoms: C_6  and  C_7 
REMARK    2  A    between atoms: C_6  and  C_10 
ROOT
HETATM    1  O   UNK N   1      25.829  24.088  -3.883  0.00  0.00    -0.271 OA
HETATM    2  O   UNK N   1      29.615  26.362  -5.550  0.00  0.00    -0.271 OA
HETATM    3  O   UNK N   1      26.772  28.273  -2.731  0.00  0.00    -0.247 OA
HETATM    4  N   UNK N   1      26.312  26.172  -3.297  0.00  0.00    -0.278 N 
HETATM    5  N   UNK N   1      28.202  27.304  -4.129  0.00  0.00    -0.278 N 
HETATM    6  C   UNK N   1      27.830  24.924  -4.880  0.00  0.00     0.145 A 
HETATM    7  C   UNK N   1      26.595  25.036  -3.980  0.00  0.00     0.248 A 
HETATM    8  C   UNK N   1      28.609  26.244  -4.867  0.00  0.00     0.248 A 
HETATM    9  C   UNK N   1      27.088  27.279  -3.364  0.00  0.00     0.329 A 
HETATM   10  H   UNK N   1      25.509  26.193  -2.727  0.00  0.00     0.173 HD
HETATM   11  H   UNK N   1      28.740  28.128  -4.149  0.00  0.00     0.173 HD
ENDROOT
BRANCH   6  12
HETATM   12  C   UNK N   1      28.756  23.762  -4.446  0.00  0.00    -0.057 C 
HETATM   13  C   UNK N   1      29.232  23.709  -3.013  0.00  0.00     0.036 C 
HETATM   14  C   UNK N   1      30.751  23.733  -2.938  0.00  0.00     0.004 C 
HETATM   15  C   UNK N   1      31.358  22.333  -3.037  0.00  0.00     0.001 C 
HETATM   16  C   UNK N   1      30.438  21.299  -3.687  0.00  0.00     0.004 C 
HETATM   17  C   UNK N   1      30.087  21.650  -5.129  0.00  0.00     0.027 C 
HETATM   18  C   UNK N   1      29.153  22.825  -5.341  0.00  0.00    -0.022 C 
ENDBRANCH   6  12
BRANCH   6  19
HETATM   19  C   UNK N   1      27.273  24.662  -6.297  0.00  0.00     0.029 C 
HETATM   20  C   UNK N   1      26.415  25.766  -6.898  0.00  0.00     0.007 C 
ENDBRANCH   6  19
TORSDOF 2
ENDMDL
MODEL 5
REMARK VINA RESULT:      -5.7      1.330      4.528
REMARK  2 active torsions:
REMARK  status: ('A' for Active; 'I' for Inactive)
REMARK    1  A    between atoms: C_6  and  C_7 
REMARK    2  A    between atoms: C_6  and  C_10 
ROOT
HETATM    1  O   UNK N   1      32.095  14.913   9.327  0.00  0.00    -0.271 OA
HETATM    2  O   UNK N   1      34.065  18.005   6.353  0.00  0.00    -0.271 OA
HETATM    3  O   UNK N   1      35.619  17.368  10.459  0.00  0.00    -0.247 OA
HETATM    4  N   UNK N   1      33.865  16.128   9.883  0.00  0.00    -0.278 N 
HETATM    5  N   UNK N   1      34.846  17.669   8.398  0.00  0.00    -0.278 N 
HETATM    6  C   UNK N   1      32.858  16.349   7.580  0.00  0.00     0.145 A 
HETATM    7  C   UNK N   1      32.922  15.746   8.988  0.00  0.00     0.248 A 
HETATM    8  C   UNK N   1      33.968  17.390   7.405  0.00  0.00     0.248 A 
HETATM    9  C   UNK N   1      34.804  17.062   9.605  0.00  0.00     0.329 A 
HETATM   10  H   UNK N   1      33.868  15.709  10.774  0.00  0.00     0.173 HD
HETATM   11  H   UNK N   1      35.546  18.342   8.234  0.00  0.00     0.173 HD
ENDROOT
BRANCH   6  12
HETATM   12  C   UNK N   1      32.977  15.263   6.483  0.00  0.00    -0.057 C 
HETATM   13  C   UNK N   1      34.268  14.488   6.365  0.00  0.00     0.036 C 
HETATM   14  C   UNK N   1      34.881  14.652   4.983  0.00  0.00     0.004 C 
HETATM   15  C   UNK N   1      34.345  13.625   3.985  0.00  0.00     0.001 C 
HETATM   16  C   UNK N   1      32.999  13.017   4.379  0.00  0.00     0.004 C 
HETATM   17  C   UNK N   1      31.888  14.058   4.468  0.00  0.00     0.027 C 
HETATM   18  C   UNK N   1      31.950  15.031   5.628  0.00  0.00    -0.022 C 
ENDBRANCH   6  12
BRANCH   6  19
HETATM   19  C   UNK N   1      31.479  17.040   7.500  0.00  0.00     0.029 C 
HETATM   20  C   UNK N   1      31.201  18.112   8.545  0.00  0.00     0.007 C 
ENDBRANCH   6  19
TORSDOF 2
ENDMDL
MODEL 6
REMARK VINA RESULT:      -5.7      2.860      4.390
REMARK  2 active torsions:
REMARK  status: ('A' for Active; 'I' for Inactive)
REMARK    1  A    between atoms: C_6  and  C_7 
REMARK    2  A    between atoms: C_6  and  C_10 
ROOT
HETATM    1  O   UNK N   1      36.361  16.514  10.623  0.00  0.00    -0.271 OA
HETATM    2  O   UNK N   1      34.301  12.392   9.598  0.00  0.00    -0.271 OA
HETATM    3  O   UNK N   1      35.131  13.636  13.774  0.00  0.00    -0.247 OA
HETATM    4  N   UNK N   1      35.730  15.081  12.195  0.00  0.00    -0.278 N 
HETATM    5  N   UNK N   1      34.702  13.027  11.681  0.00  0.00    -0.278 N 
HETATM    6  C   UNK N   1      35.320  14.545   9.763  0.00  0.00     0.145 A 
HETATM    7  C   UNK N   1      35.831  15.446  10.893  0.00  0.00     0.248 A 
HETATM    8  C   UNK N   1      34.736  13.254  10.346  0.00  0.00     0.248 A 
HETATM    9  C   UNK N   1      35.183  13.908  12.586  0.00  0.00     0.329 A 
HETATM   10  H   UNK N   1      36.069  15.697  12.885  0.00  0.00     0.173 HD
HETATM   11  H   UNK N   1      34.310  12.184  12.006  0.00  0.00     0.173 HD
ENDROOT
BRANCH   6  12
HETATM   12  C   UNK N   1      34.258  15.258   8.893  0.00  0.00    -0.057 C 
HETATM   13  C   UNK N   1      34.677  15.834   7.561  0.00  0.00     0.036 C 
HETATM   14  C   UNK N   1      34.404  17.329   7.500  0.00  0.00     0.004 C 
HETATM   15  C   UNK N   1      32.985  17.640   7.020  0.00  0.00     0.001 C 
HETATM   16  C   UNK N   1      32.001  16.484   7.196  0.00  0.00     0.004 C 
HETATM   17  C   UNK N   1      31.817  16.086   8.657  0.00  0.00     0.027 C 
HETATM   18  C   UNK N   1      32.981  15.386   9.330  0.00  0.00    -0.022 C 
ENDBRANCH   6  12
BRANCH   6  19
HETATM   19  C   UNK N   1      36.570  14.214   8.916  0.00  0.00     0.029 C 
HETATM   20  C   UNK N   1      37.682  13.454   9.625  0.00  0.00     0.007 C 
ENDBRANCH   6  19
TORSDOF 2
ENDMDL
MODEL 7
REMARK VINA RESULT:      -5.6     13.059     14.739
REMARK  2 active torsions:
REMARK  status: ('A' for Active; 'I' for Inactive)
REMARK    1  A    between atoms: C_6  and  C_7 
REMARK    2  A    between atoms: C_6  and  C_10 
ROOT
HETATM    1  O   UNK N   1      29.675  24.325  -6.064  0.00  0.00    -0.271 OA
HETATM    2  O   UNK N   1      30.611  23.113  -1.599  0.00  0.00    -0.271 OA
HETATM    3  O   UNK N   1      26.478  23.889  -3.012  0.00  0.00    -0.247 OA
HETATM    4  N   UNK N   1      28.079  24.090  -4.541  0.00  0.00    -0.278 N 
HETATM    5  N   UNK N   1      28.549  23.485  -2.315  0.00  0.00    -0.278 N 
HETATM    6  C   UNK N   1      30.488  23.672  -3.917  0.00  0.00     0.145 A 
HETATM    7  C   UNK N   1      29.383  24.044  -4.911  0.00  0.00     0.248 A 
HETATM    8  C   UNK N   1      29.882  23.400  -2.537  0.00  0.00     0.248 A 
HETATM    9  C   UNK N   1      27.666  23.820  -3.282  0.00  0.00     0.329 A 
HETATM   10  H   UNK N   1      27.405  24.330  -5.218  0.00  0.00     0.173 HD
HETATM   11  H   UNK N   1      28.208  23.294  -1.411  0.00  0.00     0.173 HD
ENDROOT
BRANCH   6  12
HETATM   12  C   UNK N   1      31.297  22.440  -4.390  0.00  0.00    -0.057 C 
HETATM   13  C   UNK N   1      32.782  22.590  -4.621  0.00  0.00     0.036 C 
HETATM   14  C   UNK N   1      33.153  22.237  -6.053  0.00  0.00     0.004 C 
HETATM   15  C   UNK N   1      33.426  20.743  -6.230  0.00  0.00     0.001 C 
HETATM   16  C   UNK N   1      32.799  19.863  -5.149  0.00  0.00     0.004 C 
HETATM   17  C   UNK N   1      31.277  19.958  -5.124  0.00  0.00     0.027 C 
HETATM   18  C   UNK N   1      30.679  21.254  -4.616  0.00  0.00    -0.022 C 
ENDBRANCH   6  12
BRANCH   6  19
HETATM   19  C   UNK N   1      31.402  24.916  -3.848  0.00  0.00     0.029 C 
HETATM   20  C   UNK N   1      30.728  26.227  -3.472  0.00  0.00     0.007 C 
ENDBRANCH   6  19
TORSDOF 2
ENDMDL
MODEL 8
REMARK VINA RESULT:      -5.6      8.071     10.123
REMARK  2 active torsions:
REMARK  status: ('A' for Active; 'I' for Inactive)
REMARK    1  A    between atoms: C_6  and  C_7 
REMARK    2  A    between atoms: C_6  and  C_10 
ROOT
HETATM    1  O   UNK N   1      33.033  10.767  14.611  0.00  0.00    -0.271 OA
HETATM    2  O   UNK N   1      37.742  11.097  14.553  0.00  0.00    -0.271 OA
HETATM    3  O   UNK N   1      35.318  11.349  10.847  0.00  0.00    -0.247 OA
HETATM    4  N   UNK N   1      34.177  11.074  12.735  0.00  0.00    -0.278 N 
HETATM    5  N   UNK N   1      36.525  11.240  12.709  0.00  0.00    -0.278 N 
HETATM    6  C   UNK N   1      35.392  10.925  14.941  0.00  0.00     0.145 A 
HETATM    7  C   UNK N   1      34.124  10.924  14.081  0.00  0.00     0.248 A 
HETATM    8  C   UNK N   1      36.628  11.099  14.052  0.00  0.00     0.248 A 
HETATM    9  C   UNK N   1      35.339  11.228  12.060  0.00  0.00     0.329 A 
HETATM   10  H   UNK N   1      33.334  11.072  12.226  0.00  0.00     0.173 HD
HETATM   11  H   UNK N   1      37.349  11.356  12.183  0.00  0.00     0.173 HD
ENDROOT
BRANCH   6  12
HETATM   12  C   UNK N   1      35.357  12.035  16.019  0.00  0.00    -0.057 C 
HETATM   13  C   UNK N   1      35.387  13.479  15.575  0.00  0.00     0.036 C 
HETATM   14  C   UNK N   1      36.580  14.211  16.170  0.00  0.00     0.004 C 
HETATM   15  C   UNK N   1      36.274  14.795  17.549  0.00  0.00     0.001 C 
HETATM   16  C   UNK N   1      35.096  14.128  18.260  0.00  0.00     0.004 C 
HETATM   17  C   UNK N   1      35.337  12.647  18.533  0.00  0.00     0.027 C 
HETATM   18  C   UNK N   1      35.325  11.718  17.336  0.00  0.00    -0.022 C 
ENDBRANCH   6  12
BRANCH   6  19
HETATM   19  C   UNK N   1      35.425   9.532  15.610  0.00  0.00     0.029 C 
HETATM   20  C   UNK N   1      35.711   8.351  14.694  0.00  0.00     0.007 C 
ENDBRANCH   6  19
TORSDOF 2
ENDMDL
MODEL 9
REMARK VINA RESULT:      -5.6     16.577     18.146
REMARK  2 active torsions:
REMARK  status: ('A' for Active; 'I' for Inactive)
REMARK    1  A    between atoms: C_6  and  C_7 
REMARK    2  A    between atoms: C_6  and  C_10 
ROOT
HETATM    1  O   UNK N   1      25.197  22.772  -6.051  0.00  0.00    -0.271 OA
HETATM    2  O   UNK N   1      28.540  25.358  -8.154  0.00  0.00    -0.271 OA
HETATM    3  O   UNK N   1      25.614  22.958 -10.469  0.00  0.00    -0.247 OA
HETATM    4  N   UNK N   1      25.398  22.881  -8.257  0.00  0.00    -0.278 N 
HETATM    5  N   UNK N   1      27.065  24.172  -9.303  0.00  0.00    -0.278 N 
HETATM    6  C   UNK N   1      26.967  24.196  -6.783  0.00  0.00     0.145 A 
HETATM    7  C   UNK N   1      25.791  23.240  -7.011  0.00  0.00     0.248 A 
HETATM    8  C   UNK N   1      27.569  24.616  -8.128  0.00  0.00     0.248 A 
HETATM    9  C   UNK N   1      26.011  23.328  -9.376  0.00  0.00     0.329 A 
HETATM   10  H   UNK N   1      24.633  22.267  -8.352  0.00  0.00     0.173 HD
HETATM   11  H   UNK N   1      27.483  24.477 -10.141  0.00  0.00     0.173 HD
ENDROOT
BRANCH   6  12
HETATM   12  C   UNK N   1      26.544  25.450  -5.980  0.00  0.00    -0.057 C 
HETATM   13  C   UNK N   1      27.418  25.910  -4.837  0.00  0.00     0.036 C 
HETATM   14  C   UNK N   1      26.642  25.936  -3.529  0.00  0.00     0.004 C 
HETATM   15  C   UNK N   1      25.915  27.264  -3.313  0.00  0.00     0.001 C 
HETATM   16  C   UNK N   1      25.672  28.058  -4.597  0.00  0.00     0.004 C 
HETATM   17  C   UNK N   1      24.788  27.311  -5.591  0.00  0.00     0.027 C 
HETATM   18  C   UNK N   1      25.397  26.107  -6.281  0.00  0.00    -0.022 C 
ENDBRANCH   6  12
BRANCH   6  19
HETATM   19  C   UNK N   1      28.004  23.375  -5.983  0.00  0.00     0.029 C 
HETATM   20  C   UNK N   1      28.620  22.184  -6.703  0.00  0.00     0.007 C 
ENDBRANCH   6  19
TORSDOF 2
ENDMDL
