REMARK  8 active torsions:
REMARK  status: ('A' for Active; 'I' for Inactive)
REMARK    1  A    between atoms: O_1  and  C_10 
REMARK    2  A    between atoms: O_1  and  C_15 
REMARK    3  A    between atoms: C_13  and  O_2 
REMARK    4  A    between atoms: N_3  and  C_12 
REMARK    5  A    between atoms: N_3  and  C_14 
REMARK    6  A    between atoms: C_4  and  C_9 
REMARK    7  A    between atoms: C_13  and  C_14 
REMARK    8  A    between atoms: C_13  and  C_15 
ROOT
HETATM    1  O   UNK N   1       5.460  -0.822   0.181  0.00  0.00    -0.348 OA
ENDROOT
BRANCH   1   2
HETATM    2  C   UNK N   1       6.749  -1.226  -0.008  0.00  0.00     0.075 A 
HETATM    3  C   UNK N   1       7.879  -0.350   0.056  0.00  0.00    -0.021 A 
HETATM    4  C   UNK N   1       9.168  -0.893  -0.091  0.00  0.00     0.010 A 
HETATM    5  C   UNK N   1       9.352  -2.257  -0.312  0.00  0.00     0.001 A 
HETATM    6  C   UNK N   1       8.250  -3.102  -0.404  0.00  0.00     0.003 A 
HETATM    7  C   UNK N   1       6.961  -2.589  -0.253  0.00  0.00     0.037 A 
BRANCH   3   8
HETATM    8  C   UNK N   1       7.730   1.141   0.261  0.00  0.00     0.021 C 
HETATM    9  C   UNK N   1       9.007   1.925   0.471  0.00  0.00     0.009 C 
HETATM   10  C   UNK N   1       8.606   3.360   0.180  0.00  0.00     0.001 C 
HETATM   11  C   UNK N   1       7.371   3.289  -0.708  0.00  0.00     0.001 C 
HETATM   12  C   UNK N   1       7.107   1.815  -0.940  0.00  0.00     0.009 C 
ENDBRANCH   3   8
ENDBRANCH   1   2
BRANCH   1  13
HETATM   13  C   UNK N   1       5.090   0.314   0.868  0.00  0.00     0.209 C 
BRANCH  13  14
HETATM   14  C   UNK N   1       4.166   1.196   0.045  0.00  0.00     0.159 C 
BRANCH  14  15
HETATM   15  O   UNK N   1       4.323   2.513   0.472  0.00  0.00    -0.392 OA
HETATM   16  H   UNK N   1       5.172   2.877   0.769  0.00  0.00     0.210 HD
ENDBRANCH  14  15
BRANCH  14  17
HETATM   17  C   UNK N   1       2.723   0.793   0.275  0.00  0.00     0.148 C 
BRANCH  17  18
HETATM   18  N   UNK N   1       2.376  -0.388  -0.510  0.00  0.00    -0.411 N 
HETATM   19  H   UNK N   1       2.853  -0.674  -1.366  0.00  0.00     0.154 HD
BRANCH  18  20
HETATM   20  C   UNK N   1       1.251  -1.111   0.095  0.00  0.00     0.014 C 
HETATM   21  C   UNK N   1       1.681  -1.770   1.395  0.00  0.00     0.037 C 
HETATM   22  C   UNK N   1       0.057  -0.198   0.350  0.00  0.00     0.037 C 
HETATM   23  C   UNK N   1       0.808  -2.196  -0.862  0.00  0.00     0.037 C 
ENDBRANCH  18  20
ENDBRANCH  17  18
ENDBRANCH  14  17
ENDBRANCH  13  14
ENDBRANCH   1  13
TORSDOF 8
