MODEL 1
REMARK VINA RESULT:      -6.5      0.000      0.000
REMARK  8 active torsions:
REMARK  status: ('A' for Active; 'I' for Inactive)
REMARK    1  A    between atoms: O_1  and  C_10 
REMARK    2  A    between atoms: O_1  and  C_15 
REMARK    3  A    between atoms: C_13  and  O_2 
REMARK    4  A    between atoms: N_3  and  C_12 
REMARK    5  A    between atoms: N_3  and  C_14 
REMARK    6  A    between atoms: C_4  and  C_9 
REMARK    7  A    between atoms: C_13  and  C_14 
REMARK    8  A    between atoms: C_13  and  C_15 
ROOT
HETATM    1  O   UNK N   1      30.093  16.849   7.669  0.00  0.00    -0.348 OA
ENDROOT
BRANCH   1   2
HETATM    2  C   UNK N   1      31.025  17.117   6.709  0.00  0.00     0.075 A 
HETATM    3  C   UNK N   1      32.435  17.146   6.951  0.00  0.00    -0.021 A 
HETATM    4  C   UNK N   1      33.305  17.369   5.869  0.00  0.00     0.010 A 
HETATM    5  C   UNK N   1      32.812  17.576   4.582  0.00  0.00     0.001 A 
HETATM    6  C   UNK N   1      31.439  17.578   4.355  0.00  0.00     0.003 A 
HETATM    7  C   UNK N   1      30.555  17.350   5.410  0.00  0.00     0.037 A 
BRANCH   3   8
HETATM    8  C   UNK N   1      33.018  16.959   8.334  0.00  0.00     0.021 C 
HETATM    9  C   UNK N   1      33.244  15.533   8.786  0.00  0.00     0.009 C 
HETATM   10  C   UNK N   1      34.223  15.665   9.938  0.00  0.00     0.001 C 
HETATM   11  C   UNK N   1      34.945  16.992   9.738  0.00  0.00     0.001 C 
HETATM   12  C   UNK N   1      34.392  17.579   8.455  0.00  0.00     0.009 C 
ENDBRANCH   3   8
ENDBRANCH   1   2
BRANCH   1  13
HETATM   13  C   UNK N   1      28.763  17.200   7.585  0.00  0.00     0.209 C 
BRANCH  13  14
HETATM   14  C   UNK N   1      28.455  18.447   8.398  0.00  0.00     0.159 C 
BRANCH  14  15
HETATM   15  O   UNK N   1      27.492  18.122   9.350  0.00  0.00    -0.392 OA
HETATM   16  H   UNK N   1      27.479  17.275   9.824  0.00  0.00     0.210 HD
ENDBRANCH  14  15
BRANCH  14  17
HETATM   17  C   UNK N   1      27.886  19.525   7.498  0.00  0.00     0.148 C 
BRANCH  17  18
HETATM   18  N   UNK N   1      27.159  18.942   6.374  0.00  0.00    -0.411 N 
HETATM   19  H   UNK N   1      26.888  17.960   6.308  0.00  0.00     0.154 HD
BRANCH  18  20
HETATM   20  C   UNK N   1      26.867  19.955   5.352  0.00  0.00     0.014 C 
HETATM   21  C   UNK N   1      26.999  21.351   5.937  0.00  0.00     0.037 C 
HETATM   22  C   UNK N   1      27.776  19.816   4.136  0.00  0.00     0.037 C 
HETATM   23  C   UNK N   1      25.439  19.769   4.887  0.00  0.00     0.037 C 
ENDBRANCH  18  20
ENDBRANCH  17  18
ENDBRANCH  14  17
ENDBRANCH  13  14
ENDBRANCH   1  13
TORSDOF 8
ENDMDL
MODEL 2
REMARK VINA RESULT:      -6.3      1.125      3.584
REMARK  8 active torsions:
REMARK  status: ('A' for Active; 'I' for Inactive)
REMARK    1  A    between atoms: O_1  and  C_10 
REMARK    2  A    between atoms: O_1  and  C_15 
REMARK    3  A    between atoms: C_13  and  O_2 
REMARK    4  A    between atoms: N_3  and  C_12 
REMARK    5  A    between atoms: N_3  and  C_14 
REMARK    6  A    between atoms: C_4  and  C_9 
REMARK    7  A    between atoms: C_13  and  C_14 
REMARK    8  A    between atoms: C_13  and  C_15 
ROOT
HETATM    1  O   UNK N   1      30.235  17.429   7.560  0.00  0.00    -0.348 OA
ENDROOT
BRANCH   1   2
HETATM    2  C   UNK N   1      31.598  17.405   7.514  0.00  0.00     0.075 A 
HETATM    3  C   UNK N   1      32.356  17.329   6.302  0.00  0.00    -0.021 A 
HETATM    4  C   UNK N   1      33.760  17.376   6.376  0.00  0.00     0.010 A 
HETATM    5  C   UNK N   1      34.412  17.479   7.603  0.00  0.00     0.001 A 
HETATM    6  C   UNK N   1      33.673  17.523   8.782  0.00  0.00     0.003 A 
HETATM    7  C   UNK N   1      32.279  17.486   8.736  0.00  0.00     0.037 A 
BRANCH   3   8
HETATM    8  C   UNK N   1      31.696  17.183   4.949  0.00  0.00     0.021 C 
HETATM    9  C   UNK N   1      32.533  17.559   3.746  0.00  0.00     0.009 C 
HETATM   10  C   UNK N   1      31.821  16.891   2.583  0.00  0.00     0.001 C 
HETATM   11  C   UNK N   1      31.016  15.742   3.176  0.00  0.00     0.001 C 
HETATM   12  C   UNK N   1      31.308  15.750   4.663  0.00  0.00     0.009 C 
ENDBRANCH   3   8
ENDBRANCH   1   2
BRANCH   1  13
HETATM   13  C   UNK N   1      29.489  17.288   8.711  0.00  0.00     0.209 C 
BRANCH  13  14
HETATM   14  C   UNK N   1      28.593  18.491   8.954  0.00  0.00     0.159 C 
BRANCH  14  15
HETATM   15  O   UNK N   1      27.370  18.033   9.439  0.00  0.00    -0.392 OA
HETATM   16  H   UNK N   1      27.114  18.093  10.373  0.00  0.00     0.210 HD
ENDBRANCH  14  15
BRANCH  14  17
HETATM   17  C   UNK N   1      28.341  19.222   7.650  0.00  0.00     0.148 C 
BRANCH  17  18
HETATM   18  N   UNK N   1      27.337  18.532   6.846  0.00  0.00    -0.411 N 
HETATM   19  H   UNK N   1      26.771  17.749   7.175  0.00  0.00     0.154 HD
BRANCH  18  20
HETATM   20  C   UNK N   1      27.250  19.112   5.501  0.00  0.00     0.014 C 
HETATM   21  C   UNK N   1      28.369  18.582   4.620  0.00  0.00     0.037 C 
HETATM   22  C   UNK N   1      25.902  18.833   4.846  0.00  0.00     0.037 C 
HETATM   23  C   UNK N   1      27.408  20.612   5.614  0.00  0.00     0.037 C 
ENDBRANCH  18  20
ENDBRANCH  17  18
ENDBRANCH  14  17
ENDBRANCH  13  14
ENDBRANCH   1  13
TORSDOF 8
ENDMDL
MODEL 3
REMARK VINA RESULT:      -6.3      3.086      6.442
REMARK  8 active torsions:
REMARK  status: ('A' for Active; 'I' for Inactive)
REMARK    1  A    between atoms: O_1  and  C_10 
REMARK    2  A    between atoms: O_1  and  C_15 
REMARK    3  A    between atoms: C_13  and  O_2 
REMARK    4  A    between atoms: N_3  and  C_12 
REMARK    5  A    between atoms: N_3  and  C_14 
REMARK    6  A    between atoms: C_4  and  C_9 
REMARK    7  A    between atoms: C_13  and  C_14 
REMARK    8  A    between atoms: C_13  and  C_15 
ROOT
HETATM    1  O   UNK N   1      32.977  16.933   7.055  0.00  0.00    -0.348 OA
ENDROOT
BRANCH   1   2
HETATM    2  C   UNK N   1      31.979  16.983   6.126  0.00  0.00     0.075 A 
HETATM    3  C   UNK N   1      30.597  17.171   6.447  0.00  0.00    -0.021 A 
HETATM    4  C   UNK N   1      29.665  17.271   5.399  0.00  0.00     0.010 A 
HETATM    5  C   UNK N   1      30.067  17.174   4.067  0.00  0.00     0.001 A 
HETATM    6  C   UNK N   1      31.407  16.961   3.759  0.00  0.00     0.003 A 
HETATM    7  C   UNK N   1      32.353  16.866   4.781  0.00  0.00     0.037 A 
BRANCH   3   8
HETATM    8  C   UNK N   1      30.106  17.250   7.875  0.00  0.00     0.021 C 
HETATM    9  C   UNK N   1      30.578  18.436   8.687  0.00  0.00     0.009 C 
HETATM   10  C   UNK N   1      29.598  18.498   9.845  0.00  0.00     0.001 C 
HETATM   11  C   UNK N   1      28.336  17.788   9.378  0.00  0.00     0.001 C 
HETATM   12  C   UNK N   1      28.600  17.361   7.948  0.00  0.00     0.009 C 
ENDBRANCH   3   8
ENDBRANCH   1   2
BRANCH   1  13
HETATM   13  C   UNK N   1      34.054  17.791   7.091  0.00  0.00     0.209 C 
BRANCH  13  14
HETATM   14  C   UNK N   1      34.334  18.288   8.499  0.00  0.00     0.159 C 
BRANCH  14  15
HETATM   15  O   UNK N   1      35.338  19.253   8.432  0.00  0.00    -0.392 OA
HETATM   16  H   UNK N   1      35.498  19.797   7.645  0.00  0.00     0.210 HD
ENDBRANCH  14  15
BRANCH  14  17
HETATM   17  C   UNK N   1      34.832  17.147   9.363  0.00  0.00     0.148 C 
BRANCH  17  18
HETATM   18  N   UNK N   1      33.729  16.289   9.787  0.00  0.00    -0.411 N 
HETATM   19  H   UNK N   1      32.814  16.628  10.085  0.00  0.00     0.154 HD
BRANCH  18  20
HETATM   20  C   UNK N   1      34.110  14.873   9.726  0.00  0.00     0.014 C 
HETATM   21  C   UNK N   1      34.423  14.347  11.117  0.00  0.00     0.037 C 
HETATM   22  C   UNK N   1      33.025  14.017   9.083  0.00  0.00     0.037 C 
HETATM   23  C   UNK N   1      35.359  14.748   8.880  0.00  0.00     0.037 C 
ENDBRANCH  18  20
ENDBRANCH  17  18
ENDBRANCH  14  17
ENDBRANCH  13  14
ENDBRANCH   1  13
TORSDOF 8
ENDMDL
MODEL 4
REMARK VINA RESULT:      -6.2      1.935      3.834
REMARK  8 active torsions:
REMARK  status: ('A' for Active; 'I' for Inactive)
REMARK    1  A    between atoms: O_1  and  C_10 
REMARK    2  A    between atoms: O_1  and  C_15 
REMARK    3  A    between atoms: C_13  and  O_2 
REMARK    4  A    between atoms: N_3  and  C_12 
REMARK    5  A    between atoms: N_3  and  C_14 
REMARK    6  A    between atoms: C_4  and  C_9 
REMARK    7  A    between atoms: C_13  and  C_14 
REMARK    8  A    between atoms: C_13  and  C_15 
ROOT
HETATM    1  O   UNK N   1      28.397  16.399   6.241  0.00  0.00    -0.348 OA
ENDROOT
BRANCH   1   2
HETATM    2  C   UNK N   1      28.951  17.062   7.296  0.00  0.00     0.075 A 
HETATM    3  C   UNK N   1      30.337  17.409   7.383  0.00  0.00    -0.021 A 
HETATM    4  C   UNK N   1      30.783  18.152   8.491  0.00  0.00     0.010 A 
HETATM    5  C   UNK N   1      29.901  18.535   9.500  0.00  0.00     0.001 A 
HETATM    6  C   UNK N   1      28.560  18.170   9.429  0.00  0.00     0.003 A 
HETATM    7  C   UNK N   1      28.092  17.440   8.335  0.00  0.00     0.037 A 
BRANCH   3   8
HETATM    8  C   UNK N   1      31.339  16.989   6.330  0.00  0.00     0.021 C 
HETATM    9  C   UNK N   1      31.148  17.570   4.946  0.00  0.00     0.009 C 
HETATM   10  C   UNK N   1      32.495  17.366   4.276  0.00  0.00     0.001 C 
HETATM   11  C   UNK N   1      33.518  17.243   5.397  0.00  0.00     0.001 C 
HETATM   12  C   UNK N   1      32.744  17.413   6.689  0.00  0.00     0.009 C 
ENDBRANCH   3   8
ENDBRANCH   1   2
BRANCH   1  13
HETATM   13  C   UNK N   1      27.050  16.142   6.101  0.00  0.00     0.209 C 
BRANCH  13  14
HETATM   14  C   UNK N   1      26.607  16.225   4.650  0.00  0.00     0.159 C 
BRANCH  14  15
HETATM   15  O   UNK N   1      27.731  16.081   3.840  0.00  0.00    -0.392 OA
HETATM   16  H   UNK N   1      28.133  16.818   3.353  0.00  0.00     0.210 HD
ENDBRANCH  14  15
BRANCH  14  17
HETATM   17  C   UNK N   1      25.995  17.584   4.372  0.00  0.00     0.148 C 
BRANCH  17  18
HETATM   18  N   UNK N   1      26.115  18.462   5.532  0.00  0.00    -0.411 N 
HETATM   19  H   UNK N   1      25.876  18.193   6.487  0.00  0.00     0.154 HD
BRANCH  18  20
HETATM   20  C   UNK N   1      26.627  19.781   5.144  0.00  0.00     0.014 C 
HETATM   21  C   UNK N   1      25.870  20.310   3.937  0.00  0.00     0.037 C 
HETATM   22  C   UNK N   1      26.540  20.786   6.288  0.00  0.00     0.037 C 
HETATM   23  C   UNK N   1      28.084  19.638   4.764  0.00  0.00     0.037 C 
ENDBRANCH  18  20
ENDBRANCH  17  18
ENDBRANCH  14  17
ENDBRANCH  13  14
ENDBRANCH   1  13
TORSDOF 8
ENDMDL
MODEL 5
REMARK VINA RESULT:      -6.2      1.904      3.428
REMARK  8 active torsions:
REMARK  status: ('A' for Active; 'I' for Inactive)
REMARK    1  A    between atoms: O_1  and  C_10 
REMARK    2  A    between atoms: O_1  and  C_15 
REMARK    3  A    between atoms: C_13  and  O_2 
REMARK    4  A    between atoms: N_3  and  C_12 
REMARK    5  A    between atoms: N_3  and  C_14 
REMARK    6  A    between atoms: C_4  and  C_9 
REMARK    7  A    between atoms: C_13  and  C_14 
REMARK    8  A    between atoms: C_13  and  C_15 
ROOT
HETATM    1  O   UNK N   1      29.806  17.025   5.702  0.00  0.00    -0.348 OA
ENDROOT
BRANCH   1   2
HETATM    2  C   UNK N   1      29.655  17.445   6.991  0.00  0.00     0.075 A 
HETATM    3  C   UNK N   1      30.743  17.658   7.895  0.00  0.00    -0.021 A 
HETATM    4  C   UNK N   1      30.470  18.156   9.182  0.00  0.00     0.010 A 
HETATM    5  C   UNK N   1      29.162  18.424   9.585  0.00  0.00     0.001 A 
HETATM    6  C   UNK N   1      28.103  18.187   8.714  0.00  0.00     0.003 A 
HETATM    7  C   UNK N   1      28.349  17.702   7.429  0.00  0.00     0.037 A 
BRANCH   3   8
HETATM    8  C   UNK N   1      32.175  17.351   7.517  0.00  0.00     0.021 C 
HETATM    9  C   UNK N   1      33.231  18.300   8.042  0.00  0.00     0.009 C 
HETATM   10  C   UNK N   1      34.523  17.513   7.915  0.00  0.00     0.001 C 
HETATM   11  C   UNK N   1      34.130  16.042   7.897  0.00  0.00     0.001 C 
HETATM   12  C   UNK N   1      32.623  16.010   8.050  0.00  0.00     0.009 C 
ENDBRANCH   3   8
ENDBRANCH   1   2
BRANCH   1  13
HETATM   13  C   UNK N   1      29.048  16.040   5.107  0.00  0.00     0.209 C 
BRANCH  13  14
HETATM   14  C   UNK N   1      28.603  16.436   3.709  0.00  0.00     0.159 C 
BRANCH  14  15
HETATM   15  O   UNK N   1      29.682  17.030   3.058  0.00  0.00    -0.392 OA
HETATM   16  H   UNK N   1      30.590  17.000   3.400  0.00  0.00     0.210 HD
ENDBRANCH  14  15
BRANCH  14  17
HETATM   17  C   UNK N   1      27.481  17.453   3.790  0.00  0.00     0.148 C 
BRANCH  17  18
HETATM   18  N   UNK N   1      28.009  18.808   3.914  0.00  0.00    -0.411 N 
HETATM   19  H   UNK N   1      28.976  19.072   3.719  0.00  0.00     0.154 HD
BRANCH  18  20
HETATM   20  C   UNK N   1      26.965  19.742   4.353  0.00  0.00     0.014 C 
HETATM   21  C   UNK N   1      27.508  20.684   5.415  0.00  0.00     0.037 C 
HETATM   22  C   UNK N   1      26.395  20.548   3.192  0.00  0.00     0.037 C 
HETATM   23  C   UNK N   1      25.833  18.944   4.963  0.00  0.00     0.037 C 
ENDBRANCH  18  20
ENDBRANCH  17  18
ENDBRANCH  14  17
ENDBRANCH  13  14
ENDBRANCH   1  13
TORSDOF 8
ENDMDL
MODEL 6
REMARK VINA RESULT:      -6.1     10.875     14.493
REMARK  8 active torsions:
REMARK  status: ('A' for Active; 'I' for Inactive)
REMARK    1  A    between atoms: O_1  and  C_10 
REMARK    2  A    between atoms: O_1  and  C_15 
REMARK    3  A    between atoms: C_13  and  O_2 
REMARK    4  A    between atoms: N_3  and  C_12 
REMARK    5  A    between atoms: N_3  and  C_14 
REMARK    6  A    between atoms: C_4  and  C_9 
REMARK    7  A    between atoms: C_13  and  C_14 
REMARK    8  A    between atoms: C_13  and  C_15 
ROOT
HETATM    1  O   UNK N   1      27.579  23.994  -3.259  0.00  0.00    -0.348 OA
ENDROOT
BRANCH   1   2
HETATM    2  C   UNK N   1      26.853  24.856  -4.028  0.00  0.00     0.075 A 
HETATM    3  C   UNK N   1      26.326  24.527  -5.317  0.00  0.00    -0.021 A 
HETATM    4  C   UNK N   1      25.536  25.477  -5.990  0.00  0.00     0.010 A 
HETATM    5  C   UNK N   1      25.280  26.726  -5.427  0.00  0.00     0.001 A 
HETATM    6  C   UNK N   1      25.819  27.055  -4.187  0.00  0.00     0.003 A 
HETATM    7  C   UNK N   1      26.598  26.127  -3.495  0.00  0.00     0.037 A 
BRANCH   3   8
HETATM    8  C   UNK N   1      26.603  23.199  -5.984  0.00  0.00     0.021 C 
HETATM    9  C   UNK N   1      25.668  22.797  -7.104  0.00  0.00     0.009 C 
HETATM   10  C   UNK N   1      26.437  21.723  -7.853  0.00  0.00     0.001 C 
HETATM   11  C   UNK N   1      27.909  21.951  -7.540  0.00  0.00     0.001 C 
HETATM   12  C   UNK N   1      27.962  23.174  -6.646  0.00  0.00     0.009 C 
ENDBRANCH   3   8
ENDBRANCH   1   2
BRANCH   1  13
HETATM   13  C   UNK N   1      28.953  24.007  -3.155  0.00  0.00     0.209 C 
BRANCH  13  14
HETATM   14  C   UNK N   1      29.482  22.740  -2.503  0.00  0.00     0.159 C 
BRANCH  14  15
HETATM   15  O   UNK N   1      30.404  23.104  -1.524  0.00  0.00    -0.392 OA
HETATM   16  H   UNK N   1      31.008  22.472  -1.103  0.00  0.00     0.210 HD
ENDBRANCH  14  15
BRANCH  14  17
HETATM   17  C   UNK N   1      30.196  21.887  -3.532  0.00  0.00     0.148 C 
BRANCH  17  18
HETATM   18  N   UNK N   1      31.364  21.231  -2.951  0.00  0.00    -0.411 N 
HETATM   19  H   UNK N   1      31.398  20.837  -2.010  0.00  0.00     0.154 HD
BRANCH  18  20
HETATM   20  C   UNK N   1      32.484  21.213  -3.900  0.00  0.00     0.014 C 
HETATM   21  C   UNK N   1      32.670  22.585  -4.527  0.00  0.00     0.037 C 
HETATM   22  C   UNK N   1      33.783  20.767  -3.240  0.00  0.00     0.037 C 
HETATM   23  C   UNK N   1      32.162  20.228  -5.002  0.00  0.00     0.037 C 
ENDBRANCH  18  20
ENDBRANCH  17  18
ENDBRANCH  14  17
ENDBRANCH  13  14
ENDBRANCH   1  13
TORSDOF 8
ENDMDL
MODEL 7
REMARK VINA RESULT:      -6.1      3.649      7.898
REMARK  8 active torsions:
REMARK  status: ('A' for Active; 'I' for Inactive)
REMARK    1  A    between atoms: O_1  and  C_10 
REMARK    2  A    between atoms: O_1  and  C_15 
REMARK    3  A    between atoms: C_13  and  O_2 
REMARK    4  A    between atoms: N_3  and  C_12 
REMARK    5  A    between atoms: N_3  and  C_14 
REMARK    6  A    between atoms: C_4  and  C_9 
REMARK    7  A    between atoms: C_13  and  C_14 
REMARK    8  A    between atoms: C_13  and  C_15 
ROOT
HETATM    1  O   UNK N   1      33.418  16.833   8.396  0.00  0.00    -0.348 OA
ENDROOT
BRANCH   1   2
HETATM    2  C   UNK N   1      32.870  16.996   7.158  0.00  0.00     0.075 A 
HETATM    3  C   UNK N   1      31.476  17.219   6.924  0.00  0.00    -0.021 A 
HETATM    4  C   UNK N   1      31.035  17.439   5.607  0.00  0.00     0.010 A 
HETATM    5  C   UNK N   1      31.930  17.424   4.538  0.00  0.00     0.001 A 
HETATM    6  C   UNK N   1      33.280  17.177   4.764  0.00  0.00     0.003 A 
HETATM    7  C   UNK N   1      33.744  16.964   6.063  0.00  0.00     0.037 A 
BRANCH   3   8
HETATM    8  C   UNK N   1      30.461  17.212   8.046  0.00  0.00     0.021 C 
HETATM    9  C   UNK N   1      30.460  18.415   8.963  0.00  0.00     0.009 C 
HETATM   10  C   UNK N   1      29.104  18.352   9.645  0.00  0.00     0.001 C 
HETATM   11  C   UNK N   1      28.201  17.537   8.729  0.00  0.00     0.001 C 
HETATM   12  C   UNK N   1      29.043  17.178   7.522  0.00  0.00     0.009 C 
ENDBRANCH   3   8
ENDBRANCH   1   2
BRANCH   1  13
HETATM   13  C   UNK N   1      34.641  16.244   8.638  0.00  0.00     0.209 C 
BRANCH  13  14
HETATM   14  C   UNK N   1      35.082  16.429  10.080  0.00  0.00     0.159 C 
BRANCH  14  15
HETATM   15  O   UNK N   1      35.612  17.711  10.214  0.00  0.00    -0.392 OA
HETATM   16  H   UNK N   1      35.065  18.512  10.239  0.00  0.00     0.210 HD
ENDBRANCH  14  15
BRANCH  14  17
HETATM   17  C   UNK N   1      36.168  15.429  10.423  0.00  0.00     0.148 C 
BRANCH  17  18
HETATM   18  N   UNK N   1      36.396  15.376  11.864  0.00  0.00    -0.411 N 
HETATM   19  H   UNK N   1      36.631  16.183  12.443  0.00  0.00     0.154 HD
BRANCH  18  20
HETATM   20  C   UNK N   1      36.242  14.007  12.371  0.00  0.00     0.014 C 
HETATM   21  C   UNK N   1      36.460  13.970  13.875  0.00  0.00     0.037 C 
HETATM   22  C   UNK N   1      34.874  13.425  12.035  0.00  0.00     0.037 C 
HETATM   23  C   UNK N   1      37.290  13.133  11.719  0.00  0.00     0.037 C 
ENDBRANCH  18  20
ENDBRANCH  17  18
ENDBRANCH  14  17
ENDBRANCH  13  14
ENDBRANCH   1  13
TORSDOF 8
ENDMDL
MODEL 8
REMARK VINA RESULT:      -6.1      5.737      9.162
REMARK  8 active torsions:
REMARK  status: ('A' for Active; 'I' for Inactive)
REMARK    1  A    between atoms: O_1  and  C_10 
REMARK    2  A    between atoms: O_1  and  C_15 
REMARK    3  A    between atoms: C_13  and  O_2 
REMARK    4  A    between atoms: N_3  and  C_12 
REMARK    5  A    between atoms: N_3  and  C_14 
REMARK    6  A    between atoms: C_4  and  C_9 
REMARK    7  A    between atoms: C_13  and  C_14 
REMARK    8  A    between atoms: C_13  and  C_15 
ROOT
HETATM    1  O   UNK N   1      36.187  14.591  12.719  0.00  0.00    -0.348 OA
ENDROOT
BRANCH   1   2
HETATM    2  C   UNK N   1      36.668  13.412  13.208  0.00  0.00     0.075 A 
HETATM    3  C   UNK N   1      36.613  13.037  14.588  0.00  0.00    -0.021 A 
HETATM    4  C   UNK N   1      37.082  11.766  14.966  0.00  0.00     0.010 A 
HETATM    5  C   UNK N   1      37.609  10.886  14.022  0.00  0.00     0.001 A 
HETATM    6  C   UNK N   1      37.689  11.265  12.685  0.00  0.00     0.003 A 
HETATM    7  C   UNK N   1      37.222  12.517  12.284  0.00  0.00     0.037 A 
BRANCH   3   8
HETATM    8  C   UNK N   1      36.082  13.969  15.654  0.00  0.00     0.021 C 
HETATM    9  C   UNK N   1      35.485  13.319  16.884  0.00  0.00     0.009 C 
HETATM   10  C   UNK N   1      35.482  14.430  17.919  0.00  0.00     0.001 C 
HETATM   11  C   UNK N   1      36.549  15.425  17.483  0.00  0.00     0.001 C 
HETATM   12  C   UNK N   1      37.169  14.850  16.226  0.00  0.00     0.009 C 
ENDBRANCH   3   8
ENDBRANCH   1   2
BRANCH   1  13
HETATM   13  C   UNK N   1      35.168  14.697  11.797  0.00  0.00     0.209 C 
BRANCH  13  14
HETATM   14  C   UNK N   1      35.633  15.371  10.517  0.00  0.00     0.159 C 
BRANCH  14  15
HETATM   15  O   UNK N   1      36.674  16.242  10.834  0.00  0.00    -0.392 OA
HETATM   16  H   UNK N   1      36.672  16.806  11.623  0.00  0.00     0.210 HD
ENDBRANCH  14  15
BRANCH  14  17
HETATM   17  C   UNK N   1      34.503  16.183   9.917  0.00  0.00     0.148 C 
BRANCH  17  18
HETATM   18  N   UNK N   1      34.607  16.233   8.462  0.00  0.00    -0.411 N 
HETATM   19  H   UNK N   1      35.052  15.515   7.889  0.00  0.00     0.154 HD
BRANCH  18  20
HETATM   20  C   UNK N   1      33.984  17.452   7.931  0.00  0.00     0.014 C 
HETATM   21  C   UNK N   1      32.564  17.593   8.453  0.00  0.00     0.037 C 
HETATM   22  C   UNK N   1      34.788  18.700   8.277  0.00  0.00     0.037 C 
HETATM   23  C   UNK N   1      33.926  17.342   6.423  0.00  0.00     0.037 C 
ENDBRANCH  18  20
ENDBRANCH  17  18
ENDBRANCH  14  17
ENDBRANCH  13  14
ENDBRANCH   1  13
TORSDOF 8
ENDMDL
MODEL 9
REMARK VINA RESULT:      -6.1      2.792      6.334
REMARK  8 active torsions:
REMARK  status: ('A' for Active; 'I' for Inactive)
REMARK    1  A    between atoms: O_1  and  C_10 
REMARK    2  A    between atoms: O_1  and  C_15 
REMARK    3  A    between atoms: C_13  and  O_2 
REMARK    4  A    between atoms: N_3  and  C_12 
REMARK    5  A    between atoms: N_3  and  C_14 
REMARK    6  A    between atoms: C_4  and  C_9 
REMARK    7  A    between atoms: C_13  and  C_14 
REMARK    8  A    between atoms: C_13  and  C_15 
ROOT
HETATM    1  O   UNK N   1      31.842  17.361   7.007  0.00  0.00    -0.348 OA
ENDROOT
BRANCH   1   2
HETATM    2  C   UNK N   1      30.671  17.621   7.657  0.00  0.00     0.075 A 
HETATM    3  C   UNK N   1      29.378  17.302   7.135  0.00  0.00    -0.021 A 
HETATM    4  C   UNK N   1      28.244  17.559   7.926  0.00  0.00     0.010 A 
HETATM    5  C   UNK N   1      28.365  18.129   9.192  0.00  0.00     0.001 A 
HETATM    6  C   UNK N   1      29.622  18.466   9.685  0.00  0.00     0.003 A 
HETATM    7  C   UNK N   1      30.763  18.214   8.924  0.00  0.00     0.037 A 
BRANCH   3   8
HETATM    8  C   UNK N   1      29.192  16.713   5.754  0.00  0.00     0.021 C 
HETATM    9  C   UNK N   1      28.115  15.659   5.609  0.00  0.00     0.009 C 
HETATM   10  C   UNK N   1      27.851  15.612   4.115  0.00  0.00     0.001 C 
HETATM   11  C   UNK N   1      28.302  16.954   3.556  0.00  0.00     0.001 C 
HETATM   12  C   UNK N   1      28.785  17.761   4.744  0.00  0.00     0.009 C 
ENDBRANCH   3   8
ENDBRANCH   1   2
BRANCH   1  13
HETATM   13  C   UNK N   1      32.803  16.478   7.451  0.00  0.00     0.209 C 
BRANCH  13  14
HETATM   14  C   UNK N   1      34.125  16.673   6.728  0.00  0.00     0.159 C 
BRANCH  14  15
HETATM   15  O   UNK N   1      34.247  18.020   6.393  0.00  0.00    -0.392 OA
HETATM   16  H   UNK N   1      34.798  18.337   5.660  0.00  0.00     0.210 HD
ENDBRANCH  14  15
BRANCH  14  17
HETATM   17  C   UNK N   1      34.140  15.864   5.446  0.00  0.00     0.148 C 
BRANCH  17  18
HETATM   18  N   UNK N   1      32.796  15.417   5.092  0.00  0.00    -0.411 N 
HETATM   19  H   UNK N   1      32.130  15.010   5.749  0.00  0.00     0.154 HD
BRANCH  18  20
HETATM   20  C   UNK N   1      32.528  15.631   3.665  0.00  0.00     0.014 C 
HETATM   21  C   UNK N   1      33.749  15.269   2.835  0.00  0.00     0.037 C 
HETATM   22  C   UNK N   1      31.323  14.832   3.184  0.00  0.00     0.037 C 
HETATM   23  C   UNK N   1      32.227  17.098   3.449  0.00  0.00     0.037 C 
ENDBRANCH  18  20
ENDBRANCH  17  18
ENDBRANCH  14  17
ENDBRANCH  13  14
ENDBRANCH   1  13
TORSDOF 8
ENDMDL
