MODEL 1
REMARK VINA RESULT:      -6.5      0.000      0.000
REMARK  17 active torsions:
REMARK  status: ('A' for Active; 'I' for Inactive)
REMARK    1  A    between atoms: O_5  and  C_24 
REMARK    2  A    between atoms: O_7  and  C_30 
REMARK    3  A    between atoms: O_8  and  C_31 
REMARK    4  A    between atoms: O_11  and  C_33 
REMARK    5  A    between atoms: O_12  and  C_34 
REMARK    6  A    between atoms: N_13  and  C_16 
REMARK    7  A    between atoms: N_13  and  C_17 
REMARK       I    between atoms: N_13  and  C_25 
REMARK       I    between atoms: N_14  and  C_26 
REMARK    8  A    between atoms: N_14  and  C_28 
REMARK       I    between atoms: N_15  and  C_27 
REMARK    9  A    between atoms: N_15  and  C_29 
REMARK   10  A    between atoms: C_16  and  C_18 
REMARK   11  A    between atoms: C_18  and  C_24 
REMARK   12  A    between atoms: C_21  and  C_27 
REMARK   13  A    between atoms: C_22  and  C_26 
REMARK   14  A    between atoms: C_28  and  C_30 
REMARK   15  A    between atoms: C_29  and  C_31 
REMARK   16  A    between atoms: C_30  and  C_33 
REMARK   17  A    between atoms: C_31  and  C_34 
ROOT
HETATM    1  O   UNK N   1      28.188  17.921   4.858  0.00  0.00    -0.392 OA
HETATM    2  C   UNK N   1      27.373  17.440   5.891  0.00  0.00     0.160 C 
HETATM    3  H   UNK N   1      28.778  18.156   4.126  0.00  0.00     0.210 HD
ENDROOT
BRANCH   2   4
HETATM    4  C   UNK N   1      26.984  15.951   5.690  0.00  0.00     0.166 C 
BRANCH   4   5
HETATM    5  N   UNK N   1      25.784  15.737   4.881  0.00  0.00    -0.313 N 
HETATM    6  C   UNK N   1      25.907  15.582   3.514  0.00  0.00     0.220 C 
HETATM    7  O   UNK N   1      27.003  15.691   2.978  0.00  0.00    -0.273 OA
HETATM    8  C   UNK N   1      24.740  15.217   2.651  0.00  0.00     0.117 C 
BRANCH   5   9
HETATM    9  C   UNK N   1      24.476  15.780   5.527  0.00  0.00     0.072 C 
HETATM   10  C   UNK N   1      23.999  14.636   6.211  0.00  0.00     0.051 C 
HETATM   11  I   UNK N   1      25.097  12.765   6.031  0.00  0.00    -0.041 I 
HETATM   12  C   UNK N   1      22.768  14.679   6.916  0.00  0.00     0.068 C 
HETATM   13  C   UNK N   1      21.967  15.865   6.887  0.00  0.00     0.040 C 
HETATM   14  I   UNK N   1      20.439  15.915   8.389  0.00  0.00    -0.042 I 
HETATM   15  C   UNK N   1      22.301  16.965   6.009  0.00  0.00     0.068 C 
HETATM   16  C   UNK N   1      23.624  16.921   5.406  0.00  0.00     0.051 C 
HETATM   17  I   UNK N   1      24.472  18.684   4.461  0.00  0.00    -0.041 I 
BRANCH  12  18
HETATM   18  C   UNK N   1      22.266  13.428   7.620  0.00  0.00     0.254 C 
HETATM   19  O   UNK N   1      21.418  12.715   7.107  0.00  0.00    -0.268 OA
HETATM   20  N   UNK N   1      22.680  13.155   8.886  0.00  0.00    -0.354 N 
HETATM   21  H   UNK N   1      23.404  13.702   9.268  0.00  0.00     0.162 HD
BRANCH  20  22
HETATM   22  C   UNK N   1      22.112  12.107   9.705  0.00  0.00     0.156 C 
BRANCH  22  23
HETATM   23  C   UNK N   1      23.061  11.596  10.795  0.00  0.00     0.159 C 
BRANCH  23  24
HETATM   24  O   UNK N   1      22.560  11.784  12.082  0.00  0.00    -0.392 OA
HETATM   25  H   UNK N   1      21.689  11.546  12.436  0.00  0.00     0.210 HD
ENDBRANCH  23  24
BRANCH  23  26
HETATM   26  C   UNK N   1      24.421  12.248  10.662  0.00  0.00     0.197 C 
BRANCH  26  27
HETATM   27  O   UNK N   1      25.046  12.270  11.909  0.00  0.00    -0.398 OA
HETATM   28  H   UNK N   1      25.341  13.031  12.434  0.00  0.00     0.209 HD
ENDBRANCH  26  27
ENDBRANCH  23  26
ENDBRANCH  22  23
ENDBRANCH  20  22
ENDBRANCH  12  18
BRANCH  15  29
HETATM   29  C   UNK N   1      21.364  18.160   5.579  0.00  0.00     0.254 C 
HETATM   30  O   UNK N   1      21.127  18.974   6.448  0.00  0.00    -0.268 OA
HETATM   31  N   UNK N   1      20.884  18.544   4.358  0.00  0.00    -0.354 N 
HETATM   32  H   UNK N   1      20.386  19.393   4.415  0.00  0.00     0.162 HD
BRANCH  31  33
HETATM   33  C   UNK N   1      20.912  18.043   3.023  0.00  0.00     0.156 C 
BRANCH  33  34
HETATM   34  C   UNK N   1      20.352  19.070   2.045  0.00  0.00     0.159 C 
BRANCH  34  35
HETATM   35  O   UNK N   1      19.040  19.374   2.403  0.00  0.00    -0.392 OA
HETATM   36  H   UNK N   1      18.859  19.930   3.177  0.00  0.00     0.210 HD
ENDBRANCH  34  35
BRANCH  34  37
HETATM   37  C   UNK N   1      21.167  20.351   2.074  0.00  0.00     0.197 C 
BRANCH  37  38
HETATM   38  O   UNK N   1      20.793  21.143   3.157  0.00  0.00    -0.398 OA
HETATM   39  H   UNK N   1      20.905  22.107   3.145  0.00  0.00     0.209 HD
ENDBRANCH  37  38
ENDBRANCH  34  37
ENDBRANCH  33  34
ENDBRANCH  31  33
ENDBRANCH  15  29
ENDBRANCH   5   9
ENDBRANCH   4   5
ENDBRANCH   2   4
BRANCH   2  40
HETATM   40  C   UNK N   1      28.078  17.611   7.230  0.00  0.00     0.197 C 
BRANCH  40  41
HETATM   41  O   UNK N   1      29.309  18.248   7.058  0.00  0.00    -0.398 OA
HETATM   42  H   UNK N   1      29.458  19.206   7.040  0.00  0.00     0.209 HD
ENDBRANCH  40  41
ENDBRANCH   2  40
TORSDOF 17
ENDMDL
MODEL 2
REMARK VINA RESULT:      -6.4      2.726      8.331
REMARK  17 active torsions:
REMARK  status: ('A' for Active; 'I' for Inactive)
REMARK    1  A    between atoms: O_5  and  C_24 
REMARK    2  A    between atoms: O_7  and  C_30 
REMARK    3  A    between atoms: O_8  and  C_31 
REMARK    4  A    between atoms: O_11  and  C_33 
REMARK    5  A    between atoms: O_12  and  C_34 
REMARK    6  A    between atoms: N_13  and  C_16 
REMARK    7  A    between atoms: N_13  and  C_17 
REMARK       I    between atoms: N_13  and  C_25 
REMARK       I    between atoms: N_14  and  C_26 
REMARK    8  A    between atoms: N_14  and  C_28 
REMARK       I    between atoms: N_15  and  C_27 
REMARK    9  A    between atoms: N_15  and  C_29 
REMARK   10  A    between atoms: C_16  and  C_18 
REMARK   11  A    between atoms: C_18  and  C_24 
REMARK   12  A    between atoms: C_21  and  C_27 
REMARK   13  A    between atoms: C_22  and  C_26 
REMARK   14  A    between atoms: C_28  and  C_30 
REMARK   15  A    between atoms: C_29  and  C_31 
REMARK   16  A    between atoms: C_30  and  C_33 
REMARK   17  A    between atoms: C_31  and  C_34 
ROOT
HETATM    1  O   UNK N   1      18.350  16.420   8.560  0.00  0.00    -0.392 OA
HETATM    2  C   UNK N   1      19.573  17.097   8.494  0.00  0.00     0.160 C 
HETATM    3  H   UNK N   1      17.476  16.001   8.520  0.00  0.00     0.210 HD
ENDROOT
BRANCH   2   4
HETATM    4  C   UNK N   1      19.907  17.571   7.054  0.00  0.00     0.166 C 
BRANCH   4   5
HETATM    5  N   UNK N   1      20.350  16.511   6.149  0.00  0.00    -0.313 N 
HETATM    6  C   UNK N   1      19.408  15.755   5.479  0.00  0.00     0.220 C 
HETATM    7  O   UNK N   1      18.214  15.927   5.692  0.00  0.00    -0.273 OA
HETATM    8  C   UNK N   1      19.793  14.756   4.432  0.00  0.00     0.117 C 
BRANCH   5   9
HETATM    9  C   UNK N   1      21.775  16.217   6.042  0.00  0.00     0.072 C 
HETATM   10  C   UNK N   1      22.601  17.053   5.253  0.00  0.00     0.051 C 
HETATM   11  I   UNK N   1      21.675  18.570   3.997  0.00  0.00    -0.041 I 
HETATM   12  C   UNK N   1      24.003  16.838   5.200  0.00  0.00     0.068 C 
HETATM   13  C   UNK N   1      24.586  15.730   5.896  0.00  0.00     0.040 C 
HETATM   14  I   UNK N   1      26.713  15.865   6.113  0.00  0.00    -0.042 I 
HETATM   15  C   UNK N   1      23.752  14.720   6.511  0.00  0.00     0.068 C 
HETATM   16  C   UNK N   1      22.341  15.049   6.642  0.00  0.00     0.051 C 
HETATM   17  I   UNK N   1      21.047  13.889   7.945  0.00  0.00    -0.041 I 
BRANCH  12  18
HETATM   18  C   UNK N   1      24.864  17.735   4.324  0.00  0.00     0.254 C 
HETATM   19  O   UNK N   1      25.372  17.311   3.298  0.00  0.00    -0.268 OA
HETATM   20  N   UNK N   1      25.169  18.992   4.741  0.00  0.00    -0.354 N 
HETATM   21  H   UNK N   1      24.710  19.343   5.538  0.00  0.00     0.162 HD
BRANCH  20  22
HETATM   22  C   UNK N   1      26.133  19.843   4.079  0.00  0.00     0.156 C 
BRANCH  22  23
HETATM   23  C   UNK N   1      27.557  19.702   4.628  0.00  0.00     0.159 C 
BRANCH  23  24
HETATM   24  O   UNK N   1      28.250  18.627   4.073  0.00  0.00    -0.392 OA
HETATM   25  H   UNK N   1      28.552  18.506   3.159  0.00  0.00     0.210 HD
ENDBRANCH  23  24
BRANCH  23  26
HETATM   26  C   UNK N   1      27.534  19.586   6.137  0.00  0.00     0.197 C 
BRANCH  26  27
HETATM   27  O   UNK N   1      26.584  20.468   6.654  0.00  0.00    -0.398 OA
HETATM   28  H   UNK N   1      26.365  20.661   7.579  0.00  0.00     0.209 HD
ENDBRANCH  26  27
ENDBRANCH  23  26
ENDBRANCH  22  23
ENDBRANCH  20  22
ENDBRANCH  12  18
BRANCH  15  29
HETATM   29  C   UNK N   1      24.192  13.281   6.986  0.00  0.00     0.254 C 
HETATM   30  O   UNK N   1      24.247  12.439   6.113  0.00  0.00    -0.268 OA
HETATM   31  N   UNK N   1      24.679  12.828   8.181  0.00  0.00    -0.354 N 
HETATM   32  H   UNK N   1      24.940  11.879   8.129  0.00  0.00     0.162 HD
BRANCH  31  33
HETATM   33  C   UNK N   1      24.908  13.364   9.482  0.00  0.00     0.156 C 
BRANCH  33  34
HETATM   34  C   UNK N   1      24.814  12.273  10.544  0.00  0.00     0.159 C 
BRANCH  34  35
HETATM   35  O   UNK N   1      25.348  12.751  11.739  0.00  0.00    -0.392 OA
HETATM   36  H   UNK N   1      26.298  12.931  11.814  0.00  0.00     0.210 HD
ENDBRANCH  34  35
BRANCH  34  37
HETATM   37  C   UNK N   1      23.369  11.874  10.789  0.00  0.00     0.197 C 
BRANCH  37  38
HETATM   38  O   UNK N   1      22.873  11.146   9.709  0.00  0.00    -0.398 OA
HETATM   39  H   UNK N   1      23.387  10.432   9.298  0.00  0.00     0.209 HD
ENDBRANCH  37  38
ENDBRANCH  34  37
ENDBRANCH  33  34
ENDBRANCH  31  33
ENDBRANCH  15  29
ENDBRANCH   5   9
ENDBRANCH   4   5
ENDBRANCH   2   4
BRANCH   2  40
HETATM   40  C   UNK N   1      19.557  18.292   9.437  0.00  0.00     0.197 C 
BRANCH  40  41
HETATM   41  O   UNK N   1      18.261  18.534   9.900  0.00  0.00    -0.398 OA
HETATM   42  H   UNK N   1      18.000  19.221  10.531  0.00  0.00     0.209 HD
ENDBRANCH  40  41
ENDBRANCH   2  40
TORSDOF 17
ENDMDL
MODEL 3
REMARK VINA RESULT:      -6.3      1.675      5.648
REMARK  17 active torsions:
REMARK  status: ('A' for Active; 'I' for Inactive)
REMARK    1  A    between atoms: O_5  and  C_24 
REMARK    2  A    between atoms: O_7  and  C_30 
REMARK    3  A    between atoms: O_8  and  C_31 
REMARK    4  A    between atoms: O_11  and  C_33 
REMARK    5  A    between atoms: O_12  and  C_34 
REMARK    6  A    between atoms: N_13  and  C_16 
REMARK    7  A    between atoms: N_13  and  C_17 
REMARK       I    between atoms: N_13  and  C_25 
REMARK       I    between atoms: N_14  and  C_26 
REMARK    8  A    between atoms: N_14  and  C_28 
REMARK       I    between atoms: N_15  and  C_27 
REMARK    9  A    between atoms: N_15  and  C_29 
REMARK   10  A    between atoms: C_16  and  C_18 
REMARK   11  A    between atoms: C_18  and  C_24 
REMARK   12  A    between atoms: C_21  and  C_27 
REMARK   13  A    between atoms: C_22  and  C_26 
REMARK   14  A    between atoms: C_28  and  C_30 
REMARK   15  A    between atoms: C_29  and  C_31 
REMARK   16  A    between atoms: C_30  and  C_33 
REMARK   17  A    between atoms: C_31  and  C_34 
ROOT
HETATM    1  O   UNK N   1      20.438  12.647  10.325  0.00  0.00    -0.392 OA
HETATM    2  C   UNK N   1      21.430  12.906   9.372  0.00  0.00     0.160 C 
HETATM    3  H   UNK N   1      19.718  12.563  10.968  0.00  0.00     0.210 HD
ENDROOT
BRANCH   2   4
HETATM    4  C   UNK N   1      21.026  14.044   8.396  0.00  0.00     0.166 C 
BRANCH   4   5
HETATM    5  N   UNK N   1      21.534  13.888   7.033  0.00  0.00    -0.313 N 
HETATM    6  C   UNK N   1      21.426  12.663   6.405  0.00  0.00     0.220 C 
HETATM    7  O   UNK N   1      20.969  11.699   7.009  0.00  0.00    -0.273 OA
HETATM    8  C   UNK N   1      21.792  12.476   4.966  0.00  0.00     0.117 C 
BRANCH   5   9
HETATM    9  C   UNK N   1      22.224  15.008   6.400  0.00  0.00     0.072 C 
HETATM   10  C   UNK N   1      23.639  15.043   6.397  0.00  0.00     0.051 C 
HETATM   11  I   UNK N   1      24.733  13.583   7.584  0.00  0.00    -0.041 I 
HETATM   12  C   UNK N   1      24.333  16.077   5.717  0.00  0.00     0.068 C 
HETATM   13  C   UNK N   1      23.604  17.132   5.081  0.00  0.00     0.040 C 
HETATM   14  I   UNK N   1      24.773  18.288   3.706  0.00  0.00    -0.042 I 
HETATM   15  C   UNK N   1      22.175  17.262   5.266  0.00  0.00     0.068 C 
HETATM   16  C   UNK N   1      21.502  16.119   5.864  0.00  0.00     0.051 C 
HETATM   17  I   UNK N   1      19.339  15.937   5.781  0.00  0.00    -0.041 I 
BRANCH  12  18
HETATM   18  C   UNK N   1      25.853  16.105   5.753  0.00  0.00     0.254 C 
HETATM   19  O   UNK N   1      26.513  15.401   5.006  0.00  0.00    -0.268 OA
HETATM   20  N   UNK N   1      26.492  16.837   6.704  0.00  0.00    -0.354 N 
HETATM   21  H   UNK N   1      25.955  17.444   7.263  0.00  0.00     0.162 HD
BRANCH  20  22
HETATM   22  C   UNK N   1      27.917  16.771   6.941  0.00  0.00     0.156 C 
BRANCH  22  23
HETATM   23  C   UNK N   1      28.345  17.372   8.285  0.00  0.00     0.159 C 
BRANCH  23  24
HETATM   24  O   UNK N   1      27.437  17.112   9.310  0.00  0.00    -0.392 OA
HETATM   25  H   UNK N   1      26.712  17.669   9.636  0.00  0.00     0.210 HD
ENDBRANCH  23  24
BRANCH  23  26
HETATM   26  C   UNK N   1      28.570  18.863   8.151  0.00  0.00     0.197 C 
BRANCH  26  27
HETATM   27  O   UNK N   1      27.445  19.450   7.571  0.00  0.00    -0.398 OA
HETATM   28  H   UNK N   1      26.835  20.108   7.943  0.00  0.00     0.209 HD
ENDBRANCH  26  27
ENDBRANCH  23  26
ENDBRANCH  22  23
ENDBRANCH  20  22
ENDBRANCH  12  18
BRANCH  15  29
HETATM   29  C   UNK N   1      21.285  18.529   4.959  0.00  0.00     0.254 C 
HETATM   30  O   UNK N   1      21.142  19.301   5.885  0.00  0.00    -0.268 OA
HETATM   31  N   UNK N   1      20.762  19.010   3.790  0.00  0.00    -0.354 N 
HETATM   32  H   UNK N   1      20.317  19.879   3.924  0.00  0.00     0.162 HD
BRANCH  31  33
HETATM   33  C   UNK N   1      20.690  18.588   2.430  0.00  0.00     0.156 C 
BRANCH  33  34
HETATM   34  C   UNK N   1      21.152  19.698   1.491  0.00  0.00     0.159 C 
BRANCH  34  35
HETATM   35  O   UNK N   1      20.534  19.535   0.253  0.00  0.00    -0.392 OA
HETATM   36  H   UNK N   1      21.054  19.279  -0.525  0.00  0.00     0.210 HD
ENDBRANCH  34  35
BRANCH  34  37
HETATM   37  C   UNK N   1      20.780  21.064   2.038  0.00  0.00     0.197 C 
BRANCH  37  38
HETATM   38  O   UNK N   1      21.876  21.657   2.662  0.00  0.00    -0.398 OA
HETATM   39  H   UNK N   1      22.598  22.055   2.151  0.00  0.00     0.209 HD
ENDBRANCH  37  38
ENDBRANCH  34  37
ENDBRANCH  33  34
ENDBRANCH  31  33
ENDBRANCH  15  29
ENDBRANCH   5   9
ENDBRANCH   4   5
ENDBRANCH   2   4
BRANCH   2  40
HETATM   40  C   UNK N   1      22.736  13.266  10.066  0.00  0.00     0.197 C 
BRANCH  40  41
HETATM   41  O   UNK N   1      22.782  12.705  11.345  0.00  0.00    -0.398 OA
HETATM   42  H   UNK N   1      22.037  12.306  11.819  0.00  0.00     0.209 HD
ENDBRANCH  40  41
ENDBRANCH   2  40
TORSDOF 17
ENDMDL
MODEL 4
REMARK VINA RESULT:      -6.3      2.429      5.441
REMARK  17 active torsions:
REMARK  status: ('A' for Active; 'I' for Inactive)
REMARK    1  A    between atoms: O_5  and  C_24 
REMARK    2  A    between atoms: O_7  and  C_30 
REMARK    3  A    between atoms: O_8  and  C_31 
REMARK    4  A    between atoms: O_11  and  C_33 
REMARK    5  A    between atoms: O_12  and  C_34 
REMARK    6  A    between atoms: N_13  and  C_16 
REMARK    7  A    between atoms: N_13  and  C_17 
REMARK       I    between atoms: N_13  and  C_25 
REMARK       I    between atoms: N_14  and  C_26 
REMARK    8  A    between atoms: N_14  and  C_28 
REMARK       I    between atoms: N_15  and  C_27 
REMARK    9  A    between atoms: N_15  and  C_29 
REMARK   10  A    between atoms: C_16  and  C_18 
REMARK   11  A    between atoms: C_18  and  C_24 
REMARK   12  A    between atoms: C_21  and  C_27 
REMARK   13  A    between atoms: C_22  and  C_26 
REMARK   14  A    between atoms: C_28  and  C_30 
REMARK   15  A    between atoms: C_29  and  C_31 
REMARK   16  A    between atoms: C_30  and  C_33 
REMARK   17  A    between atoms: C_31  and  C_34 
ROOT
HETATM    1  O   UNK N   1      23.455  13.792   8.042  0.00  0.00    -0.392 OA
HETATM    2  C   UNK N   1      22.586  14.063   6.979  0.00  0.00     0.160 C 
HETATM    3  H   UNK N   1      24.068  13.509   8.739  0.00  0.00     0.210 HD
ENDROOT
BRANCH   2   4
HETATM    4  C   UNK N   1      22.835  13.133   5.762  0.00  0.00     0.166 C 
BRANCH   4   5
HETATM    5  N   UNK N   1      23.337  13.812   4.567  0.00  0.00    -0.313 N 
HETATM    6  C   UNK N   1      23.531  13.088   3.408  0.00  0.00     0.220 C 
HETATM    7  O   UNK N   1      23.349  11.877   3.399  0.00  0.00    -0.273 OA
HETATM    8  C   UNK N   1      23.903  13.747   2.116  0.00  0.00     0.117 C 
BRANCH   5   9
HETATM    9  C   UNK N   1      23.705  15.221   4.654  0.00  0.00     0.072 C 
HETATM   10  C   UNK N   1      25.031  15.576   5.001  0.00  0.00     0.051 C 
HETATM   11  I   UNK N   1      26.396  14.020   5.676  0.00  0.00    -0.041 I 
HETATM   12  C   UNK N   1      25.435  16.936   5.012  0.00  0.00     0.068 C 
HETATM   13  C   UNK N   1      24.483  17.969   4.731  0.00  0.00     0.040 C 
HETATM   14  I   UNK N   1      25.370  19.871   4.299  0.00  0.00    -0.042 I 
HETATM   15  C   UNK N   1      23.073  17.665   4.610  0.00  0.00     0.068 C 
HETATM   16  C   UNK N   1      22.732  16.255   4.487  0.00  0.00     0.051 C 
HETATM   17  I   UNK N   1      20.755  15.647   3.825  0.00  0.00    -0.041 I 
BRANCH  12  18
HETATM   18  C   UNK N   1      26.858  17.290   5.414  0.00  0.00     0.254 C 
HETATM   19  O   UNK N   1      27.769  17.253   4.603  0.00  0.00    -0.268 OA
HETATM   20  N   UNK N   1      27.146  17.541   6.719  0.00  0.00    -0.354 N 
HETATM   21  H   UNK N   1      26.398  17.625   7.354  0.00  0.00     0.162 HD
BRANCH  20  22
HETATM   22  C   UNK N   1      28.492  17.691   7.226  0.00  0.00     0.156 C 
BRANCH  22  23
HETATM   23  C   UNK N   1      28.570  17.748   8.755  0.00  0.00     0.159 C 
BRANCH  23  24
HETATM   24  O   UNK N   1      27.399  18.227   9.342  0.00  0.00    -0.392 OA
HETATM   25  H   UNK N   1      26.479  18.049   9.094  0.00  0.00     0.210 HD
ENDBRANCH  23  24
BRANCH  23  26
HETATM   26  C   UNK N   1      29.754  18.582   9.195  0.00  0.00     0.197 C 
BRANCH  26  27
HETATM   27  O   UNK N   1      30.867  17.755   9.357  0.00  0.00    -0.398 OA
HETATM   28  H   UNK N   1      30.947  16.799   9.213  0.00  0.00     0.209 HD
ENDBRANCH  26  27
ENDBRANCH  23  26
ENDBRANCH  22  23
ENDBRANCH  20  22
ENDBRANCH  12  18
BRANCH  15  29
HETATM   29  C   UNK N   1      21.870  18.684   4.670  0.00  0.00     0.254 C 
HETATM   30  O   UNK N   1      21.312  18.767   5.745  0.00  0.00    -0.268 OA
HETATM   31  N   UNK N   1      21.425  19.617   3.775  0.00  0.00    -0.354 N 
HETATM   32  H   UNK N   1      20.692  20.159   4.151  0.00  0.00     0.162 HD
BRANCH  31  33
HETATM   33  C   UNK N   1      21.739  20.015   2.442  0.00  0.00     0.156 C 
BRANCH  33  34
HETATM   34  C   UNK N   1      20.502  19.962   1.553  0.00  0.00     0.159 C 
BRANCH  34  35
HETATM   35  O   UNK N   1      20.873  20.235   0.237  0.00  0.00    -0.392 OA
HETATM   36  H   UNK N   1      20.554  21.037  -0.206  0.00  0.00     0.210 HD
ENDBRANCH  34  35
BRANCH  34  37
HETATM   37  C   UNK N   1      19.861  18.586   1.594  0.00  0.00     0.197 C 
BRANCH  37  38
HETATM   38  O   UNK N   1      18.729  18.598   2.407  0.00  0.00    -0.398 OA
HETATM   39  H   UNK N   1      18.702  19.107   3.233  0.00  0.00     0.209 HD
ENDBRANCH  37  38
ENDBRANCH  34  37
ENDBRANCH  33  34
ENDBRANCH  31  33
ENDBRANCH  15  29
ENDBRANCH   5   9
ENDBRANCH   4   5
ENDBRANCH   2   4
BRANCH   2  40
HETATM   40  C   UNK N   1      21.141  13.926   7.442  0.00  0.00     0.197 C 
BRANCH  40  41
HETATM   41  O   UNK N   1      20.699  12.611   7.284  0.00  0.00    -0.398 OA
HETATM   42  H   UNK N   1      19.776  12.314   7.301  0.00  0.00     0.209 HD
ENDBRANCH  40  41
ENDBRANCH   2  40
TORSDOF 17
ENDMDL
MODEL 5
REMARK VINA RESULT:      -6.2      5.917     10.820
REMARK  17 active torsions:
REMARK  status: ('A' for Active; 'I' for Inactive)
REMARK    1  A    between atoms: O_5  and  C_24 
REMARK    2  A    between atoms: O_7  and  C_30 
REMARK    3  A    between atoms: O_8  and  C_31 
REMARK    4  A    between atoms: O_11  and  C_33 
REMARK    5  A    between atoms: O_12  and  C_34 
REMARK    6  A    between atoms: N_13  and  C_16 
REMARK    7  A    between atoms: N_13  and  C_17 
REMARK       I    between atoms: N_13  and  C_25 
REMARK       I    between atoms: N_14  and  C_26 
REMARK    8  A    between atoms: N_14  and  C_28 
REMARK       I    between atoms: N_15  and  C_27 
REMARK    9  A    between atoms: N_15  and  C_29 
REMARK   10  A    between atoms: C_16  and  C_18 
REMARK   11  A    between atoms: C_18  and  C_24 
REMARK   12  A    between atoms: C_21  and  C_27 
REMARK   13  A    between atoms: C_22  and  C_26 
REMARK   14  A    between atoms: C_28  and  C_30 
REMARK   15  A    between atoms: C_29  and  C_31 
REMARK   16  A    between atoms: C_30  and  C_33 
REMARK   17  A    between atoms: C_31  and  C_34 
ROOT
HETATM    1  O   UNK N   1      33.023  11.663   3.017  0.00  0.00    -0.392 OA
HETATM    2  C   UNK N   1      32.706  12.304   4.220  0.00  0.00     0.160 C 
HETATM    3  H   UNK N   1      33.146  11.240   2.153  0.00  0.00     0.210 HD
ENDROOT
BRANCH   2   4
HETATM    4  C   UNK N   1      31.529  13.305   4.063  0.00  0.00     0.166 C 
BRANCH   4   5
HETATM    5  N   UNK N   1      31.916  14.714   4.111  0.00  0.00    -0.313 N 
HETATM    6  C   UNK N   1      32.728  15.228   3.119  0.00  0.00     0.220 C 
HETATM    7  O   UNK N   1      33.175  14.495   2.246  0.00  0.00    -0.273 OA
HETATM    8  C   UNK N   1      33.040  16.690   3.030  0.00  0.00     0.117 C 
BRANCH   5   9
HETATM    9  C   UNK N   1      31.506  15.524   5.253  0.00  0.00     0.072 C 
HETATM   10  C   UNK N   1      30.222  16.118   5.262  0.00  0.00     0.051 C 
HETATM   11  I   UNK N   1      29.014  16.046   3.452  0.00  0.00    -0.041 I 
HETATM   12  C   UNK N   1      29.769  16.841   6.396  0.00  0.00     0.068 C 
HETATM   13  C   UNK N   1      30.637  17.029   7.520  0.00  0.00     0.040 C 
HETATM   14  I   UNK N   1      29.628  17.683   9.294  0.00  0.00    -0.042 I 
HETATM   15  C   UNK N   1      32.031  16.648   7.452  0.00  0.00     0.068 C 
HETATM   16  C   UNK N   1      32.409  15.809   6.325  0.00  0.00     0.051 C 
HETATM   17  I   UNK N   1      34.311  14.759   6.313  0.00  0.00    -0.041 I 
BRANCH  12  18
HETATM   18  C   UNK N   1      28.394  17.491   6.368  0.00  0.00     0.254 C 
HETATM   19  O   UNK N   1      27.387  16.843   6.605  0.00  0.00    -0.268 OA
HETATM   20  N   UNK N   1      28.268  18.783   5.963  0.00  0.00    -0.354 N 
HETATM   21  H   UNK N   1      29.088  19.312   5.830  0.00  0.00     0.162 HD
BRANCH  20  22
HETATM   22  C   UNK N   1      26.995  19.423   5.716  0.00  0.00     0.156 C 
BRANCH  22  23
HETATM   23  C   UNK N   1      26.598  19.450   4.236  0.00  0.00     0.159 C 
BRANCH  23  24
HETATM   24  O   UNK N   1      27.610  19.939   3.411  0.00  0.00    -0.392 OA
HETATM   25  H   UNK N   1      28.506  19.592   3.276  0.00  0.00     0.210 HD
ENDBRANCH  23  24
BRANCH  23  26
HETATM   26  C   UNK N   1      25.330  20.253   4.042  0.00  0.00     0.197 C 
BRANCH  26  27
HETATM   27  O   UNK N   1      25.211  20.611   2.698  0.00  0.00    -0.398 OA
HETATM   28  H   UNK N   1      25.095  21.491   2.306  0.00  0.00     0.209 HD
ENDBRANCH  26  27
ENDBRANCH  23  26
ENDBRANCH  22  23
ENDBRANCH  20  22
ENDBRANCH  12  18
BRANCH  15  29
HETATM   29  C   UNK N   1      33.191  17.100   8.421  0.00  0.00     0.254 C 
HETATM   30  O   UNK N   1      33.553  18.252   8.297  0.00  0.00    -0.268 OA
HETATM   31  N   UNK N   1      33.772  16.482   9.494  0.00  0.00    -0.354 N 
HETATM   32  H   UNK N   1      34.420  17.071   9.944  0.00  0.00     0.162 HD
BRANCH  31  33
HETATM   33  C   UNK N   1      33.688  15.210  10.134  0.00  0.00     0.156 C 
BRANCH  33  34
HETATM   34  C   UNK N   1      34.653  15.130  11.312  0.00  0.00     0.159 C 
BRANCH  34  35
HETATM   35  O   UNK N   1      34.343  14.009  12.080  0.00  0.00    -0.392 OA
HETATM   36  H   UNK N   1      33.483  13.942  12.526  0.00  0.00     0.210 HD
ENDBRANCH  34  35
BRANCH  34  37
HETATM   37  C   UNK N   1      36.088  15.002  10.833  0.00  0.00     0.197 C 
BRANCH  37  38
HETATM   38  O   UNK N   1      36.709  16.250  10.811  0.00  0.00    -0.398 OA
HETATM   39  H   UNK N   1      36.277  17.026  10.421  0.00  0.00     0.209 HD
ENDBRANCH  37  38
ENDBRANCH  34  37
ENDBRANCH  33  34
ENDBRANCH  31  33
ENDBRANCH  15  29
ENDBRANCH   5   9
ENDBRANCH   4   5
ENDBRANCH   2   4
BRANCH   2  40
HETATM   40  C   UNK N   1      32.362  11.271   5.284  0.00  0.00     0.197 C 
BRANCH  40  41
HETATM   41  O   UNK N   1      30.992  10.998   5.277  0.00  0.00    -0.398 OA
HETATM   42  H   UNK N   1      30.378  11.145   6.013  0.00  0.00     0.209 HD
ENDBRANCH  40  41
ENDBRANCH   2  40
TORSDOF 17
ENDMDL
MODEL 6
REMARK VINA RESULT:      -6.2      1.197      2.212
REMARK  17 active torsions:
REMARK  status: ('A' for Active; 'I' for Inactive)
REMARK    1  A    between atoms: O_5  and  C_24 
REMARK    2  A    between atoms: O_7  and  C_30 
REMARK    3  A    between atoms: O_8  and  C_31 
REMARK    4  A    between atoms: O_11  and  C_33 
REMARK    5  A    between atoms: O_12  and  C_34 
REMARK    6  A    between atoms: N_13  and  C_16 
REMARK    7  A    between atoms: N_13  and  C_17 
REMARK       I    between atoms: N_13  and  C_25 
REMARK       I    between atoms: N_14  and  C_26 
REMARK    8  A    between atoms: N_14  and  C_28 
REMARK       I    between atoms: N_15  and  C_27 
REMARK    9  A    between atoms: N_15  and  C_29 
REMARK   10  A    between atoms: C_16  and  C_18 
REMARK   11  A    between atoms: C_18  and  C_24 
REMARK   12  A    between atoms: C_21  and  C_27 
REMARK   13  A    between atoms: C_22  and  C_26 
REMARK   14  A    between atoms: C_28  and  C_30 
REMARK   15  A    between atoms: C_29  and  C_31 
REMARK   16  A    between atoms: C_30  and  C_33 
REMARK   17  A    between atoms: C_31  and  C_34 
ROOT
HETATM    1  O   UNK N   1      25.176  15.185   1.684  0.00  0.00    -0.392 OA
HETATM    2  C   UNK N   1      26.143  15.217   2.696  0.00  0.00     0.160 C 
HETATM    3  H   UNK N   1      24.477  15.072   1.022  0.00  0.00     0.210 HD
ENDROOT
BRANCH   2   4
HETATM    4  C   UNK N   1      25.752  14.335   3.912  0.00  0.00     0.166 C 
BRANCH   4   5
HETATM    5  N   UNK N   1      25.682  15.050   5.187  0.00  0.00    -0.313 N 
HETATM    6  C   UNK N   1      26.851  15.404   5.830  0.00  0.00     0.220 C 
HETATM    7  O   UNK N   1      27.935  15.063   5.371  0.00  0.00    -0.273 OA
HETATM    8  C   UNK N   1      26.851  16.260   7.059  0.00  0.00     0.117 C 
BRANCH   5   9
HETATM    9  C   UNK N   1      24.377  15.294   5.792  0.00  0.00     0.072 C 
HETATM   10  C   UNK N   1      23.818  14.326   6.660  0.00  0.00     0.051 C 
HETATM   11  I   UNK N   1      24.786  12.383   6.834  0.00  0.00    -0.041 I 
HETATM   12  C   UNK N   1      22.591  14.576   7.326  0.00  0.00     0.068 C 
HETATM   13  C   UNK N   1      21.873  15.789   7.074  0.00  0.00     0.040 C 
HETATM   14  I   UNK N   1      20.345  16.208   8.517  0.00  0.00    -0.042 I 
HETATM   15  C   UNK N   1      22.286  16.690   6.019  0.00  0.00     0.068 C 
HETATM   16  C   UNK N   1      23.606  16.450   5.456  0.00  0.00     0.051 C 
HETATM   17  I   UNK N   1      24.577  17.956   4.228  0.00  0.00    -0.041 I 
BRANCH  12  18
HETATM   18  C   UNK N   1      22.000  13.507   8.232  0.00  0.00     0.254 C 
HETATM   19  O   UNK N   1      21.093  12.786   7.847  0.00  0.00    -0.268 OA
HETATM   20  N   UNK N   1      22.405  13.423   9.528  0.00  0.00    -0.354 N 
HETATM   21  H   UNK N   1      23.175  13.968   9.811  0.00  0.00     0.162 HD
BRANCH  20  22
HETATM   22  C   UNK N   1      21.767  12.578  10.512  0.00  0.00     0.156 C 
BRANCH  22  23
HETATM   23  C   UNK N   1      22.733  11.623  11.222  0.00  0.00     0.159 C 
BRANCH  23  24
HETATM   24  O   UNK N   1      22.554  11.598  12.604  0.00  0.00    -0.392 OA
HETATM   25  H   UNK N   1      22.933  12.185  13.277  0.00  0.00     0.210 HD
ENDBRANCH  23  24
BRANCH  23  26
HETATM   26  C   UNK N   1      24.167  11.973  10.886  0.00  0.00     0.197 C 
BRANCH  26  27
HETATM   27  O   UNK N   1      24.838  12.342  12.053  0.00  0.00    -0.398 OA
HETATM   28  H   UNK N   1      24.624  12.132  12.976  0.00  0.00     0.209 HD
ENDBRANCH  26  27
ENDBRANCH  23  26
ENDBRANCH  22  23
ENDBRANCH  20  22
ENDBRANCH  12  18
BRANCH  15  29
HETATM   29  C   UNK N   1      21.436  17.849   5.369  0.00  0.00     0.254 C 
HETATM   30  O   UNK N   1      21.384  18.879   6.009  0.00  0.00    -0.268 OA
HETATM   31  N   UNK N   1      20.863  17.972   4.133  0.00  0.00    -0.354 N 
HETATM   32  H   UNK N   1      20.466  18.865   4.005  0.00  0.00     0.162 HD
BRANCH  31  33
HETATM   33  C   UNK N   1      20.688  17.152   2.980  0.00  0.00     0.156 C 
BRANCH  33  34
HETATM   34  C   UNK N   1      20.237  17.984   1.784  0.00  0.00     0.159 C 
BRANCH  34  35
HETATM   35  O   UNK N   1      18.844  17.990   1.732  0.00  0.00    -0.392 OA
HETATM   36  H   UNK N   1      18.383  18.384   0.975  0.00  0.00     0.210 HD
ENDBRANCH  34  35
BRANCH  34  37
HETATM   37  C   UNK N   1      20.719  19.418   1.905  0.00  0.00     0.197 C 
BRANCH  37  38
HETATM   38  O   UNK N   1      19.810  20.179   2.638  0.00  0.00    -0.398 OA
HETATM   39  H   UNK N   1      18.884  20.268   2.364  0.00  0.00     0.209 HD
ENDBRANCH  37  38
ENDBRANCH  34  37
ENDBRANCH  33  34
ENDBRANCH  31  33
ENDBRANCH  15  29
ENDBRANCH   5   9
ENDBRANCH   4   5
ENDBRANCH   2   4
BRANCH   2  40
HETATM   40  C   UNK N   1      27.488  14.763   2.144  0.00  0.00     0.197 C 
BRANCH  40  41
HETATM   41  O   UNK N   1      28.503  15.630   2.554  0.00  0.00    -0.398 OA
HETATM   42  H   UNK N   1      29.429  15.389   2.713  0.00  0.00     0.209 HD
ENDBRANCH  40  41
ENDBRANCH   2  40
TORSDOF 17
ENDMDL
MODEL 7
REMARK VINA RESULT:      -6.1      2.232      5.660
REMARK  17 active torsions:
REMARK  status: ('A' for Active; 'I' for Inactive)
REMARK    1  A    between atoms: O_5  and  C_24 
REMARK    2  A    between atoms: O_7  and  C_30 
REMARK    3  A    between atoms: O_8  and  C_31 
REMARK    4  A    between atoms: O_11  and  C_33 
REMARK    5  A    between atoms: O_12  and  C_34 
REMARK    6  A    between atoms: N_13  and  C_16 
REMARK    7  A    between atoms: N_13  and  C_17 
REMARK       I    between atoms: N_13  and  C_25 
REMARK       I    between atoms: N_14  and  C_26 
REMARK    8  A    between atoms: N_14  and  C_28 
REMARK       I    between atoms: N_15  and  C_27 
REMARK    9  A    between atoms: N_15  and  C_29 
REMARK   10  A    between atoms: C_16  and  C_18 
REMARK   11  A    between atoms: C_18  and  C_24 
REMARK   12  A    between atoms: C_21  and  C_27 
REMARK   13  A    between atoms: C_22  and  C_26 
REMARK   14  A    between atoms: C_28  and  C_30 
REMARK   15  A    between atoms: C_29  and  C_31 
REMARK   16  A    between atoms: C_30  and  C_33 
REMARK   17  A    between atoms: C_31  and  C_34 
ROOT
HETATM    1  O   UNK N   1      20.751  13.013   3.033  0.00  0.00    -0.392 OA
HETATM    2  C   UNK N   1      21.948  13.114   3.753  0.00  0.00     0.160 C 
HETATM    3  H   UNK N   1      19.897  12.866   2.599  0.00  0.00     0.210 HD
ENDROOT
BRANCH   2   4
HETATM    4  C   UNK N   1      21.825  12.533   5.187  0.00  0.00     0.166 C 
BRANCH   4   5
HETATM    5  N   UNK N   1      21.976  13.516   6.259  0.00  0.00    -0.313 N 
HETATM    6  C   UNK N   1      21.481  13.230   7.516  0.00  0.00     0.220 C 
HETATM    7  O   UNK N   1      20.862  12.191   7.713  0.00  0.00    -0.273 OA
HETATM    8  C   UNK N   1      21.731  14.127   8.688  0.00  0.00     0.117 C 
BRANCH   5   9
HETATM    9  C   UNK N   1      22.570  14.814   5.953  0.00  0.00     0.072 C 
HETATM   10  C   UNK N   1      23.977  14.959   5.975  0.00  0.00     0.051 C 
HETATM   11  I   UNK N   1      25.194  13.326   6.743  0.00  0.00    -0.041 I 
HETATM   12  C   UNK N   1      24.582  16.187   5.602  0.00  0.00     0.068 C 
HETATM   13  C   UNK N   1      23.765  17.313   5.260  0.00  0.00     0.040 C 
HETATM   14  I   UNK N   1      24.826  18.880   4.254  0.00  0.00    -0.042 I 
HETATM   15  C   UNK N   1      22.332  17.277   5.458  0.00  0.00     0.068 C 
HETATM   16  C   UNK N   1      21.757  15.967   5.723  0.00  0.00     0.051 C 
HETATM   17  I   UNK N   1      19.614  15.645   5.572  0.00  0.00    -0.041 I 
BRANCH  12  18
HETATM   18  C   UNK N   1      26.095  16.324   5.659  0.00  0.00     0.254 C 
HETATM   19  O   UNK N   1      26.803  15.853   4.784  0.00  0.00    -0.268 OA
HETATM   20  N   UNK N   1      26.681  16.877   6.755  0.00  0.00    -0.354 N 
HETATM   21  H   UNK N   1      26.102  17.304   7.427  0.00  0.00     0.162 HD
BRANCH  20  22
HETATM   22  C   UNK N   1      28.108  16.870   6.988  0.00  0.00     0.156 C 
BRANCH  22  23
HETATM   23  C   UNK N   1      28.503  17.344   8.391  0.00  0.00     0.159 C 
BRANCH  23  24
HETATM   24  O   UNK N   1      27.429  17.371   9.279  0.00  0.00    -0.392 OA
HETATM   25  H   UNK N   1      27.195  18.052   9.929  0.00  0.00     0.210 HD
ENDBRANCH  23  24
BRANCH  23  26
HETATM   26  C   UNK N   1      29.163  18.704   8.325  0.00  0.00     0.197 C 
BRANCH  26  27
HETATM   27  O   UNK N   1      30.334  18.688   9.084  0.00  0.00    -0.398 OA
HETATM   28  H   UNK N   1      31.041  19.350   9.136  0.00  0.00     0.209 HD
ENDBRANCH  26  27
ENDBRANCH  23  26
ENDBRANCH  22  23
ENDBRANCH  20  22
ENDBRANCH  12  18
BRANCH  15  29
HETATM   29  C   UNK N   1      21.343  18.506   5.488  0.00  0.00     0.254 C 
HETATM   30  O   UNK N   1      21.165  19.003   6.581  0.00  0.00    -0.268 OA
HETATM   31  N   UNK N   1      20.758  19.227   4.484  0.00  0.00    -0.354 N 
HETATM   32  H   UNK N   1      20.253  19.995   4.837  0.00  0.00     0.162 HD
BRANCH  31  33
HETATM   33  C   UNK N   1      20.685  19.161   3.061  0.00  0.00     0.156 C 
BRANCH  33  34
HETATM   34  C   UNK N   1      19.670  18.114   2.617  0.00  0.00     0.159 C 
BRANCH  34  35
HETATM   35  O   UNK N   1      18.440  18.733   2.400  0.00  0.00    -0.392 OA
HETATM   36  H   UNK N   1      18.335  19.684   2.560  0.00  0.00     0.210 HD
ENDBRANCH  34  35
BRANCH  34  37
HETATM   37  C   UNK N   1      20.106  17.447   1.324  0.00  0.00     0.197 C 
BRANCH  37  38
HETATM   38  O   UNK N   1      19.007  17.218   0.498  0.00  0.00    -0.398 OA
HETATM   39  H   UNK N   1      18.991  17.522  -0.423  0.00  0.00     0.209 HD
ENDBRANCH  37  38
ENDBRANCH  34  37
ENDBRANCH  33  34
ENDBRANCH  31  33
ENDBRANCH  15  29
ENDBRANCH   5   9
ENDBRANCH   4   5
ENDBRANCH   2   4
BRANCH   2  40
HETATM   40  C   UNK N   1      23.065  12.400   3.004  0.00  0.00     0.197 C 
BRANCH  40  41
HETATM   41  O   UNK N   1      24.186  13.226   2.892  0.00  0.00    -0.398 OA
HETATM   42  H   UNK N   1      24.996  13.025   2.398  0.00  0.00     0.209 HD
ENDBRANCH  40  41
ENDBRANCH   2  40
TORSDOF 17
ENDMDL
MODEL 8
REMARK VINA RESULT:      -6.1      2.802      5.649
REMARK  17 active torsions:
REMARK  status: ('A' for Active; 'I' for Inactive)
REMARK    1  A    between atoms: O_5  and  C_24 
REMARK    2  A    between atoms: O_7  and  C_30 
REMARK    3  A    between atoms: O_8  and  C_31 
REMARK    4  A    between atoms: O_11  and  C_33 
REMARK    5  A    between atoms: O_12  and  C_34 
REMARK    6  A    between atoms: N_13  and  C_16 
REMARK    7  A    between atoms: N_13  and  C_17 
REMARK       I    between atoms: N_13  and  C_25 
REMARK       I    between atoms: N_14  and  C_26 
REMARK    8  A    between atoms: N_14  and  C_28 
REMARK       I    between atoms: N_15  and  C_27 
REMARK    9  A    between atoms: N_15  and  C_29 
REMARK   10  A    between atoms: C_16  and  C_18 
REMARK   11  A    between atoms: C_18  and  C_24 
REMARK   12  A    between atoms: C_21  and  C_27 
REMARK   13  A    between atoms: C_22  and  C_26 
REMARK   14  A    between atoms: C_28  and  C_30 
REMARK   15  A    between atoms: C_29  and  C_31 
REMARK   16  A    between atoms: C_30  and  C_33 
REMARK   17  A    between atoms: C_31  and  C_34 
ROOT
HETATM    1  O   UNK N   1      22.286  14.498   0.761  0.00  0.00    -0.392 OA
HETATM    2  C   UNK N   1      23.230  13.964   1.646  0.00  0.00     0.160 C 
HETATM    3  H   UNK N   1      21.572  14.787   0.172  0.00  0.00     0.210 HD
ENDROOT
BRANCH   2   4
HETATM    4  C   UNK N   1      22.585  13.023   2.699  0.00  0.00     0.166 C 
BRANCH   4   5
HETATM    5  N   UNK N   1      22.499  13.583   4.047  0.00  0.00    -0.313 N 
HETATM    6  C   UNK N   1      21.881  12.856   5.045  0.00  0.00     0.220 C 
HETATM    7  O   UNK N   1      21.350  11.782   4.787  0.00  0.00    -0.273 OA
HETATM    8  C   UNK N   1      21.887  13.306   6.473  0.00  0.00     0.117 C 
BRANCH   5   9
HETATM    9  C   UNK N   1      22.991  14.936   4.286  0.00  0.00     0.072 C 
HETATM   10  C   UNK N   1      24.352  15.134   4.621  0.00  0.00     0.051 C 
HETATM   11  I   UNK N   1      25.595  13.399   5.050  0.00  0.00    -0.041 I 
HETATM   12  C   UNK N   1      24.874  16.444   4.777  0.00  0.00     0.068 C 
HETATM   13  C   UNK N   1      24.008  17.579   4.660  0.00  0.00     0.040 C 
HETATM   14  I   UNK N   1      25.044  19.439   4.423  0.00  0.00    -0.042 I 
HETATM   15  C   UNK N   1      22.574  17.410   4.559  0.00  0.00     0.068 C 
HETATM   16  C   UNK N   1      22.108  16.060   4.282  0.00  0.00     0.051 C 
HETATM   17  I   UNK N   1      20.067  15.703   3.631  0.00  0.00    -0.041 I 
BRANCH  12  18
HETATM   18  C   UNK N   1      26.333  16.627   5.162  0.00  0.00     0.254 C 
HETATM   19  O   UNK N   1      27.219  16.558   4.325  0.00  0.00    -0.268 OA
HETATM   20  N   UNK N   1      26.674  16.755   6.473  0.00  0.00    -0.354 N 
HETATM   21  H   UNK N   1      25.952  16.866   7.133  0.00  0.00     0.162 HD
BRANCH  20  22
HETATM   22  C   UNK N   1      28.038  16.735   6.950  0.00  0.00     0.156 C 
BRANCH  22  23
HETATM   23  C   UNK N   1      28.274  17.624   8.176  0.00  0.00     0.159 C 
BRANCH  23  24
HETATM   24  O   UNK N   1      27.445  17.300   9.249  0.00  0.00    -0.392 OA
HETATM   25  H   UNK N   1      26.499  17.482   9.364  0.00  0.00     0.210 HD
ENDBRANCH  23  24
BRANCH  23  26
HETATM   26  C   UNK N   1      28.111  19.084   7.811  0.00  0.00     0.197 C 
BRANCH  26  27
HETATM   27  O   UNK N   1      28.253  19.233   6.431  0.00  0.00    -0.398 OA
HETATM   28  H   UNK N   1      27.862  18.710   5.713  0.00  0.00     0.209 HD
ENDBRANCH  26  27
ENDBRANCH  23  26
ENDBRANCH  22  23
ENDBRANCH  20  22
ENDBRANCH  12  18
BRANCH  15  29
HETATM   29  C   UNK N   1      21.467  18.511   4.788  0.00  0.00     0.254 C 
HETATM   30  O   UNK N   1      21.261  18.809   5.946  0.00  0.00    -0.268 OA
HETATM   31  N   UNK N   1      20.792  19.316   3.912  0.00  0.00    -0.354 N 
HETATM   32  H   UNK N   1      20.219  19.963   4.384  0.00  0.00     0.162 HD
BRANCH  31  33
HETATM   33  C   UNK N   1      20.698  19.468   2.497  0.00  0.00     0.156 C 
BRANCH  33  34
HETATM   34  C   UNK N   1      20.859  20.930   2.096  0.00  0.00     0.159 C 
BRANCH  34  35
HETATM   35  O   UNK N   1      21.806  21.530   2.925  0.00  0.00    -0.392 OA
HETATM   36  H   UNK N   1      22.144  21.060   3.703  0.00  0.00     0.210 HD
ENDBRANCH  34  35
BRANCH  34  37
HETATM   37  C   UNK N   1      21.334  21.051   0.658  0.00  0.00     0.197 C 
BRANCH  37  38
HETATM   38  O   UNK N   1      20.494  20.339  -0.196  0.00  0.00    -0.398 OA
HETATM   39  H   UNK N   1      20.379  19.379  -0.112  0.00  0.00     0.209 HD
ENDBRANCH  37  38
ENDBRANCH  34  37
ENDBRANCH  33  34
ENDBRANCH  31  33
ENDBRANCH  15  29
ENDBRANCH   5   9
ENDBRANCH   4   5
ENDBRANCH   2   4
BRANCH   2  40
HETATM   40  C   UNK N   1      24.300  13.208   0.869  0.00  0.00     0.197 C 
BRANCH  40  41
HETATM   41  O   UNK N   1      23.813  11.970   0.443  0.00  0.00    -0.398 OA
HETATM   42  H   UNK N   1      23.969  11.563  -0.423  0.00  0.00     0.209 HD
ENDBRANCH  40  41
ENDBRANCH   2  40
TORSDOF 17
ENDMDL
MODEL 9
REMARK VINA RESULT:      -5.9      2.568      5.681
REMARK  17 active torsions:
REMARK  status: ('A' for Active; 'I' for Inactive)
REMARK    1  A    between atoms: O_5  and  C_24 
REMARK    2  A    between atoms: O_7  and  C_30 
REMARK    3  A    between atoms: O_8  and  C_31 
REMARK    4  A    between atoms: O_11  and  C_33 
REMARK    5  A    between atoms: O_12  and  C_34 
REMARK    6  A    between atoms: N_13  and  C_16 
REMARK    7  A    between atoms: N_13  and  C_17 
REMARK       I    between atoms: N_13  and  C_25 
REMARK       I    between atoms: N_14  and  C_26 
REMARK    8  A    between atoms: N_14  and  C_28 
REMARK       I    between atoms: N_15  and  C_27 
REMARK    9  A    between atoms: N_15  and  C_29 
REMARK   10  A    between atoms: C_16  and  C_18 
REMARK   11  A    between atoms: C_18  and  C_24 
REMARK   12  A    between atoms: C_21  and  C_27 
REMARK   13  A    between atoms: C_22  and  C_26 
REMARK   14  A    between atoms: C_28  and  C_30 
REMARK   15  A    between atoms: C_29  and  C_31 
REMARK   16  A    between atoms: C_30  and  C_33 
REMARK   17  A    between atoms: C_31  and  C_34 
ROOT
HETATM    1  O   UNK N   1      24.655  10.641   5.624  0.00  0.00    -0.392 OA
HETATM    2  C   UNK N   1      24.352  11.975   5.924  0.00  0.00     0.160 C 
HETATM    3  H   UNK N   1      24.769   9.712   5.374  0.00  0.00     0.210 HD
ENDROOT
BRANCH   2   4
HETATM    4  C   UNK N   1      23.243  12.550   5.004  0.00  0.00     0.166 C 
BRANCH   4   5
HETATM    5  N   UNK N   1      23.734  13.333   3.871  0.00  0.00    -0.313 N 
HETATM    6  C   UNK N   1      24.171  12.680   2.735  0.00  0.00     0.220 C 
HETATM    7  O   UNK N   1      24.208  11.456   2.703  0.00  0.00    -0.273 OA
HETATM    8  C   UNK N   1      24.547  13.422   1.490  0.00  0.00     0.117 C 
BRANCH   5   9
HETATM    9  C   UNK N   1      23.835  14.783   4.000  0.00  0.00     0.072 C 
HETATM   10  C   UNK N   1      25.082  15.369   4.324  0.00  0.00     0.051 C 
HETATM   11  I   UNK N   1      26.736  14.077   4.902  0.00  0.00    -0.041 I 
HETATM   12  C   UNK N   1      25.224  16.780   4.374  0.00  0.00     0.068 C 
HETATM   13  C   UNK N   1      24.087  17.623   4.158  0.00  0.00     0.040 C 
HETATM   14  I   UNK N   1      24.588  19.671   3.773  0.00  0.00    -0.042 I 
HETATM   15  C   UNK N   1      22.756  17.064   4.065  0.00  0.00     0.068 C 
HETATM   16  C   UNK N   1      22.681  15.620   3.898  0.00  0.00     0.051 C 
HETATM   17  I   UNK N   1      20.831  14.672   3.268  0.00  0.00    -0.041 I 
BRANCH  12  18
HETATM   18  C   UNK N   1      26.569  17.382   4.750  0.00  0.00     0.254 C 
HETATM   19  O   UNK N   1      27.437  17.559   3.909  0.00  0.00    -0.268 OA
HETATM   20  N   UNK N   1      26.858  17.623   6.057  0.00  0.00    -0.354 N 
HETATM   21  H   UNK N   1      26.134  17.531   6.718  0.00  0.00     0.162 HD
BRANCH  20  22
HETATM   22  C   UNK N   1      28.170  18.005   6.529  0.00  0.00     0.156 C 
BRANCH  22  23
HETATM   23  C   UNK N   1      28.166  19.264   7.403  0.00  0.00     0.159 C 
BRANCH  23  24
HETATM   24  O   UNK N   1      27.522  19.075   8.625  0.00  0.00    -0.392 OA
HETATM   25  H   UNK N   1      26.574  19.108   8.824  0.00  0.00     0.210 HD
ENDBRANCH  23  24
BRANCH  23  26
HETATM   26  C   UNK N   1      27.543  20.425   6.658  0.00  0.00     0.197 C 
BRANCH  26  27
HETATM   27  O   UNK N   1      27.993  20.421   5.337  0.00  0.00    -0.398 OA
HETATM   28  H   UNK N   1      28.303  21.162   4.792  0.00  0.00     0.209 HD
ENDBRANCH  26  27
ENDBRANCH  23  26
ENDBRANCH  22  23
ENDBRANCH  20  22
ENDBRANCH  12  18
BRANCH  15  29
HETATM   29  C   UNK N   1      21.387  17.836   4.196  0.00  0.00     0.254 C 
HETATM   30  O   UNK N   1      21.058  18.124   5.328  0.00  0.00    -0.268 OA
HETATM   31  N   UNK N   1      20.560  18.387   3.255  0.00  0.00    -0.354 N 
HETATM   32  H   UNK N   1      19.815  18.878   3.671  0.00  0.00     0.162 HD
BRANCH  31  33
HETATM   33  C   UNK N   1      20.491  18.438   1.832  0.00  0.00     0.156 C 
BRANCH  33  34
HETATM   34  C   UNK N   1      21.042  19.760   1.308  0.00  0.00     0.159 C 
BRANCH  34  35
HETATM   35  O   UNK N   1      20.640  19.930  -0.016  0.00  0.00    -0.392 OA
HETATM   36  H   UNK N   1      20.174  19.218  -0.482  0.00  0.00     0.210 HD
ENDBRANCH  34  35
BRANCH  34  37
HETATM   37  C   UNK N   1      20.518  20.930   2.123  0.00  0.00     0.197 C 
BRANCH  37  38
HETATM   38  O   UNK N   1      21.550  21.523   2.847  0.00  0.00    -0.398 OA
HETATM   39  H   UNK N   1      22.291  21.966   2.405  0.00  0.00     0.209 HD
ENDBRANCH  37  38
ENDBRANCH  34  37
ENDBRANCH  33  34
ENDBRANCH  31  33
ENDBRANCH  15  29
ENDBRANCH   5   9
ENDBRANCH   4   5
ENDBRANCH   2   4
BRANCH   2  40
HETATM   40  C   UNK N   1      23.924  12.094   7.381  0.00  0.00     0.197 C 
BRANCH  40  41
HETATM   41  O   UNK N   1      22.802  12.919   7.496  0.00  0.00    -0.398 OA
HETATM   42  H   UNK N   1      21.989  12.711   7.981  0.00  0.00     0.209 HD
ENDBRANCH  40  41
ENDBRANCH   2  40
TORSDOF 17
ENDMDL
