MODEL 1
REMARK VINA RESULT:      -5.0      0.000      0.000
REMARK  4 active torsions:
REMARK  status: ('A' for Active; 'I' for Inactive)
REMARK    1  A    between atoms: C_4  and  O_1 
REMARK    2  A    between atoms: C_3  and  N_2 
REMARK    3  A    between atoms: C_3  and  C_4 
REMARK    4  A    between atoms: C_4  and  C_5 
ROOT
HETATM    1  C   UNK N   1      35.066  13.341  15.809  0.00  0.00     0.173 C 
ENDROOT
BRANCH   1   2
HETATM    2  O   UNK N   1      34.166  12.613  15.020  0.00  0.00    -0.389 OA
HETATM    3  H   UNK N   1      34.169  12.701  14.054  0.00  0.00     0.210 HD
ENDBRANCH   1   2
BRANCH   1   4
HETATM    4  C   UNK N   1      36.340  13.622  14.994  0.00  0.00     0.105 C 
HETATM    5  C   UNK N   1      37.137  14.773  15.597  0.00  0.00     0.035 C 
BRANCH   4   6
HETATM    6  N   UNK N   1      35.967  13.973  13.627  0.00  0.00    -0.419 N 
HETATM    7  C   UNK N   1      36.738  13.146  12.709  0.00  0.00     0.140 C 
HETATM    8  H   UNK N   1      35.280  14.679  13.359  0.00  0.00     0.153 HD
ENDBRANCH   4   6
ENDBRANCH   1   4
BRANCH   1   9
HETATM    9  C   UNK N   1      35.303  12.629  17.128  0.00  0.00    -0.028 A 
HETATM   10  C   UNK N   1      35.111  13.305  18.342  0.00  0.00     0.010 A 
HETATM   11  C   UNK N   1      35.292  12.644  19.561  0.00  0.00     0.001 A 
HETATM   12  C   UNK N   1      35.653  11.295  19.577  0.00  0.00     0.000 A 
HETATM   13  C   UNK N   1      35.836  10.608  18.375  0.00  0.00     0.001 A 
HETATM   14  C   UNK N   1      35.661  11.270  17.157  0.00  0.00     0.010 A 
ENDBRANCH   1   9
TORSDOF 4
ENDMDL
MODEL 2
REMARK VINA RESULT:      -4.9      7.719     11.032
REMARK  4 active torsions:
REMARK  status: ('A' for Active; 'I' for Inactive)
REMARK    1  A    between atoms: C_4  and  O_1 
REMARK    2  A    between atoms: C_3  and  N_2 
REMARK    3  A    between atoms: C_3  and  C_4 
REMARK    4  A    between atoms: C_4  and  C_5 
ROOT
HETATM    1  C   UNK N   1      33.927  18.000   8.527  0.00  0.00     0.173 C 
ENDROOT
BRANCH   1   2
HETATM    2  O   UNK N   1      34.859  19.014   8.270  0.00  0.00    -0.389 OA
HETATM    3  H   UNK N   1      34.572  19.929   8.124  0.00  0.00     0.210 HD
ENDBRANCH   1   2
BRANCH   1   4
HETATM    4  C   UNK N   1      34.650  16.801   9.165  0.00  0.00     0.105 C 
HETATM    5  C   UNK N   1      33.742  15.578   9.224  0.00  0.00     0.035 C 
BRANCH   4   6
HETATM    6  N   UNK N   1      35.055  17.152  10.523  0.00  0.00    -0.419 N 
HETATM    7  C   UNK N   1      35.843  16.057  11.070  0.00  0.00     0.140 C 
HETATM    8  H   UNK N   1      34.824  18.020  11.008  0.00  0.00     0.153 HD
ENDBRANCH   4   6
ENDBRANCH   1   4
BRANCH   1   9
HETATM    9  C   UNK N   1      33.147  17.672   7.268  0.00  0.00    -0.028 A 
HETATM   10  C   UNK N   1      33.811  17.533   6.041  0.00  0.00     0.010 A 
HETATM   11  C   UNK N   1      33.103  17.194   4.883  0.00  0.00     0.001 A 
HETATM   12  C   UNK N   1      31.725  16.976   4.946  0.00  0.00     0.000 A 
HETATM   13  C   UNK N   1      31.055  17.101   6.165  0.00  0.00     0.001 A 
HETATM   14  C   UNK N   1      31.761  17.446   7.320  0.00  0.00     0.010 A 
ENDBRANCH   1   9
TORSDOF 4
ENDMDL
MODEL 3
REMARK VINA RESULT:      -4.9      2.182      3.251
REMARK  4 active torsions:
REMARK  status: ('A' for Active; 'I' for Inactive)
REMARK    1  A    between atoms: C_4  and  O_1 
REMARK    2  A    between atoms: C_3  and  N_2 
REMARK    3  A    between atoms: C_3  and  C_4 
REMARK    4  A    between atoms: C_4  and  C_5 
ROOT
HETATM    1  C   UNK N   1      36.662  12.910  14.340  0.00  0.00     0.173 C 
ENDROOT
BRANCH   1   2
HETATM    2  O   UNK N   1      37.916  12.286  14.305  0.00  0.00    -0.389 OA
HETATM    3  H   UNK N   1      38.731  12.801  14.404  0.00  0.00     0.210 HD
ENDBRANCH   1   2
BRANCH   1   4
HETATM    4  C   UNK N   1      36.445  13.678  13.025  0.00  0.00     0.105 C 
HETATM    5  C   UNK N   1      35.085  13.354  12.416  0.00  0.00     0.035 C 
BRANCH   4   6
HETATM    6  N   UNK N   1      37.488  13.305  12.074  0.00  0.00    -0.419 N 
HETATM    7  C   UNK N   1      37.081  13.740  10.745  0.00  0.00     0.140 C 
HETATM    8  H   UNK N   1      38.357  12.821  12.302  0.00  0.00     0.153 HD
ENDBRANCH   4   6
ENDBRANCH   1   4
BRANCH   1   9
HETATM    9  C   UNK N   1      36.530  13.754  15.594  0.00  0.00    -0.028 A 
HETATM   10  C   UNK N   1      37.257  14.947  15.723  0.00  0.00     0.010 A 
HETATM   11  C   UNK N   1      37.112  15.749  16.860  0.00  0.00     0.001 A 
HETATM   12  C   UNK N   1      36.227  15.372  17.872  0.00  0.00     0.000 A 
HETATM   13  C   UNK N   1      35.490  14.192  17.750  0.00  0.00     0.001 A 
HETATM   14  C   UNK N   1      35.640  13.388  16.617  0.00  0.00     0.010 A 
ENDBRANCH   1   9
TORSDOF 4
ENDMDL
MODEL 4
REMARK VINA RESULT:      -4.7      1.543      2.418
REMARK  4 active torsions:
REMARK  status: ('A' for Active; 'I' for Inactive)
REMARK    1  A    between atoms: C_4  and  O_1 
REMARK    2  A    between atoms: C_3  and  N_2 
REMARK    3  A    between atoms: C_3  and  C_4 
REMARK    4  A    between atoms: C_4  and  C_5 
ROOT
HETATM    1  C   UNK N   1      36.782  13.315  14.874  0.00  0.00     0.173 C 
ENDROOT
BRANCH   1   2
HETATM    2  O   UNK N   1      37.587  14.388  15.279  0.00  0.00    -0.389 OA
HETATM    3  H   UNK N   1      37.381  15.295  15.007  0.00  0.00     0.210 HD
ENDBRANCH   1   2
BRANCH   1   4
HETATM    4  C   UNK N   1      35.739  13.822  13.863  0.00  0.00     0.105 C 
HETATM    5  C   UNK N   1      34.988  12.663  13.217  0.00  0.00     0.035 C 
BRANCH   4   6
HETATM    6  N   UNK N   1      36.416  14.584  12.817  0.00  0.00    -0.419 N 
HETATM    7  C   UNK N   1      36.757  13.677  11.730  0.00  0.00     0.140 C 
HETATM    8  H   UNK N   1      36.616  15.584  12.843  0.00  0.00     0.153 HD
ENDBRANCH   4   6
ENDBRANCH   1   4
BRANCH   1   9
HETATM    9  C   UNK N   1      36.198  12.609  16.083  0.00  0.00    -0.028 A 
HETATM   10  C   UNK N   1      36.349  11.223  16.234  0.00  0.00     0.010 A 
HETATM   11  C   UNK N   1      35.846  10.571  17.364  0.00  0.00     0.001 A 
HETATM   12  C   UNK N   1      35.199  11.303  18.362  0.00  0.00     0.000 A 
HETATM   13  C   UNK N   1      35.053  12.685  18.229  0.00  0.00     0.001 A 
HETATM   14  C   UNK N   1      35.550  13.336  17.096  0.00  0.00     0.010 A 
ENDBRANCH   1   9
TORSDOF 4
ENDMDL
MODEL 5
REMARK VINA RESULT:      -4.7      1.842      2.358
REMARK  4 active torsions:
REMARK  status: ('A' for Active; 'I' for Inactive)
REMARK    1  A    between atoms: C_4  and  O_1 
REMARK    2  A    between atoms: C_3  and  N_2 
REMARK    3  A    between atoms: C_3  and  C_4 
REMARK    4  A    between atoms: C_4  and  C_5 
ROOT
HETATM    1  C   UNK N   1      35.703  11.955  15.123  0.00  0.00     0.173 C 
ENDROOT
BRANCH   1   2
HETATM    2  O   UNK N   1      36.565  12.926  14.596  0.00  0.00    -0.389 OA
HETATM    3  H   UNK N   1      37.400  12.673  14.174  0.00  0.00     0.210 HD
ENDBRANCH   1   2
BRANCH   1   4
HETATM    4  C   UNK N   1      34.366  12.002  14.365  0.00  0.00     0.105 C 
HETATM    5  C   UNK N   1      33.615  10.681  14.488  0.00  0.00     0.035 C 
BRANCH   4   6
HETATM    6  N   UNK N   1      34.625  12.266  12.952  0.00  0.00    -0.419 N 
HETATM    7  C   UNK N   1      34.604  11.000  12.233  0.00  0.00     0.140 C 
HETATM    8  H   UNK N   1      34.791  13.184  12.539  0.00  0.00     0.153 HD
ENDBRANCH   4   6
ENDBRANCH   1   4
BRANCH   1   9
HETATM    9  C   UNK N   1      35.584  12.119  16.627  0.00  0.00    -0.028 A 
HETATM   10  C   UNK N   1      35.311  13.379  17.181  0.00  0.00     0.010 A 
HETATM   11  C   UNK N   1      35.163  13.530  18.564  0.00  0.00     0.001 A 
HETATM   12  C   UNK N   1      35.271  12.420  19.404  0.00  0.00     0.000 A 
HETATM   13  C   UNK N   1      35.531  11.159  18.862  0.00  0.00     0.001 A 
HETATM   14  C   UNK N   1      35.686  11.009  17.481  0.00  0.00     0.010 A 
ENDBRANCH   1   9
TORSDOF 4
ENDMDL
MODEL 6
REMARK VINA RESULT:      -4.7      8.478     11.986
REMARK  4 active torsions:
REMARK  status: ('A' for Active; 'I' for Inactive)
REMARK    1  A    between atoms: C_4  and  O_1 
REMARK    2  A    between atoms: C_3  and  N_2 
REMARK    3  A    between atoms: C_3  and  C_4 
REMARK    4  A    between atoms: C_4  and  C_5 
ROOT
HETATM    1  C   UNK N   1      33.485  17.664   7.075  0.00  0.00     0.173 C 
ENDROOT
BRANCH   1   2
HETATM    2  O   UNK N   1      34.690  18.365   7.211  0.00  0.00    -0.389 OA
HETATM    3  H   UNK N   1      34.966  18.718   8.071  0.00  0.00     0.210 HD
ENDBRANCH   1   2
BRANCH   1   4
HETATM    4  C   UNK N   1      33.328  16.695   8.260  0.00  0.00     0.105 C 
HETATM    5  C   UNK N   1      31.859  16.396   8.537  0.00  0.00     0.035 C 
BRANCH   4   6
HETATM    6  N   UNK N   1      33.919  17.296   9.452  0.00  0.00    -0.419 N 
HETATM    7  C   UNK N   1      34.863  16.350  10.029  0.00  0.00     0.140 C 
HETATM    8  H   UNK N   1      33.706  18.225   9.819  0.00  0.00     0.153 HD
ENDBRANCH   4   6
ENDBRANCH   1   4
BRANCH   1   9
HETATM    9  C   UNK N   1      33.408  17.009   5.709  0.00  0.00    -0.028 A 
HETATM   10  C   UNK N   1      32.758  17.659   4.649  0.00  0.00     0.010 A 
HETATM   11  C   UNK N   1      32.716  17.078   3.377  0.00  0.00     0.001 A 
HETATM   12  C   UNK N   1      33.336  15.847   3.150  0.00  0.00     0.000 A 
HETATM   13  C   UNK N   1      33.996  15.196   4.195  0.00  0.00     0.001 A 
HETATM   14  C   UNK N   1      34.032  15.774   5.467  0.00  0.00     0.010 A 
ENDBRANCH   1   9
TORSDOF 4
ENDMDL
MODEL 7
REMARK VINA RESULT:      -4.5     23.695     26.000
REMARK  4 active torsions:
REMARK  status: ('A' for Active; 'I' for Inactive)
REMARK    1  A    between atoms: C_4  and  O_1 
REMARK    2  A    between atoms: C_3  and  N_2 
REMARK    3  A    between atoms: C_3  and  C_4 
REMARK    4  A    between atoms: C_4  and  C_5 
ROOT
HETATM    1  C   UNK N   1      26.970  24.157  -3.816  0.00  0.00     0.173 C 
ENDROOT
BRANCH   1   2
HETATM    2  O   UNK N   1      27.008  23.994  -2.425  0.00  0.00    -0.389 OA
HETATM    3  H   UNK N   1      27.656  24.473  -1.885  0.00  0.00     0.210 HD
ENDBRANCH   1   2
BRANCH   1   4
HETATM    4  C   UNK N   1      28.392  24.000  -4.381  0.00  0.00     0.105 C 
HETATM    5  C   UNK N   1      29.290  23.240  -3.412  0.00  0.00     0.035 C 
BRANCH   4   6
HETATM    6  N   UNK N   1      28.964  25.324  -4.614  0.00  0.00    -0.419 N 
HETATM    7  C   UNK N   1      30.132  25.480  -3.759  0.00  0.00     0.140 C 
HETATM    8  H   UNK N   1      28.605  26.021  -5.267  0.00  0.00     0.153 HD
ENDBRANCH   4   6
ENDBRANCH   1   4
BRANCH   1   9
HETATM    9  C   UNK N   1      26.288  25.463  -4.174  0.00  0.00    -0.028 A 
HETATM   10  C   UNK N   1      26.357  26.560  -3.301  0.00  0.00     0.010 A 
HETATM   11  C   UNK N   1      25.763  27.779  -3.642  0.00  0.00     0.001 A 
HETATM   12  C   UNK N   1      25.104  27.917  -4.866  0.00  0.00     0.000 A 
HETATM   13  C   UNK N   1      25.038  26.836  -5.747  0.00  0.00     0.001 A 
HETATM   14  C   UNK N   1      25.627  25.616  -5.404  0.00  0.00     0.010 A 
ENDBRANCH   1   9
TORSDOF 4
ENDMDL
MODEL 8
REMARK VINA RESULT:      -4.4     15.031     16.398
REMARK  4 active torsions:
REMARK  status: ('A' for Active; 'I' for Inactive)
REMARK    1  A    between atoms: C_4  and  O_1 
REMARK    2  A    between atoms: C_3  and  N_2 
REMARK    3  A    between atoms: C_3  and  C_4 
REMARK    4  A    between atoms: C_4  and  C_5 
ROOT
HETATM    1  C   UNK N   1      21.095  12.808   9.742  0.00  0.00     0.173 C 
ENDROOT
BRANCH   1   2
HETATM    2  O   UNK N   1      19.988  12.867  10.598  0.00  0.00    -0.389 OA
HETATM    3  H   UNK N   1      19.092  12.978  10.244  0.00  0.00     0.210 HD
ENDBRANCH   1   2
BRANCH   1   4
HETATM    4  C   UNK N   1      22.362  12.543  10.573  0.00  0.00     0.105 C 
HETATM    5  C   UNK N   1      23.331  11.633   9.827  0.00  0.00     0.035 C 
BRANCH   4   6
HETATM    6  N   UNK N   1      21.986  11.899  11.829  0.00  0.00    -0.419 N 
HETATM    7  C   UNK N   1      23.140  11.903  12.716  0.00  0.00     0.140 C 
HETATM    8  H   UNK N   1      21.067  11.513  12.048  0.00  0.00     0.153 HD
ENDBRANCH   4   6
ENDBRANCH   1   4
BRANCH   1   9
HETATM    9  C   UNK N   1      21.157  14.052   8.875  0.00  0.00    -0.028 A 
HETATM   10  C   UNK N   1      20.351  15.161   9.172  0.00  0.00     0.010 A 
HETATM   11  C   UNK N   1      20.430  16.324   8.400  0.00  0.00     0.001 A 
HETATM   12  C   UNK N   1      21.327  16.395   7.332  0.00  0.00     0.000 A 
HETATM   13  C   UNK N   1      22.143  15.301   7.034  0.00  0.00     0.001 A 
HETATM   14  C   UNK N   1      22.059  14.136   7.801  0.00  0.00     0.010 A 
ENDBRANCH   1   9
TORSDOF 4
ENDMDL
MODEL 9
REMARK VINA RESULT:      -4.4     14.508     15.820
REMARK  4 active torsions:
REMARK  status: ('A' for Active; 'I' for Inactive)
REMARK    1  A    between atoms: C_4  and  O_1 
REMARK    2  A    between atoms: C_3  and  N_2 
REMARK    3  A    between atoms: C_3  and  C_4 
REMARK    4  A    between atoms: C_4  and  C_5 
ROOT
HETATM    1  C   UNK N   1      21.756  11.841  10.603  0.00  0.00     0.173 C 
ENDROOT
BRANCH   1   2
HETATM    2  O   UNK N   1      20.906  11.971  11.709  0.00  0.00    -0.389 OA
HETATM    3  H   UNK N   1      21.199  11.708  12.596  0.00  0.00     0.210 HD
ENDBRANCH   1   2
BRANCH   1   4
HETATM    4  C   UNK N   1      23.217  11.943  11.075  0.00  0.00     0.105 C 
HETATM    5  C   UNK N   1      23.309  11.917  12.596  0.00  0.00     0.035 C 
BRANCH   4   6
HETATM    6  N   UNK N   1      23.791  13.195  10.590  0.00  0.00    -0.419 N 
HETATM    7  C   UNK N   1      25.065  12.903   9.948  0.00  0.00     0.140 C 
HETATM    8  H   UNK N   1      23.370  14.120  10.685  0.00  0.00     0.153 HD
ENDBRANCH   4   6
ENDBRANCH   1   4
BRANCH   1   9
HETATM    9  C   UNK N   1      21.370  12.835   9.524  0.00  0.00    -0.028 A 
HETATM   10  C   UNK N   1      21.593  12.532   8.172  0.00  0.00     0.010 A 
HETATM   11  C   UNK N   1      21.205  13.427   7.170  0.00  0.00     0.001 A 
HETATM   12  C   UNK N   1      20.578  14.628   7.509  0.00  0.00     0.000 A 
HETATM   13  C   UNK N   1      20.340  14.935   8.851  0.00  0.00     0.001 A 
HETATM   14  C   UNK N   1      20.733  14.043   9.853  0.00  0.00     0.010 A 
ENDBRANCH   1   9
TORSDOF 4
ENDMDL
