REMARK  4 active torsions:
REMARK  status: ('A' for Active; 'I' for Inactive)
REMARK    1  A    between atoms: C_4  and  O_1 
REMARK    2  A    between atoms: C_3  and  N_2 
REMARK    3  A    between atoms: C_3  and  C_4 
REMARK    4  A    between atoms: C_4  and  C_5 
ROOT
HETATM    1  C   UNK N   1       2.262   1.002   0.569  0.00  0.00     0.173 C 
ENDROOT
BRANCH   1   2
HETATM    2  O   UNK N   1       1.095   1.742   0.340  0.00  0.00    -0.389 OA
HETATM    3  H   UNK N   1       1.135   2.698   0.182  0.00  0.00     0.210 HD
ENDBRANCH   1   2
BRANCH   1   4
HETATM    4  C   UNK N   1       3.433   1.662  -0.179  0.00  0.00     0.105 C 
HETATM    5  C   UNK N   1       4.758   0.995   0.172  0.00  0.00     0.035 C 
BRANCH   4   6
HETATM    6  N   UNK N   1       3.504   3.073   0.191  0.00  0.00    -0.419 N 
HETATM    7  C   UNK N   1       4.305   3.773  -0.803  0.00  0.00     0.140 C 
HETATM    8  H   UNK N   1       3.065   3.497   1.009  0.00  0.00     0.153 HD
ENDBRANCH   4   6
ENDBRANCH   1   4
BRANCH   1   9
HETATM    9  C   UNK N   1       2.035  -0.458   0.225  0.00  0.00    -0.028 A 
HETATM   10  C   UNK N   1       3.043  -1.405   0.460  0.00  0.00     0.010 A 
HETATM   11  C   UNK N   1       2.827  -2.758   0.180  0.00  0.00     0.001 A 
HETATM   12  C   UNK N   1       1.595  -3.179  -0.325  0.00  0.00     0.000 A 
HETATM   13  C   UNK N   1       0.580  -2.247  -0.553  0.00  0.00     0.001 A 
HETATM   14  C   UNK N   1       0.798  -0.894  -0.279  0.00  0.00     0.010 A 
ENDBRANCH   1   9
TORSDOF 4
