MODEL 1
REMARK VINA RESULT:      -5.3      0.000      0.000
REMARK  3 active torsions:
REMARK  status: ('A' for Active; 'I' for Inactive)
REMARK    1  A    between atoms: N_1  and  C_2 
REMARK    2  A    between atoms: C_2  and  C_3 
REMARK    3  A    between atoms: C_3  and  C_6 
ROOT
HETATM    1  C   UNK N   1      35.286  13.184  15.366  0.00  0.00     0.068 C 
ENDROOT
BRANCH   1   2
HETATM    2  C   UNK N   1      36.570  13.787  14.773  0.00  0.00     0.021 C 
HETATM    3  C   UNK N   1      36.234  14.431  13.431  0.00  0.00     0.038 C 
HETATM    4  C   UNK N   1      37.164  14.839  15.709  0.00  0.00     0.038 C 
BRANCH   2   5
HETATM    5  N   UNK N   1      37.517  12.682  14.582  0.00  0.00    -0.417 N 
HETATM    6  C   UNK N   1      37.088  11.766  13.526  0.00  0.00     0.140 C 
HETATM    7  H   UNK N   1      38.374  12.566  15.123  0.00  0.00     0.153 HD
ENDBRANCH   2   5
ENDBRANCH   1   2
BRANCH   1   8
HETATM    8  C   UNK N   1      35.378  12.689  16.780  0.00  0.00    -0.056 A 
HETATM    9  C   UNK N   1      35.668  11.342  17.037  0.00  0.00     0.007 A 
HETATM   10  C   UNK N   1      35.704  10.868  18.351  0.00  0.00     0.001 A 
HETATM   11  C   UNK N   1      35.442  11.737  19.413  0.00  0.00     0.000 A 
HETATM   12  C   UNK N   1      35.142  13.079  19.161  0.00  0.00     0.001 A 
HETATM   13  C   UNK N   1      35.103  13.554  17.845  0.00  0.00     0.007 A 
ENDBRANCH   1   8
TORSDOF 3
ENDMDL
MODEL 2
REMARK VINA RESULT:      -5.2      0.971      1.490
REMARK  3 active torsions:
REMARK  status: ('A' for Active; 'I' for Inactive)
REMARK    1  A    between atoms: N_1  and  C_2 
REMARK    2  A    between atoms: C_2  and  C_3 
REMARK    3  A    between atoms: C_3  and  C_6 
ROOT
HETATM    1  C   UNK N   1      35.015  13.053  15.528  0.00  0.00     0.068 C 
ENDROOT
BRANCH   1   2
HETATM    2  C   UNK N   1      36.277  13.458  14.751  0.00  0.00     0.021 C 
HETATM    3  C   UNK N   1      37.066  14.461  15.587  0.00  0.00     0.038 C 
HETATM    4  C   UNK N   1      37.152  12.241  14.454  0.00  0.00     0.038 C 
BRANCH   2   5
HETATM    5  N   UNK N   1      35.831  14.082  13.499  0.00  0.00    -0.417 N 
HETATM    6  C   UNK N   1      35.149  13.130  12.624  0.00  0.00     0.140 C 
HETATM    7  H   UNK N   1      35.978  15.064  13.267  0.00  0.00     0.153 HD
ENDBRANCH   2   5
ENDBRANCH   1   2
BRANCH   1   8
HETATM    8  C   UNK N   1      35.226  12.591  16.941  0.00  0.00    -0.056 A 
HETATM    9  C   UNK N   1      35.522  11.247  17.206  0.00  0.00     0.007 A 
HETATM   10  C   UNK N   1      35.668  10.806  18.525  0.00  0.00     0.001 A 
HETATM   11  C   UNK N   1      35.511  11.704  19.582  0.00  0.00     0.000 A 
HETATM   12  C   UNK N   1      35.204  13.044  19.323  0.00  0.00     0.001 A 
HETATM   13  C   UNK N   1      35.055  13.486  18.004  0.00  0.00     0.007 A 
ENDBRANCH   1   8
TORSDOF 3
ENDMDL
MODEL 3
REMARK VINA RESULT:      -5.1      0.594      2.188
REMARK  3 active torsions:
REMARK  status: ('A' for Active; 'I' for Inactive)
REMARK    1  A    between atoms: N_1  and  C_2 
REMARK    2  A    between atoms: C_2  and  C_3 
REMARK    3  A    between atoms: C_3  and  C_6 
ROOT
HETATM    1  C   UNK N   1      35.105  13.051  15.221  0.00  0.00     0.068 C 
ENDROOT
BRANCH   1   2
HETATM    2  C   UNK N   1      36.429  13.422  14.535  0.00  0.00     0.021 C 
HETATM    3  C   UNK N   1      37.086  12.146  14.016  0.00  0.00     0.038 C 
HETATM    4  C   UNK N   1      36.192  14.383  13.370  0.00  0.00     0.038 C 
BRANCH   2   5
HETATM    5  N   UNK N   1      37.279  14.054  15.551  0.00  0.00    -0.417 N 
HETATM    6  C   UNK N   1      37.264  15.512  15.451  0.00  0.00     0.140 C 
HETATM    7  H   UNK N   1      37.817  13.537  16.247  0.00  0.00     0.153 HD
ENDBRANCH   2   5
ENDBRANCH   1   2
BRANCH   1   8
HETATM    8  C   UNK N   1      35.201  12.610  16.653  0.00  0.00    -0.056 A 
HETATM    9  C   UNK N   1      35.013  13.535  17.689  0.00  0.00     0.007 A 
HETATM   10  C   UNK N   1      35.152  13.138  19.022  0.00  0.00     0.001 A 
HETATM   11  C   UNK N   1      35.489  11.816  19.324  0.00  0.00     0.000 A 
HETATM   12  C   UNK N   1      35.689  10.892  18.294  0.00  0.00     0.001 A 
HETATM   13  C   UNK N   1      35.552  11.290  16.959  0.00  0.00     0.007 A 
ENDBRANCH   1   8
TORSDOF 3
ENDMDL
MODEL 4
REMARK VINA RESULT:      -4.9      1.720      2.895
REMARK  3 active torsions:
REMARK  status: ('A' for Active; 'I' for Inactive)
REMARK    1  A    between atoms: N_1  and  C_2 
REMARK    2  A    between atoms: C_2  and  C_3 
REMARK    3  A    between atoms: C_3  and  C_6 
ROOT
HETATM    1  C   UNK N   1      35.909  12.165  14.830  0.00  0.00     0.068 C 
ENDROOT
BRANCH   1   2
HETATM    2  C   UNK N   1      34.905  11.399  13.954  0.00  0.00     0.021 C 
HETATM    3  C   UNK N   1      35.583  10.144  13.413  0.00  0.00     0.038 C 
HETATM    4  C   UNK N   1      33.667  11.003  14.759  0.00  0.00     0.038 C 
BRANCH   2   5
HETATM    5  N   UNK N   1      34.529  12.290  12.849  0.00  0.00    -0.417 N 
HETATM    6  C   UNK N   1      35.382  13.475  12.785  0.00  0.00     0.140 C 
HETATM    7  H   UNK N   1      33.763  12.103  12.202  0.00  0.00     0.153 HD
ENDBRANCH   2   5
ENDBRANCH   1   2
BRANCH   1   8
HETATM    8  C   UNK N   1      35.674  12.111  16.312  0.00  0.00    -0.056 A 
HETATM    9  C   UNK N   1      35.258  13.259  17.001  0.00  0.00     0.007 A 
HETATM   10  C   UNK N   1      35.087  13.223  18.388  0.00  0.00     0.001 A 
HETATM   11  C   UNK N   1      35.339  12.043  19.092  0.00  0.00     0.000 A 
HETATM   12  C   UNK N   1      35.765  10.899  18.410  0.00  0.00     0.001 A 
HETATM   13  C   UNK N   1      35.939  10.934  17.022  0.00  0.00     0.007 A 
ENDBRANCH   1   8
TORSDOF 3
ENDMDL
MODEL 5
REMARK VINA RESULT:      -4.8     22.716     25.668
REMARK  3 active torsions:
REMARK  status: ('A' for Active; 'I' for Inactive)
REMARK    1  A    between atoms: N_1  and  C_2 
REMARK    2  A    between atoms: C_2  and  C_3 
REMARK    3  A    between atoms: C_3  and  C_6 
ROOT
HETATM    1  C   UNK N   1      27.183  24.279  -3.366  0.00  0.00     0.068 C 
ENDROOT
BRANCH   1   2
HETATM    2  C   UNK N   1      28.661  24.106  -3.752  0.00  0.00     0.021 C 
HETATM    3  C   UNK N   1      28.739  23.280  -5.033  0.00  0.00     0.038 C 
HETATM    4  C   UNK N   1      29.330  25.461  -3.978  0.00  0.00     0.038 C 
BRANCH   2   5
HETATM    5  N   UNK N   1      29.314  23.393  -2.648  0.00  0.00    -0.417 N 
HETATM    6  C   UNK N   1      30.104  22.257  -3.118  0.00  0.00     0.140 C 
HETATM    7  H   UNK N   1      29.228  23.660  -1.667  0.00  0.00     0.153 HD
ENDBRANCH   2   5
ENDBRANCH   1   2
BRANCH   1   8
HETATM    8  C   UNK N   1      26.466  25.441  -3.990  0.00  0.00    -0.056 A 
HETATM    9  C   UNK N   1      26.363  26.657  -3.300  0.00  0.00     0.007 A 
HETATM   10  C   UNK N   1      25.652  27.724  -3.858  0.00  0.00     0.001 A 
HETATM   11  C   UNK N   1      25.035  27.577  -5.102  0.00  0.00     0.000 A 
HETATM   12  C   UNK N   1      25.125  26.362  -5.788  0.00  0.00     0.001 A 
HETATM   13  C   UNK N   1      25.835  25.292  -5.230  0.00  0.00     0.007 A 
ENDBRANCH   1   8
TORSDOF 3
ENDMDL
MODEL 6
REMARK VINA RESULT:      -4.6      8.277     11.663
REMARK  3 active torsions:
REMARK  status: ('A' for Active; 'I' for Inactive)
REMARK    1  A    between atoms: N_1  and  C_2 
REMARK    2  A    between atoms: C_2  and  C_3 
REMARK    3  A    between atoms: C_3  and  C_6 
ROOT
HETATM    1  C   UNK N   1      34.089  17.557   7.192  0.00  0.00     0.068 C 
ENDROOT
BRANCH   1   2
HETATM    2  C   UNK N   1      33.188  17.110   8.354  0.00  0.00     0.021 C 
HETATM    3  C   UNK N   1      31.978  18.038   8.421  0.00  0.00     0.038 C 
HETATM    4  C   UNK N   1      32.716  15.670   8.158  0.00  0.00     0.038 C 
BRANCH   2   5
HETATM    5  N   UNK N   1      33.982  17.222   9.584  0.00  0.00    -0.417 N 
HETATM    6  C   UNK N   1      35.035  16.211   9.652  0.00  0.00     0.140 C 
HETATM    7  H   UNK N   1      33.819  17.924  10.306  0.00  0.00     0.153 HD
ENDBRANCH   2   5
ENDBRANCH   1   2
BRANCH   1   8
HETATM    8  C   UNK N   1      33.775  16.971   5.846  0.00  0.00    -0.056 A 
HETATM    9  C   UNK N   1      34.366  15.763   5.449  0.00  0.00     0.007 A 
HETATM   10  C   UNK N   1      34.115  15.242   4.176  0.00  0.00     0.001 A 
HETATM   11  C   UNK N   1      33.279  15.930   3.293  0.00  0.00     0.000 A 
HETATM   12  C   UNK N   1      32.697  17.141   3.681  0.00  0.00     0.001 A 
HETATM   13  C   UNK N   1      32.950  17.665   4.954  0.00  0.00     0.007 A 
ENDBRANCH   1   8
TORSDOF 3
ENDMDL
MODEL 7
REMARK VINA RESULT:      -4.6      3.136      5.972
REMARK  3 active torsions:
REMARK  status: ('A' for Active; 'I' for Inactive)
REMARK    1  A    between atoms: N_1  and  C_2 
REMARK    2  A    between atoms: C_2  and  C_3 
REMARK    3  A    between atoms: C_3  and  C_6 
ROOT
HETATM    1  C   UNK N   1      35.765  10.296  20.059  0.00  0.00     0.068 C 
ENDROOT
BRANCH   1   2
HETATM    2  C   UNK N   1      34.540   9.746  20.805  0.00  0.00     0.021 C 
HETATM    3  C   UNK N   1      33.568   9.160  19.786  0.00  0.00     0.038 C 
HETATM    4  C   UNK N   1      34.947   8.662  21.803  0.00  0.00     0.038 C 
BRANCH   2   5
HETATM    5  N   UNK N   1      33.919  10.876  21.507  0.00  0.00    -0.417 N 
HETATM    6  C   UNK N   1      32.746  10.468  22.278  0.00  0.00     0.140 C 
HETATM    7  H   UNK N   1      34.265  11.835  21.462  0.00  0.00     0.153 HD
ENDBRANCH   2   5
ENDBRANCH   1   2
BRANCH   1   8
HETATM    8  C   UNK N   1      35.492  11.336  19.011  0.00  0.00    -0.056 A 
HETATM    9  C   UNK N   1      35.470  10.979  17.655  0.00  0.00     0.007 A 
HETATM   10  C   UNK N   1      35.266  11.955  16.674  0.00  0.00     0.001 A 
HETATM   11  C   UNK N   1      35.092  13.290  17.045  0.00  0.00     0.000 A 
HETATM   12  C   UNK N   1      35.124  13.652  18.395  0.00  0.00     0.001 A 
HETATM   13  C   UNK N   1      35.331  12.677  19.378  0.00  0.00     0.007 A 
ENDBRANCH   1   8
TORSDOF 3
ENDMDL
MODEL 8
REMARK VINA RESULT:      -4.5      7.706     10.442
REMARK  3 active torsions:
REMARK  status: ('A' for Active; 'I' for Inactive)
REMARK    1  A    between atoms: N_1  and  C_2 
REMARK    2  A    between atoms: C_2  and  C_3 
REMARK    3  A    between atoms: C_3  and  C_6 
ROOT
HETATM    1  C   UNK N   1      32.796  17.973   8.264  0.00  0.00     0.068 C 
ENDROOT
BRANCH   1   2
HETATM    2  C   UNK N   1      33.590  16.741   8.726  0.00  0.00     0.021 C 
HETATM    3  C   UNK N   1      32.607  15.656   9.154  0.00  0.00     0.038 C 
HETATM    4  C   UNK N   1      34.480  16.210   7.603  0.00  0.00     0.038 C 
BRANCH   2   5
HETATM    5  N   UNK N   1      34.410  17.161   9.869  0.00  0.00    -0.417 N 
HETATM    6  C   UNK N   1      35.015  16.024  10.560  0.00  0.00     0.140 C 
HETATM    7  H   UNK N   1      34.544  18.134  10.149  0.00  0.00     0.153 HD
ENDBRANCH   2   5
ENDBRANCH   1   2
BRANCH   1   8
HETATM    8  C   UNK N   1      31.307  17.803   8.164  0.00  0.00    -0.056 A 
HETATM    9  C   UNK N   1      30.749  17.112   7.079  0.00  0.00     0.007 A 
HETATM   10  C   UNK N   1      29.361  16.997   6.958  0.00  0.00     0.001 A 
HETATM   11  C   UNK N   1      28.527  17.577   7.915  0.00  0.00     0.000 A 
HETATM   12  C   UNK N   1      29.079  18.277   8.993  0.00  0.00     0.001 A 
HETATM   13  C   UNK N   1      30.468  18.395   9.114  0.00  0.00     0.007 A 
ENDBRANCH   1   8
TORSDOF 3
ENDMDL
MODEL 9
REMARK VINA RESULT:      -4.4      1.725      3.055
REMARK  3 active torsions:
REMARK  status: ('A' for Active; 'I' for Inactive)
REMARK    1  A    between atoms: N_1  and  C_2 
REMARK    2  A    between atoms: C_2  and  C_3 
REMARK    3  A    between atoms: C_3  and  C_6 
ROOT
HETATM    1  C   UNK N   1      36.536  14.284  13.988  0.00  0.00     0.068 C 
ENDROOT
BRANCH   1   2
HETATM    2  C   UNK N   1      36.190  14.083  12.504  0.00  0.00     0.021 C 
HETATM    3  C   UNK N   1      35.021  13.108  12.401  0.00  0.00     0.038 C 
HETATM    4  C   UNK N   1      35.809  15.409  11.846  0.00  0.00     0.038 C 
BRANCH   2   5
HETATM    5  N   UNK N   1      37.381  13.518  11.857  0.00  0.00    -0.417 N 
HETATM    6  C   UNK N   1      37.406  13.788  10.421  0.00  0.00     0.140 C 
HETATM    7  H   UNK N   1      38.106  12.997  12.352  0.00  0.00     0.153 HD
ENDBRANCH   2   5
ENDBRANCH   1   2
BRANCH   1   8
HETATM    8  C   UNK N   1      36.306  13.104  14.889  0.00  0.00    -0.056 A 
HETATM    9  C   UNK N   1      35.331  13.165  15.894  0.00  0.00     0.007 A 
HETATM   10  C   UNK N   1      35.151  12.087  16.765  0.00  0.00     0.001 A 
HETATM   11  C   UNK N   1      35.950  10.948  16.640  0.00  0.00     0.000 A 
HETATM   12  C   UNK N   1      36.931  10.888  15.646  0.00  0.00     0.001 A 
HETATM   13  C   UNK N   1      37.114  11.967  14.775  0.00  0.00     0.007 A 
ENDBRANCH   1   8
TORSDOF 3
ENDMDL
