REMARK  3 active torsions:
REMARK  status: ('A' for Active; 'I' for Inactive)
REMARK    1  A    between atoms: N_1  and  C_2 
REMARK    2  A    between atoms: C_2  and  C_3 
REMARK    3  A    between atoms: C_3  and  C_6 
ROOT
HETATM    1  C   UNK N   1       2.719   0.657  -0.995  0.00  0.00     0.068 C 
ENDROOT
BRANCH   1   2
HETATM    2  C   UNK N   1       3.395   1.598   0.015  0.00  0.00     0.021 C 
HETATM    3  C   UNK N   1       2.347   2.079   1.014  0.00  0.00     0.038 C 
HETATM    4  C   UNK N   1       4.521   0.883   0.761  0.00  0.00     0.038 C 
BRANCH   2   5
HETATM    5  N   UNK N   1       3.930   2.734  -0.746  0.00  0.00    -0.417 N 
HETATM    6  C   UNK N   1       4.638   3.684   0.110  0.00  0.00     0.140 C 
HETATM    7  H   UNK N   1       3.821   2.847  -1.754  0.00  0.00     0.153 HD
ENDBRANCH   2   5
ENDBRANCH   1   2
BRANCH   1   8
HETATM    8  C   UNK N   1       2.282  -0.679  -0.467  0.00  0.00    -0.056 A 
HETATM    9  C   UNK N   1       3.229  -1.683  -0.222  0.00  0.00     0.007 A 
HETATM   10  C   UNK N   1       2.819  -2.944   0.221  0.00  0.00     0.001 A 
HETATM   11  C   UNK N   1       1.461  -3.208   0.413  0.00  0.00     0.000 A 
HETATM   12  C   UNK N   1       0.512  -2.213   0.159  0.00  0.00     0.001 A 
HETATM   13  C   UNK N   1       0.921  -0.951  -0.287  0.00  0.00     0.007 A 
ENDBRANCH   1   8
TORSDOF 3
