MODEL 1
REMARK VINA RESULT:      -6.0      0.000      0.000
REMARK  7 active torsions:
REMARK  status: ('A' for Active; 'I' for Inactive)
REMARK    1  A    between atoms: C_7  and  O_1 
REMARK    2  A    between atoms: O_2  and  C_17 
REMARK    3  A    between atoms: C_6  and  N_4 
REMARK    4  A    between atoms: N_4  and  C_10 
REMARK    5  A    between atoms: C_6  and  C_7 
REMARK    6  A    between atoms: C_6  and  C_8 
REMARK    7  A    between atoms: C_7  and  C_9 
ROOT
HETATM    1  O   UNK N   1      20.735  17.130   5.000  0.00  0.00    -0.268 OA
HETATM    2  N   UNK N   1      22.014  18.676   4.000  0.00  0.00    -0.321 N 
HETATM    3  C   UNK N   1      25.687  19.128   4.035  0.00  0.00    -0.015 A 
HETATM    4  C   UNK N   1      24.399  18.605   4.324  0.00  0.00     0.003 A 
HETATM    5  C   UNK N   1      25.777  20.229   3.171  0.00  0.00     0.013 A 
HETATM    6  C   UNK N   1      23.245  19.194   3.745  0.00  0.00     0.079 A 
HETATM    7  C   UNK N   1      23.377  20.307   2.904  0.00  0.00     0.093 A 
HETATM    8  C   UNK N   1      24.229  17.496   5.165  0.00  0.00     0.020 A 
HETATM    9  C   UNK N   1      24.639  20.819   2.620  0.00  0.00     0.039 A 
HETATM   10  C   UNK N   1      22.956  16.979   5.403  0.00  0.00     0.075 A 
HETATM   11  C   UNK N   1      21.848  17.580   4.807  0.00  0.00     0.245 A 
HETATM   12  H   UNK N   1      21.222  19.099   3.595  0.00  0.00     0.169 HD
ENDROOT
BRANCH   3  13
HETATM   13  C   UNK N   1      26.943  18.521   4.662  0.00  0.00     0.174 C 
BRANCH  13  14
HETATM   14  O   UNK N   1      27.990  18.533   3.736  0.00  0.00    -0.389 OA
HETATM   15  H   UNK N   1      28.831  18.056   3.652  0.00  0.00     0.210 HD
ENDBRANCH  13  14
BRANCH  13  16
HETATM   16  C   UNK N   1      27.484  19.131   5.975  0.00  0.00     0.109 C 
BRANCH  16  17
HETATM   17  N   UNK N   1      27.471  18.100   7.010  0.00  0.00    -0.411 N 
HETATM   18  H   UNK N   1      26.771  17.363   7.095  0.00  0.00     0.154 HD
BRANCH  17  19
HETATM   19  C   UNK N   1      28.610  18.282   7.901  0.00  0.00     0.068 C 
HETATM   20  C   UNK N   1      29.770  17.451   7.392  0.00  0.00     0.031 C 
HETATM   21  C   UNK N   1      28.265  17.812   9.303  0.00  0.00     0.031 C 
ENDBRANCH  17  19
ENDBRANCH  16  17
BRANCH  16  22
HETATM   22  C   UNK N   1      26.714  20.343   6.480  0.00  0.00     0.023 C 
HETATM   23  C   UNK N   1      27.517  21.595   6.168  0.00  0.00     0.007 C 
ENDBRANCH  16  22
ENDBRANCH  13  16
ENDBRANCH   3  13
BRANCH   7  24
HETATM   24  O   UNK N   1      22.289  20.885   2.364  0.00  0.00    -0.358 OA
HETATM   25  H   UNK N   1      21.609  21.219   2.915  0.00  0.00     0.217 HD
ENDBRANCH   7  24
TORSDOF 7
ENDMDL
MODEL 2
REMARK VINA RESULT:      -5.8      4.826      6.495
REMARK  7 active torsions:
REMARK  status: ('A' for Active; 'I' for Inactive)
REMARK    1  A    between atoms: C_7  and  O_1 
REMARK    2  A    between atoms: O_2  and  C_17 
REMARK    3  A    between atoms: C_6  and  N_4 
REMARK    4  A    between atoms: N_4  and  C_10 
REMARK    5  A    between atoms: C_6  and  C_7 
REMARK    6  A    between atoms: C_6  and  C_8 
REMARK    7  A    between atoms: C_7  and  C_9 
ROOT
HETATM    1  O   UNK N   1      20.878  21.347   1.405  0.00  0.00    -0.268 OA
HETATM    2  N   UNK N   1      20.537  19.138   1.241  0.00  0.00    -0.321 N 
HETATM    3  C   UNK N   1      20.006  16.596   3.877  0.00  0.00    -0.015 A 
HETATM    4  C   UNK N   1      20.263  17.844   3.253  0.00  0.00     0.003 A 
HETATM    5  C   UNK N   1      19.812  15.473   3.059  0.00  0.00     0.013 A 
HETATM    6  C   UNK N   1      20.318  17.936   1.838  0.00  0.00     0.079 A 
HETATM    7  C   UNK N   1      20.141  16.786   1.058  0.00  0.00     0.093 A 
HETATM    8  C   UNK N   1      20.451  19.015   4.003  0.00  0.00     0.020 A 
HETATM    9  C   UNK N   1      19.887  15.562   1.668  0.00  0.00     0.039 A 
HETATM   10  C   UNK N   1      20.665  20.236   3.364  0.00  0.00     0.075 A 
HETATM   11  C   UNK N   1      20.702  20.286   1.972  0.00  0.00     0.245 A 
HETATM   12  H   UNK N   1      20.577  19.184   0.257  0.00  0.00     0.169 HD
ENDROOT
BRANCH   3  13
HETATM   13  C   UNK N   1      19.961  16.470   5.401  0.00  0.00     0.174 C 
BRANCH  13  14
HETATM   14  O   UNK N   1      18.810  15.778   5.787  0.00  0.00    -0.389 OA
HETATM   15  H   UNK N   1      18.619  15.077   6.430  0.00  0.00     0.210 HD
ENDBRANCH  13  14
BRANCH  13  16
HETATM   16  C   UNK N   1      21.158  15.812   6.125  0.00  0.00     0.109 C 
BRANCH  16  17
HETATM   17  N   UNK N   1      20.803  15.617   7.530  0.00  0.00    -0.411 N 
HETATM   18  H   UNK N   1      20.159  16.204   8.059  0.00  0.00     0.154 HD
BRANCH  17  19
HETATM   19  C   UNK N   1      21.511  14.458   8.060  0.00  0.00     0.068 C 
HETATM   20  C   UNK N   1      21.102  13.231   7.271  0.00  0.00     0.031 C 
HETATM   21  C   UNK N   1      21.143  14.234   9.516  0.00  0.00     0.031 C 
ENDBRANCH  17  19
ENDBRANCH  16  17
BRANCH  16  22
HETATM   22  C   UNK N   1      22.459  16.598   6.051  0.00  0.00     0.023 C 
HETATM   23  C   UNK N   1      23.408  15.880   5.105  0.00  0.00     0.007 C 
ENDBRANCH  16  22
ENDBRANCH  13  16
ENDBRANCH   3  13
BRANCH   7  24
HETATM   24  O   UNK N   1      20.208  16.857  -0.284  0.00  0.00    -0.358 OA
HETATM   25  H   UNK N   1      20.595  16.159  -0.775  0.00  0.00     0.217 HD
ENDBRANCH   7  24
TORSDOF 7
ENDMDL
MODEL 3
REMARK VINA RESULT:      -5.8      3.327      6.049
REMARK  7 active torsions:
REMARK  status: ('A' for Active; 'I' for Inactive)
REMARK    1  A    between atoms: C_7  and  O_1 
REMARK    2  A    between atoms: O_2  and  C_17 
REMARK    3  A    between atoms: C_6  and  N_4 
REMARK    4  A    between atoms: N_4  and  C_10 
REMARK    5  A    between atoms: C_6  and  C_7 
REMARK    6  A    between atoms: C_6  and  C_8 
REMARK    7  A    between atoms: C_7  and  C_9 
ROOT
HETATM    1  O   UNK N   1      25.965  22.046   6.816  0.00  0.00    -0.268 OA
HETATM    2  N   UNK N   1      26.995  20.155   7.439  0.00  0.00    -0.321 N 
HETATM    3  C   UNK N   1      29.073  17.804   5.477  0.00  0.00    -0.015 A 
HETATM    4  C   UNK N   1      28.238  18.906   5.798  0.00  0.00     0.003 A 
HETATM    5  C   UNK N   1      29.415  16.910   6.502  0.00  0.00     0.013 A 
HETATM    6  C   UNK N   1      27.772  19.083   7.126  0.00  0.00     0.079 A 
HETATM    7  C   UNK N   1      28.119  18.156   8.117  0.00  0.00     0.093 A 
HETATM    8  C   UNK N   1      27.866  19.852   4.831  0.00  0.00     0.020 A 
HETATM    9  C   UNK N   1      28.938  17.076   7.803  0.00  0.00     0.039 A 
HETATM   10  C   UNK N   1      27.076  20.946   5.180  0.00  0.00     0.075 A 
HETATM   11  C   UNK N   1      26.646  21.091   6.499  0.00  0.00     0.245 A 
HETATM   12  H   UNK N   1      26.675  20.262   8.365  0.00  0.00     0.169 HD
ENDROOT
BRANCH   3  13
HETATM   13  C   UNK N   1      29.572  17.583   4.047  0.00  0.00     0.174 C 
BRANCH  13  14
HETATM   14  O   UNK N   1      30.965  17.483   4.041  0.00  0.00    -0.389 OA
HETATM   15  H   UNK N   1      31.601  16.838   3.692  0.00  0.00     0.210 HD
ENDBRANCH  13  14
BRANCH  13  16
HETATM   16  C   UNK N   1      29.020  16.380   3.249  0.00  0.00     0.109 C 
BRANCH  16  17
HETATM   17  N   UNK N   1      27.728  15.997   3.814  0.00  0.00    -0.411 N 
HETATM   18  H   UNK N   1      27.599  15.476   4.681  0.00  0.00     0.154 HD
BRANCH  17  19
HETATM   19  C   UNK N   1      26.653  16.471   2.951  0.00  0.00     0.068 C 
HETATM   20  C   UNK N   1      25.535  17.015   3.816  0.00  0.00     0.031 C 
HETATM   21  C   UNK N   1      26.101  15.329   2.118  0.00  0.00     0.031 C 
ENDBRANCH  17  19
ENDBRANCH  16  17
BRANCH  16  22
HETATM   22  C   UNK N   1      29.928  15.159   3.226  0.00  0.00     0.023 C 
HETATM   23  C   UNK N   1      29.323  14.086   4.117  0.00  0.00     0.007 C 
ENDBRANCH  16  22
ENDBRANCH  13  16
ENDBRANCH   3  13
BRANCH   7  24
HETATM   24  O   UNK N   1      27.669  18.304   9.376  0.00  0.00    -0.358 OA
HETATM   25  H   UNK N   1      27.738  17.597   9.987  0.00  0.00     0.217 HD
ENDBRANCH   7  24
TORSDOF 7
ENDMDL
MODEL 4
REMARK VINA RESULT:      -5.8      3.625      6.886
REMARK  7 active torsions:
REMARK  status: ('A' for Active; 'I' for Inactive)
REMARK    1  A    between atoms: C_7  and  O_1 
REMARK    2  A    between atoms: O_2  and  C_17 
REMARK    3  A    between atoms: C_6  and  N_4 
REMARK    4  A    between atoms: N_4  and  C_10 
REMARK    5  A    between atoms: C_6  and  C_7 
REMARK    6  A    between atoms: C_6  and  C_8 
REMARK    7  A    between atoms: C_7  and  C_9 
ROOT
HETATM    1  O   UNK N   1      26.083  18.300   4.740  0.00  0.00    -0.268 OA
HETATM    2  N   UNK N   1      27.260  18.072   6.634  0.00  0.00    -0.321 N 
HETATM    3  C   UNK N   1      30.870  17.438   7.147  0.00  0.00    -0.015 A 
HETATM    4  C   UNK N   1      29.624  17.633   6.496  0.00  0.00     0.003 A 
HETATM    5  C   UNK N   1      30.898  17.473   8.549  0.00  0.00     0.013 A 
HETATM    6  C   UNK N   1      28.449  17.857   7.259  0.00  0.00     0.079 A 
HETATM    7  C   UNK N   1      28.516  17.863   8.658  0.00  0.00     0.093 A 
HETATM    8  C   UNK N   1      29.517  17.628   5.097  0.00  0.00     0.020 A 
HETATM    9  C   UNK N   1      29.738  17.673   9.297  0.00  0.00     0.039 A 
HETATM   10  C   UNK N   1      28.287  17.860   4.482  0.00  0.00     0.075 A 
HETATM   11  C   UNK N   1      27.158  18.086   5.267  0.00  0.00     0.245 A 
HETATM   12  H   UNK N   1      26.452  18.221   7.178  0.00  0.00     0.169 HD
ENDROOT
BRANCH   3  13
HETATM   13  C   UNK N   1      32.146  17.176   6.345  0.00  0.00     0.174 C 
BRANCH  13  14
HETATM   14  O   UNK N   1      33.238  17.769   6.983  0.00  0.00    -0.389 OA
HETATM   15  H   UNK N   1      33.341  18.416   7.699  0.00  0.00     0.210 HD
ENDBRANCH  13  14
BRANCH  13  16
HETATM   16  C   UNK N   1      32.536  15.713   6.030  0.00  0.00     0.109 C 
BRANCH  16  17
HETATM   17  N   UNK N   1      32.135  15.408   4.658  0.00  0.00    -0.411 N 
HETATM   18  H   UNK N   1      31.330  14.841   4.395  0.00  0.00     0.154 HD
BRANCH  17  19
HETATM   19  C   UNK N   1      33.062  16.036   3.724  0.00  0.00     0.068 C 
HETATM   20  C   UNK N   1      32.286  16.968   2.816  0.00  0.00     0.031 C 
HETATM   21  C   UNK N   1      33.738  14.985   2.862  0.00  0.00     0.031 C 
ENDBRANCH  17  19
ENDBRANCH  16  17
BRANCH  16  22
HETATM   22  C   UNK N   1      31.927  14.676   6.962  0.00  0.00     0.023 C 
HETATM   23  C   UNK N   1      32.990  14.225   7.951  0.00  0.00     0.007 C 
ENDBRANCH  16  22
ENDBRANCH  13  16
ENDBRANCH   3  13
BRANCH   7  24
HETATM   24  O   UNK N   1      27.406  18.057   9.393  0.00  0.00    -0.358 OA
HETATM   25  H   UNK N   1      27.412  17.877  10.313  0.00  0.00     0.217 HD
ENDBRANCH   7  24
TORSDOF 7
ENDMDL
MODEL 5
REMARK VINA RESULT:      -5.7      4.706      7.639
REMARK  7 active torsions:
REMARK  status: ('A' for Active; 'I' for Inactive)
REMARK    1  A    between atoms: C_7  and  O_1 
REMARK    2  A    between atoms: O_2  and  C_17 
REMARK    3  A    between atoms: C_6  and  N_4 
REMARK    4  A    between atoms: N_4  and  C_10 
REMARK    5  A    between atoms: C_6  and  C_7 
REMARK    6  A    between atoms: C_6  and  C_8 
REMARK    7  A    between atoms: C_7  and  C_9 
ROOT
HETATM    1  O   UNK N   1      27.851  18.999   4.597  0.00  0.00    -0.268 OA
HETATM    2  N   UNK N   1      29.757  17.930   4.097  0.00  0.00    -0.321 N 
HETATM    3  C   UNK N   1      31.998  15.906   6.236  0.00  0.00    -0.015 A 
HETATM    4  C   UNK N   1      30.920  16.738   5.836  0.00  0.00     0.003 A 
HETATM    5  C   UNK N   1      32.932  15.518   5.265  0.00  0.00     0.013 A 
HETATM    6  C   UNK N   1      30.806  17.156   4.485  0.00  0.00     0.079 A 
HETATM    7  C   UNK N   1      31.772  16.764   3.550  0.00  0.00     0.093 A 
HETATM    8  C   UNK N   1      29.937  17.155   6.746  0.00  0.00     0.020 A 
HETATM    9  C   UNK N   1      32.828  15.947   3.941  0.00  0.00     0.039 A 
HETATM   10  C   UNK N   1      28.867  17.941   6.319  0.00  0.00     0.075 A 
HETATM   11  C   UNK N   1      28.785  18.322   4.981  0.00  0.00     0.245 A 
HETATM   12  H   UNK N   1      29.695  18.215   3.156  0.00  0.00     0.169 HD
ENDROOT
BRANCH   3  13
HETATM   13  C   UNK N   1      32.151  15.460   7.692  0.00  0.00     0.174 C 
BRANCH  13  14
HETATM   14  O   UNK N   1      32.330  14.075   7.747  0.00  0.00    -0.389 OA
HETATM   15  H   UNK N   1      32.687  13.460   8.407  0.00  0.00     0.210 HD
ENDBRANCH  13  14
BRANCH  13  16
HETATM   16  C   UNK N   1      33.265  16.102   8.550  0.00  0.00     0.109 C 
BRANCH  16  17
HETATM   17  N   UNK N   1      33.208  15.531   9.893  0.00  0.00    -0.411 N 
HETATM   18  H   UNK N   1      32.367  15.462  10.466  0.00  0.00     0.154 HD
BRANCH  17  19
HETATM   19  C   UNK N   1      34.534  15.075  10.292  0.00  0.00     0.068 C 
HETATM   20  C   UNK N   1      35.202  16.163  11.106  0.00  0.00     0.031 C 
HETATM   21  C   UNK N   1      35.389  14.800   9.068  0.00  0.00     0.031 C 
ENDBRANCH  17  19
ENDBRANCH  16  17
BRANCH  16  22
HETATM   22  C   UNK N   1      33.194  17.618   8.657  0.00  0.00     0.023 C 
HETATM   23  C   UNK N   1      34.369  18.216   7.901  0.00  0.00     0.007 C 
ENDBRANCH  16  22
ENDBRANCH  13  16
ENDBRANCH   3  13
BRANCH   7  24
HETATM   24  O   UNK N   1      31.684  17.167   2.269  0.00  0.00    -0.358 OA
HETATM   25  H   UNK N   1      31.580  18.076   2.068  0.00  0.00     0.217 HD
ENDBRANCH   7  24
TORSDOF 7
ENDMDL
MODEL 6
REMARK VINA RESULT:      -5.7     10.283     13.189
REMARK  7 active torsions:
REMARK  status: ('A' for Active; 'I' for Inactive)
REMARK    1  A    between atoms: C_7  and  O_1 
REMARK    2  A    between atoms: O_2  and  C_17 
REMARK    3  A    between atoms: C_6  and  N_4 
REMARK    4  A    between atoms: N_4  and  C_10 
REMARK    5  A    between atoms: C_6  and  C_7 
REMARK    6  A    between atoms: C_6  and  C_8 
REMARK    7  A    between atoms: C_7  and  C_9 
ROOT
HETATM    1  O   UNK N   1      32.316  13.494   7.188  0.00  0.00    -0.268 OA
HETATM    2  N   UNK N   1      33.411  14.791   8.652  0.00  0.00    -0.321 N 
HETATM    3  C   UNK N   1      35.632  13.874  11.467  0.00  0.00    -0.015 A 
HETATM    4  C   UNK N   1      34.744  13.750  10.367  0.00  0.00     0.003 A 
HETATM    5  C   UNK N   1      35.988  15.163  11.890  0.00  0.00     0.013 A 
HETATM    6  C   UNK N   1      34.240  14.910   9.724  0.00  0.00     0.079 A 
HETATM    7  C   UNK N   1      34.603  16.180  10.191  0.00  0.00     0.093 A 
HETATM    8  C   UNK N   1      34.354  12.495   9.875  0.00  0.00     0.020 A 
HETATM    9  C   UNK N   1      35.475  16.302  11.268  0.00  0.00     0.039 A 
HETATM   10  C   UNK N   1      33.510  12.401   8.769  0.00  0.00     0.075 A 
HETATM   11  C   UNK N   1      33.044  13.565   8.159  0.00  0.00     0.245 A 
HETATM   12  H   UNK N   1      33.066  15.606   8.220  0.00  0.00     0.169 HD
ENDROOT
BRANCH   3  13
HETATM   13  C   UNK N   1      36.172  12.637  12.187  0.00  0.00     0.174 C 
BRANCH  13  14
HETATM   14  O   UNK N   1      37.542  12.783  12.418  0.00  0.00    -0.389 OA
HETATM   15  H   UNK N   1      38.207  13.448  12.178  0.00  0.00     0.210 HD
ENDBRANCH  13  14
BRANCH  13  16
HETATM   16  C   UNK N   1      35.522  12.217  13.526  0.00  0.00     0.109 C 
BRANCH  16  17
HETATM   17  N   UNK N   1      36.460  12.501  14.610  0.00  0.00    -0.411 N 
HETATM   18  H   UNK N   1      37.335  12.003  14.773  0.00  0.00     0.154 HD
BRANCH  17  19
HETATM   19  C   UNK N   1      35.956  13.601  15.422  0.00  0.00     0.068 C 
HETATM   20  C   UNK N   1      37.076  14.595  15.650  0.00  0.00     0.031 C 
HETATM   21  C   UNK N   1      35.489  13.089  16.773  0.00  0.00     0.031 C 
ENDBRANCH  17  19
ENDBRANCH  16  17
BRANCH  16  22
HETATM   22  C   UNK N   1      35.109  10.755  13.603  0.00  0.00     0.023 C 
HETATM   23  C   UNK N   1      33.728  10.671  14.233  0.00  0.00     0.007 C 
ENDBRANCH  16  22
ENDBRANCH  13  16
ENDBRANCH   3  13
BRANCH   7  24
HETATM   24  O   UNK N   1      34.119  17.288   9.600  0.00  0.00    -0.358 OA
HETATM   25  H   UNK N   1      34.050  17.333   8.667  0.00  0.00     0.217 HD
ENDBRANCH   7  24
TORSDOF 7
ENDMDL
MODEL 7
REMARK VINA RESULT:      -5.7      6.017      8.446
REMARK  7 active torsions:
REMARK  status: ('A' for Active; 'I' for Inactive)
REMARK    1  A    between atoms: C_7  and  O_1 
REMARK    2  A    between atoms: O_2  and  C_17 
REMARK    3  A    between atoms: C_6  and  N_4 
REMARK    4  A    between atoms: N_4  and  C_10 
REMARK    5  A    between atoms: C_6  and  C_7 
REMARK    6  A    between atoms: C_6  and  C_8 
REMARK    7  A    between atoms: C_7  and  C_9 
ROOT
HETATM    1  O   UNK N   1      29.052  17.687  10.077  0.00  0.00    -0.268 OA
HETATM    2  N   UNK N   1      31.101  17.592   9.172  0.00  0.00    -0.321 N 
HETATM    3  C   UNK N   1      32.141  17.204   5.642  0.00  0.00    -0.015 A 
HETATM    4  C   UNK N   1      31.314  17.300   6.791  0.00  0.00     0.003 A 
HETATM    5  C   UNK N   1      33.531  17.284   5.815  0.00  0.00     0.013 A 
HETATM    6  C   UNK N   1      31.895  17.472   8.074  0.00  0.00     0.079 A 
HETATM    7  C   UNK N   1      33.288  17.524   8.207  0.00  0.00     0.093 A 
HETATM    8  C   UNK N   1      29.915  17.247   6.696  0.00  0.00     0.020 A 
HETATM    9  C   UNK N   1      34.099  17.431   7.081  0.00  0.00     0.039 A 
HETATM   10  C   UNK N   1      29.124  17.381   7.837  0.00  0.00     0.075 A 
HETATM   11  C   UNK N   1      29.733  17.558   9.078  0.00  0.00     0.245 A 
HETATM   12  H   UNK N   1      31.519  17.705  10.056  0.00  0.00     0.169 HD
ENDROOT
BRANCH   3  13
HETATM   13  C   UNK N   1      31.537  17.000   4.250  0.00  0.00     0.174 C 
BRANCH  13  14
HETATM   14  O   UNK N   1      32.209  17.796   3.320  0.00  0.00    -0.389 OA
HETATM   15  H   UNK N   1      32.675  18.647   3.360  0.00  0.00     0.210 HD
ENDBRANCH  13  14
BRANCH  13  16
HETATM   16  C   UNK N   1      31.477  15.568   3.673  0.00  0.00     0.109 C 
BRANCH  16  17
HETATM   17  N   UNK N   1      32.536  15.421   2.677  0.00  0.00    -0.411 N 
HETATM   18  H   UNK N   1      32.497  15.777   1.722  0.00  0.00     0.154 HD
BRANCH  17  19
HETATM   19  C   UNK N   1      33.656  14.688   3.254  0.00  0.00     0.068 C 
HETATM   20  C   UNK N   1      34.534  14.172   2.133  0.00  0.00     0.031 C 
HETATM   21  C   UNK N   1      33.155  13.499   4.054  0.00  0.00     0.031 C 
ENDBRANCH  17  19
ENDBRANCH  16  17
BRANCH  16  22
HETATM   22  C   UNK N   1      30.147  15.193   3.034  0.00  0.00     0.023 C 
HETATM   23  C   UNK N   1      29.218  16.394   3.104  0.00  0.00     0.007 C 
ENDBRANCH  16  22
ENDBRANCH  13  16
ENDBRANCH   3  13
BRANCH   7  24
HETATM   24  O   UNK N   1      33.851  17.669   9.421  0.00  0.00    -0.358 OA
HETATM   25  H   UNK N   1      34.404  16.997   9.767  0.00  0.00     0.217 HD
ENDBRANCH   7  24
TORSDOF 7
ENDMDL
MODEL 8
REMARK VINA RESULT:      -5.7      5.370      8.352
REMARK  7 active torsions:
REMARK  status: ('A' for Active; 'I' for Inactive)
REMARK    1  A    between atoms: C_7  and  O_1 
REMARK    2  A    between atoms: O_2  and  C_17 
REMARK    3  A    between atoms: C_6  and  N_4 
REMARK    4  A    between atoms: N_4  and  C_10 
REMARK    5  A    between atoms: C_6  and  C_7 
REMARK    6  A    between atoms: C_6  and  C_8 
REMARK    7  A    between atoms: C_7  and  C_9 
ROOT
HETATM    1  O   UNK N   1      29.083  17.457  10.117  0.00  0.00    -0.268 OA
HETATM    2  N   UNK N   1      31.115  17.443   9.171  0.00  0.00    -0.321 N 
HETATM    3  C   UNK N   1      32.094  17.265   5.607  0.00  0.00    -0.015 A 
HETATM    4  C   UNK N   1      31.287  17.286   6.775  0.00  0.00     0.003 A 
HETATM    5  C   UNK N   1      33.486  17.356   5.760  0.00  0.00     0.013 A 
HETATM    6  C   UNK N   1      31.890  17.395   8.055  0.00  0.00     0.079 A 
HETATM    7  C   UNK N   1      33.285  17.461   8.166  0.00  0.00     0.093 A 
HETATM    8  C   UNK N   1      29.888  17.216   6.702  0.00  0.00     0.020 A 
HETATM    9  C   UNK N   1      34.076  17.443   7.022  0.00  0.00     0.039 A 
HETATM   10  C   UNK N   1      29.117  17.276   7.862  0.00  0.00     0.075 A 
HETATM   11  C   UNK N   1      29.746  17.394   9.101  0.00  0.00     0.245 A 
HETATM   12  H   UNK N   1      31.548  17.514  10.053  0.00  0.00     0.169 HD
ENDROOT
BRANCH   3  13
HETATM   13  C   UNK N   1      31.468  17.129   4.218  0.00  0.00     0.174 C 
BRANCH  13  14
HETATM   14  O   UNK N   1      32.169  17.916   3.301  0.00  0.00    -0.389 OA
HETATM   15  H   UNK N   1      32.851  17.741   2.634  0.00  0.00     0.210 HD
ENDBRANCH  13  14
BRANCH  13  16
HETATM   16  C   UNK N   1      31.331  15.717   3.603  0.00  0.00     0.109 C 
BRANCH  16  17
HETATM   17  N   UNK N   1      29.959  15.254   3.796  0.00  0.00    -0.411 N 
HETATM   18  H   UNK N   1      29.650  14.631   4.541  0.00  0.00     0.154 HD
BRANCH  17  19
HETATM   19  C   UNK N   1      29.098  15.818   2.763  0.00  0.00     0.068 C 
HETATM   20  C   UNK N   1      27.934  16.523   3.426  0.00  0.00     0.031 C 
HETATM   21  C   UNK N   1      28.547  14.717   1.875  0.00  0.00     0.031 C 
ENDBRANCH  17  19
ENDBRANCH  16  17
BRANCH  16  22
HETATM   22  C   UNK N   1      32.285  14.678   4.172  0.00  0.00     0.023 C 
HETATM   23  C   UNK N   1      33.478  14.548   3.239  0.00  0.00     0.007 C 
ENDBRANCH  16  22
ENDBRANCH  13  16
ENDBRANCH   3  13
BRANCH   7  24
HETATM   24  O   UNK N   1      33.868  17.548   9.375  0.00  0.00    -0.358 OA
HETATM   25  H   UNK N   1      33.384  17.868  10.111  0.00  0.00     0.217 HD
ENDBRANCH   7  24
TORSDOF 7
ENDMDL
MODEL 9
REMARK VINA RESULT:      -5.7     14.217     17.639
REMARK  7 active torsions:
REMARK  status: ('A' for Active; 'I' for Inactive)
REMARK    1  A    between atoms: C_7  and  O_1 
REMARK    2  A    between atoms: O_2  and  C_17 
REMARK    3  A    between atoms: C_6  and  N_4 
REMARK    4  A    between atoms: N_4  and  C_10 
REMARK    5  A    between atoms: C_6  and  C_7 
REMARK    6  A    between atoms: C_6  and  C_8 
REMARK    7  A    between atoms: C_7  and  C_9 
ROOT
HETATM    1  O   UNK N   1      35.237   7.936  19.787  0.00  0.00    -0.268 OA
HETATM    2  N   UNK N   1      35.262  10.157  19.486  0.00  0.00    -0.321 N 
HETATM    3  C   UNK N   1      35.258  12.148  16.367  0.00  0.00    -0.015 A 
HETATM    4  C   UNK N   1      35.281  11.031  17.242  0.00  0.00     0.003 A 
HETATM    5  C   UNK N   1      35.223  13.432  16.930  0.00  0.00     0.013 A 
HETATM    6  C   UNK N   1      35.268  11.228  18.647  0.00  0.00     0.079 A 
HETATM    7  C   UNK N   1      35.255  12.527  19.170  0.00  0.00     0.093 A 
HETATM    8  C   UNK N   1      35.300   9.716  16.755  0.00  0.00     0.020 A 
HETATM    9  C   UNK N   1      35.231  13.622  18.312  0.00  0.00     0.039 A 
HETATM   10  C   UNK N   1      35.284   8.636  17.637  0.00  0.00     0.075 A 
HETATM   11  C   UNK N   1      35.261   8.870  19.011  0.00  0.00     0.245 A 
HETATM   12  H   UNK N   1      35.258  10.310  20.459  0.00  0.00     0.169 HD
ENDROOT
BRANCH   3  13
HETATM   13  C   UNK N   1      35.290  11.960  14.849  0.00  0.00     0.174 C 
BRANCH  13  14
HETATM   14  O   UNK N   1      34.174  12.570  14.271  0.00  0.00    -0.389 OA
HETATM   15  H   UNK N   1      33.235  12.339  14.191  0.00  0.00     0.210 HD
ENDBRANCH  13  14
BRANCH  13  16
HETATM   16  C   UNK N   1      36.535  12.445  14.069  0.00  0.00     0.109 C 
BRANCH  16  17
HETATM   17  N   UNK N   1      36.252  12.359  12.638  0.00  0.00    -0.411 N 
HETATM   18  H   UNK N   1      35.741  11.601  12.186  0.00  0.00     0.154 HD
BRANCH  17  19
HETATM   19  C   UNK N   1      36.811  13.518  11.955  0.00  0.00     0.068 C 
HETATM   20  C   UNK N   1      36.053  14.756  12.388  0.00  0.00     0.031 C 
HETATM   21  C   UNK N   1      36.663  13.369  10.451  0.00  0.00     0.031 C 
ENDBRANCH  17  19
ENDBRANCH  16  17
BRANCH  16  22
HETATM   22  C   UNK N   1      37.813  11.674  14.365  0.00  0.00     0.023 C 
HETATM   23  C   UNK N   1      37.648  10.247  13.867  0.00  0.00     0.007 C 
ENDBRANCH  16  22
ENDBRANCH  13  16
ENDBRANCH   3  13
BRANCH   7  24
HETATM   24  O   UNK N   1      35.260  12.727  20.501  0.00  0.00    -0.358 OA
HETATM   25  H   UNK N   1      35.097  13.580  20.850  0.00  0.00     0.217 HD
ENDBRANCH   7  24
TORSDOF 7
ENDMDL
