REMARK  7 active torsions:
REMARK  status: ('A' for Active; 'I' for Inactive)
REMARK    1  A    between atoms: C_7  and  O_1 
REMARK    2  A    between atoms: O_2  and  C_17 
REMARK    3  A    between atoms: C_6  and  N_4 
REMARK    4  A    between atoms: N_4  and  C_10 
REMARK    5  A    between atoms: C_6  and  C_7 
REMARK    6  A    between atoms: C_6  and  C_8 
REMARK    7  A    between atoms: C_7  and  C_9 
ROOT
HETATM    1  O   UNK N   1       8.623  -3.017   0.044  0.00  0.00    -0.268 OA
HETATM    2  N   UNK N   1       6.387  -3.155  -0.034  0.00  0.00    -0.321 N 
HETATM    3  C   UNK N   1       3.820  -0.492   0.073  0.00  0.00    -0.015 A 
HETATM    4  C   UNK N   1       5.086  -1.133   0.096  0.00  0.00     0.003 A 
HETATM    5  C   UNK N   1       2.675  -1.289  -0.074  0.00  0.00     0.013 A 
HETATM    6  C   UNK N   1       5.172  -2.544  -0.028  0.00  0.00     0.079 A 
HETATM    7  C   UNK N   1       4.003  -3.306  -0.151  0.00  0.00     0.093 A 
HETATM    8  C   UNK N   1       6.277  -0.403   0.223  0.00  0.00     0.020 A 
HETATM    9  C   UNK N   1       2.762  -2.678  -0.175  0.00  0.00     0.039 A 
HETATM   10  C   UNK N   1       7.510  -1.054   0.205  0.00  0.00     0.075 A 
HETATM   11  C   UNK N   1       7.553  -2.441   0.071  0.00  0.00     0.245 A 
HETATM   12  H   UNK N   1       6.430  -4.136  -0.116  0.00  0.00     0.169 HD
ENDROOT
BRANCH   3  13
HETATM   13  C   UNK N   1       3.702   1.026   0.224  0.00  0.00     0.174 C 
BRANCH  13  14
HETATM   14  O   UNK N   1       4.572   1.661  -0.666  0.00  0.00    -0.389 OA
HETATM   15  H   UNK N   1       5.256   1.358  -1.284  0.00  0.00     0.210 HD
ENDBRANCH  13  14
BRANCH  13  16
HETATM   16  C   UNK N   1       2.312   1.681   0.055  0.00  0.00     0.109 C 
BRANCH  16  17
HETATM   17  N   UNK N   1       2.399   3.077   0.478  0.00  0.00    -0.411 N 
HETATM   18  H   UNK N   1       2.933   3.415   1.278  0.00  0.00     0.154 HD
BRANCH  17  19
HETATM   19  C   UNK N   1       1.607   3.913  -0.416  0.00  0.00     0.068 C 
HETATM   20  C   UNK N   1       2.151   5.326  -0.376  0.00  0.00     0.031 C 
HETATM   21  C   UNK N   1       0.158   3.946   0.036  0.00  0.00     0.031 C 
ENDBRANCH  17  19
ENDBRANCH  16  17
BRANCH  16  22
HETATM   22  C   UNK N   1       1.189   1.003   0.826  0.00  0.00     0.023 C 
HETATM   23  C   UNK N   1       0.113   0.573  -0.158  0.00  0.00     0.007 C 
ENDBRANCH  16  22
ENDBRANCH  13  16
ENDBRANCH   3  13
BRANCH   7  24
HETATM   24  O   UNK N   1       4.071  -4.646  -0.252  0.00  0.00    -0.358 OA
HETATM   25  H   UNK N   1       3.287  -5.154  -0.323  0.00  0.00     0.217 HD
ENDBRANCH   7  24
TORSDOF 7
