MODEL 1
REMARK VINA RESULT:      -5.7      0.000      0.000
REMARK  2 active torsions:
REMARK  status: ('A' for Active; 'I' for Inactive)
REMARK    1  A    between atoms: C_2  and  N_1 
REMARK    2  A    between atoms: N_1  and  C_9 
ROOT
HETATM    1  C   UNK N   1      35.491  14.268  12.466  0.00  0.00     0.208 C 
HETATM    2  C   UNK N   1      35.472  15.427  11.596  0.00  0.00    -0.098 C 
HETATM    3  C   UNK N   1      35.488  16.393  10.883  0.00  0.00     0.014 C 
ENDROOT
BRANCH   1   4
HETATM    4  N   UNK N   1      36.797  14.167  13.096  0.00  0.00    -0.403 N 
HETATM    5  H   UNK N   1      37.656  14.634  12.806  0.00  0.00     0.154 HD
BRANCH   4   6
HETATM    6  C   UNK N   1      36.632  13.266  14.219  0.00  0.00     0.111 C 
HETATM    7  C   UNK N   1      35.220  12.638  14.212  0.00  0.00     0.034 C 
HETATM    8  C   UNK N   1      34.896  12.336  15.674  0.00  0.00     0.041 C 
HETATM    9  C   UNK N   1      35.634  13.429  16.324  0.00  0.00    -0.050 A 
HETATM   10  C   UNK N   1      36.584  13.973  15.508  0.00  0.00    -0.030 A 
HETATM   11  C   UNK N   1      35.345  13.970  17.569  0.00  0.00     0.007 A 
HETATM   12  C   UNK N   1      37.304  15.108  15.891  0.00  0.00     0.010 A 
HETATM   13  C   UNK N   1      37.024  15.681  17.141  0.00  0.00     0.001 A 
HETATM   14  C   UNK N   1      36.050  15.108  17.981  0.00  0.00     0.001 A 
ENDBRANCH   4   6
ENDBRANCH   1   4
TORSDOF 2
ENDMDL
MODEL 2
REMARK VINA RESULT:      -5.6     22.820     25.967
REMARK  2 active torsions:
REMARK  status: ('A' for Active; 'I' for Inactive)
REMARK    1  A    between atoms: C_2  and  N_1 
REMARK    2  A    between atoms: N_1  and  C_9 
ROOT
HETATM    1  C   UNK N   1      26.510  24.316  -5.769  0.00  0.00     0.208 C 
HETATM    2  C   UNK N   1      26.831  24.262  -4.356  0.00  0.00    -0.098 C 
HETATM    3  C   UNK N   1      27.070  24.233  -3.180  0.00  0.00     0.014 C 
ENDROOT
BRANCH   1   4
HETATM    4  N   UNK N   1      25.263  25.042  -5.945  0.00  0.00    -0.403 N 
HETATM    5  H   UNK N   1      24.341  24.769  -5.605  0.00  0.00     0.154 HD
BRANCH   4   6
HETATM    6  C   UNK N   1      25.596  26.231  -6.704  0.00  0.00     0.111 C 
HETATM    7  C   UNK N   1      26.930  26.042  -7.458  0.00  0.00     0.034 C 
HETATM    8  C   UNK N   1      27.528  27.442  -7.596  0.00  0.00     0.041 C 
HETATM    9  C   UNK N   1      27.012  28.055  -6.364  0.00  0.00    -0.050 A 
HETATM   10  C   UNK N   1      25.954  27.368  -5.843  0.00  0.00    -0.030 A 
HETATM   11  C   UNK N   1      27.586  29.128  -5.695  0.00  0.00     0.007 A 
HETATM   12  C   UNK N   1      25.404  27.714  -4.605  0.00  0.00     0.010 A 
HETATM   13  C   UNK N   1      25.973  28.788  -3.902  0.00  0.00     0.001 A 
HETATM   14  C   UNK N   1      27.058  29.498  -4.451  0.00  0.00     0.001 A 
ENDBRANCH   4   6
ENDBRANCH   1   4
TORSDOF 2
ENDMDL
MODEL 3
REMARK VINA RESULT:      -5.4      9.139     11.125
REMARK  2 active torsions:
REMARK  status: ('A' for Active; 'I' for Inactive)
REMARK    1  A    between atoms: C_2  and  N_1 
REMARK    2  A    between atoms: N_1  and  C_9 
ROOT
HETATM    1  C   UNK N   1      27.733  19.374   6.648  0.00  0.00     0.208 C 
HETATM    2  C   UNK N   1      27.557  19.740   5.257  0.00  0.00    -0.098 C 
HETATM    3  C   UNK N   1      27.404  20.013   4.097  0.00  0.00     0.014 C 
ENDROOT
BRANCH   1   4
HETATM    4  N   UNK N   1      27.510  17.945   6.796  0.00  0.00    -0.403 N 
HETATM    5  H   UNK N   1      26.901  17.357   6.227  0.00  0.00     0.154 HD
BRANCH   4   6
HETATM    6  C   UNK N   1      28.329  17.526   7.916  0.00  0.00     0.111 C 
HETATM    7  C   UNK N   1      28.447  18.658   8.959  0.00  0.00     0.034 C 
HETATM    8  C   UNK N   1      29.792  18.441   9.653  0.00  0.00     0.041 C 
HETATM    9  C   UNK N   1      30.554  17.857   8.540  0.00  0.00    -0.050 A 
HETATM   10  C   UNK N   1      29.746  17.371   7.553  0.00  0.00    -0.030 A 
HETATM   11  C   UNK N   1      31.935  17.893   8.401  0.00  0.00     0.007 A 
HETATM   12  C   UNK N   1      30.277  16.894   6.351  0.00  0.00     0.010 A 
HETATM   13  C   UNK N   1      31.670  16.929   6.180  0.00  0.00     0.001 A 
HETATM   14  C   UNK N   1      32.497  17.422   7.207  0.00  0.00     0.001 A 
ENDBRANCH   4   6
ENDBRANCH   1   4
TORSDOF 2
ENDMDL
MODEL 4
REMARK VINA RESULT:      -5.2      3.377      3.840
REMARK  2 active torsions:
REMARK  status: ('A' for Active; 'I' for Inactive)
REMARK    1  A    between atoms: C_2  and  N_1 
REMARK    2  A    between atoms: N_1  and  C_9 
ROOT
HETATM    1  C   UNK N   1      33.714  10.742  14.463  0.00  0.00     0.208 C 
HETATM    2  C   UNK N   1      33.736  10.346  13.069  0.00  0.00    -0.098 C 
HETATM    3  C   UNK N   1      33.780  10.038  11.909  0.00  0.00     0.014 C 
ENDROOT
BRANCH   1   4
HETATM    4  N   UNK N   1      34.746  11.739  14.691  0.00  0.00    -0.403 N 
HETATM    5  H   UNK N   1      34.840  12.641  14.226  0.00  0.00     0.154 HD
BRANCH   4   6
HETATM    6  C   UNK N   1      35.614  11.190  15.714  0.00  0.00     0.111 C 
HETATM    7  C   UNK N   1      35.128   9.790  16.148  0.00  0.00     0.034 C 
HETATM    8  C   UNK N   1      35.584   9.626  17.597  0.00  0.00     0.041 C 
HETATM    9  C   UNK N   1      35.512  11.025  18.041  0.00  0.00    -0.050 A 
HETATM   10  C   UNK N   1      35.496  11.903  16.996  0.00  0.00    -0.030 A 
HETATM   11  C   UNK N   1      35.339  11.448  19.352  0.00  0.00     0.007 A 
HETATM   12  C   UNK N   1      35.299  13.271  17.201  0.00  0.00     0.010 A 
HETATM   13  C   UNK N   1      35.112  13.725  18.517  0.00  0.00     0.001 A 
HETATM   14  C   UNK N   1      35.139  12.814  19.590  0.00  0.00     0.001 A 
ENDBRANCH   4   6
ENDBRANCH   1   4
TORSDOF 2
ENDMDL
MODEL 5
REMARK VINA RESULT:      -5.2      4.430      7.064
REMARK  2 active torsions:
REMARK  status: ('A' for Active; 'I' for Inactive)
REMARK    1  A    between atoms: C_2  and  N_1 
REMARK    2  A    between atoms: N_1  and  C_9 
ROOT
HETATM    1  C   UNK N   1      33.390   9.020  20.212  0.00  0.00     0.208 C 
HETATM    2  C   UNK N   1      32.042   8.502  20.088  0.00  0.00    -0.098 C 
HETATM    3  C   UNK N   1      30.932   8.063  19.954  0.00  0.00     0.014 C 
ENDROOT
BRANCH   1   4
HETATM    4  N   UNK N   1      34.090   8.831  18.953  0.00  0.00    -0.403 N 
HETATM    5  H   UNK N   1      33.902   8.120  18.247  0.00  0.00     0.154 HD
BRANCH   4   6
HETATM    6  C   UNK N   1      35.110   9.860  18.904  0.00  0.00     0.111 C 
HETATM    7  C   UNK N   1      34.870  10.920  20.001  0.00  0.00     0.034 C 
HETATM    8  C   UNK N   1      35.464  12.218  19.458  0.00  0.00     0.041 C 
HETATM    9  C   UNK N   1      35.228  12.018  18.021  0.00  0.00    -0.050 A 
HETATM   10  C   UNK N   1      35.000  10.709  17.708  0.00  0.00    -0.030 A 
HETATM   11  C   UNK N   1      35.107  13.026  17.075  0.00  0.00     0.007 A 
HETATM   12  C   UNK N   1      34.626  10.327  16.417  0.00  0.00     0.010 A 
HETATM   13  C   UNK N   1      34.486  11.329  15.442  0.00  0.00     0.001 A 
HETATM   14  C   UNK N   1      34.733  12.675  15.771  0.00  0.00     0.001 A 
ENDBRANCH   4   6
ENDBRANCH   1   4
TORSDOF 2
ENDMDL
MODEL 6
REMARK VINA RESULT:      -5.2     20.331     24.072
REMARK  2 active torsions:
REMARK  status: ('A' for Active; 'I' for Inactive)
REMARK    1  A    between atoms: C_2  and  N_1 
REMARK    2  A    between atoms: N_1  and  C_9 
ROOT
HETATM    1  C   UNK N   1      29.056  23.467  -4.226  0.00  0.00     0.208 C 
HETATM    2  C   UNK N   1      30.123  22.905  -3.422  0.00  0.00    -0.098 C 
HETATM    3  C   UNK N   1      30.994  22.454  -2.729  0.00  0.00     0.014 C 
ENDROOT
BRANCH   1   4
HETATM    4  N   UNK N   1      28.176  24.246  -3.371  0.00  0.00    -0.403 N 
HETATM    5  H   UNK N   1      28.427  24.728  -2.509  0.00  0.00     0.154 HD
BRANCH   4   6
HETATM    6  C   UNK N   1      26.867  24.197  -3.993  0.00  0.00     0.111 C 
HETATM    7  C   UNK N   1      26.984  23.791  -5.479  0.00  0.00     0.034 C 
HETATM    8  C   UNK N   1      25.788  24.436  -6.178  0.00  0.00     0.041 C 
HETATM    9  C   UNK N   1      25.639  25.644  -5.353  0.00  0.00    -0.050 A 
HETATM   10  C   UNK N   1      26.265  25.530  -4.145  0.00  0.00    -0.030 A 
HETATM   11  C   UNK N   1      25.057  26.835  -5.765  0.00  0.00     0.007 A 
HETATM   12  C   UNK N   1      26.352  26.616  -3.270  0.00  0.00     0.010 A 
HETATM   13  C   UNK N   1      25.780  27.836  -3.665  0.00  0.00     0.001 A 
HETATM   14  C   UNK N   1      25.128  27.942  -4.909  0.00  0.00     0.001 A 
ENDBRANCH   4   6
ENDBRANCH   1   4
TORSDOF 2
ENDMDL
MODEL 7
REMARK VINA RESULT:      -4.9     13.546     14.878
REMARK  2 active torsions:
REMARK  status: ('A' for Active; 'I' for Inactive)
REMARK    1  A    between atoms: C_2  and  N_1 
REMARK    2  A    between atoms: N_1  and  C_9 
ROOT
HETATM    1  C   UNK N   1      20.857  14.559   6.660  0.00  0.00     0.208 C 
HETATM    2  C   UNK N   1      20.456  15.638   7.540  0.00  0.00    -0.098 C 
HETATM    3  C   UNK N   1      20.133  16.515   8.295  0.00  0.00     0.014 C 
ENDROOT
BRANCH   1   4
HETATM    4  N   UNK N   1      21.363  13.456   7.460  0.00  0.00    -0.403 N 
HETATM    5  H   UNK N   1      20.960  12.522   7.542  0.00  0.00     0.154 HD
BRANCH   4   6
HETATM    6  C   UNK N   1      22.556  13.952   8.118  0.00  0.00     0.111 C 
HETATM    7  C   UNK N   1      23.822  13.541   7.335  0.00  0.00     0.034 C 
HETATM    8  C   UNK N   1      24.937  13.448   8.375  0.00  0.00     0.041 C 
HETATM    9  C   UNK N   1      24.154  13.023   9.544  0.00  0.00    -0.050 A 
HETATM   10  C   UNK N   1      22.820  13.273   9.395  0.00  0.00    -0.030 A 
HETATM   11  C   UNK N   1      24.648  12.322  10.635  0.00  0.00     0.007 A 
HETATM   12  C   UNK N   1      21.890  12.825  10.338  0.00  0.00     0.010 A 
HETATM   13  C   UNK N   1      22.362  12.105  11.447  0.00  0.00     0.001 A 
HETATM   14  C   UNK N   1      23.740  11.860  11.597  0.00  0.00     0.001 A 
ENDBRANCH   4   6
ENDBRANCH   1   4
TORSDOF 2
ENDMDL
MODEL 8
REMARK VINA RESULT:      -4.8     12.348     15.908
REMARK  2 active torsions:
REMARK  status: ('A' for Active; 'I' for Inactive)
REMARK    1  A    between atoms: C_2  and  N_1 
REMARK    2  A    between atoms: N_1  and  C_9 
ROOT
HETATM    1  C   UNK N   1      27.758  19.230   6.380  0.00  0.00     0.208 C 
HETATM    2  C   UNK N   1      28.100  18.842   7.734  0.00  0.00    -0.098 C 
HETATM    3  C   UNK N   1      28.361  18.494   8.853  0.00  0.00     0.014 C 
ENDROOT
BRANCH   1   4
HETATM    4  N   UNK N   1      26.755  18.316   5.861  0.00  0.00    -0.403 N 
HETATM    5  H   UNK N   1      26.283  17.569   6.371  0.00  0.00     0.154 HD
BRANCH   4   6
HETATM    6  C   UNK N   1      26.563  18.679   4.471  0.00  0.00     0.111 C 
HETATM    7  C   UNK N   1      27.104  20.100   4.198  0.00  0.00     0.034 C 
HETATM    8  C   UNK N   1      26.269  20.644   3.040  0.00  0.00     0.041 C 
HETATM    9  C   UNK N   1      24.995  19.962   3.309  0.00  0.00    -0.050 A 
HETATM   10  C   UNK N   1      25.146  18.883   4.132  0.00  0.00    -0.030 A 
HETATM   11  C   UNK N   1      23.742  20.405   2.909  0.00  0.00     0.007 A 
HETATM   12  C   UNK N   1      24.039  18.178   4.612  0.00  0.00     0.010 A 
HETATM   13  C   UNK N   1      22.759  18.611   4.231  0.00  0.00     0.001 A 
HETATM   14  C   UNK N   1      22.612  19.719   3.374  0.00  0.00     0.001 A 
ENDBRANCH   4   6
ENDBRANCH   1   4
TORSDOF 2
ENDMDL
MODEL 9
REMARK VINA RESULT:      -4.8     14.469     16.263
REMARK  2 active torsions:
REMARK  status: ('A' for Active; 'I' for Inactive)
REMARK    1  A    between atoms: C_2  and  N_1 
REMARK    2  A    between atoms: N_1  and  C_9 
ROOT
HETATM    1  C   UNK N   1      23.296  12.139  10.602  0.00  0.00     0.208 C 
HETATM    2  C   UNK N   1      23.264  11.980  12.042  0.00  0.00    -0.098 C 
HETATM    3  C   UNK N   1      23.219  11.877  13.238  0.00  0.00     0.014 C 
ENDROOT
BRANCH   1   4
HETATM    4  N   UNK N   1      22.591  13.358  10.241  0.00  0.00    -0.403 N 
HETATM    5  H   UNK N   1      22.787  14.301  10.575  0.00  0.00     0.154 HD
BRANCH   4   6
HETATM    6  C   UNK N   1      21.554  12.960   9.310  0.00  0.00     0.111 C 
HETATM    7  C   UNK N   1      22.156  12.169   8.127  0.00  0.00     0.034 C 
HETATM    8  C   UNK N   1      21.223  12.423   6.944  0.00  0.00     0.041 C 
HETATM    9  C   UNK N   1      20.772  13.784   7.270  0.00  0.00    -0.050 A 
HETATM   10  C   UNK N   1      20.981  14.102   8.581  0.00  0.00    -0.030 A 
HETATM   11  C   UNK N   1      20.307  14.721   6.357  0.00  0.00     0.007 A 
HETATM   12  C   UNK N   1      20.742  15.393   9.061  0.00  0.00     0.010 A 
HETATM   13  C   UNK N   1      20.281  16.363   8.156  0.00  0.00     0.001 A 
HETATM   14  C   UNK N   1      20.058  16.024   6.807  0.00  0.00     0.001 A 
ENDBRANCH   4   6
ENDBRANCH   1   4
TORSDOF 2
ENDMDL
