REMARK  0 active torsions:
REMARK  status: ('A' for Active; 'I' for Inactive)
ROOT
HETATM    1 Al   UNK N   1       2.000   0.000   0.000  0.00  0.00     0.000 Al
HETATM    2  H   UNK N   1       3.460   0.000   0.000  0.00  0.00     0.000 HD
HETATM    3  H   UNK N   1       1.270   1.264   0.000  0.00  0.00     0.000 HD
HETATM    4  H   UNK N   1       1.270  -1.264   0.000  0.00  0.00     0.000 HD
ENDROOT
TORSDOF 0
