MODEL 1
REMARK VINA RESULT:      -7.9      0.000      0.000
REMARK  5 active torsions:
REMARK  status: ('A' for Active; 'I' for Inactive)
REMARK    1  A    between atoms: C_11  and  O_1 
REMARK    2  A    between atoms: O_4  and  C_27 
REMARK    3  A    between atoms: O_4  and  C_28 
REMARK    4  A    between atoms: C_11  and  C_22 
REMARK    5  A    between atoms: C_22  and  C_27 
ROOT
HETATM    1  O   UNK N   1      30.674  24.416  -2.924  0.00  0.00    -0.297 OA
HETATM    2  O   UNK N   1      33.771  19.032  -4.156  0.00  0.00    -0.293 OA
HETATM    3  C   UNK N   1      27.910  23.977  -5.806  0.00  0.00     0.002 C 
HETATM    4  C   UNK N   1      27.751  24.882  -4.581  0.00  0.00     0.005 C 
HETATM    5  C   UNK N   1      28.851  22.787  -5.492  0.00  0.00     0.003 C 
HETATM    6  C   UNK N   1      30.247  23.288  -5.010  0.00  0.00     0.072 C 
HETATM    7  C   UNK N   1      26.549  25.779  -4.957  0.00  0.00     0.128 C 
HETATM    8  C   UNK N   1      31.060  22.064  -4.470  0.00  0.00    -0.009 C 
HETATM    9  C   UNK N   1      26.467  23.608  -6.148  0.00  0.00     0.009 C 
HETATM   10  C   UNK N   1      29.103  25.544  -4.282  0.00  0.00     0.091 C 
HETATM   11  C   UNK N   1      25.593  24.760  -5.595  0.00  0.00     0.047 C 
HETATM   12  C   UNK N   1      29.057  21.901  -6.719  0.00  0.00     0.010 C 
HETATM   13  C   UNK N   1      30.092  24.434  -3.998  0.00  0.00     0.133 C 
HETATM   14  C   UNK N   1      27.332  24.057  -3.334  0.00  0.00     0.019 C 
HETATM   15  C   UNK N   1      31.067  20.910  -5.472  0.00  0.00    -0.067 C 
HETATM   16  C   UNK N   1      29.910  20.669  -6.412  0.00  0.00     0.035 C 
HETATM   17  C   UNK N   1      32.512  22.466  -4.161  0.00  0.00     0.022 C 
HETATM   18  C   UNK N   1      30.413  21.540  -3.179  0.00  0.00     0.021 C 
HETATM   19  C   UNK N   1      33.345  21.292  -3.623  0.00  0.00     0.084 C 
HETATM   20  C   UNK N   1      31.966  19.920  -5.341  0.00  0.00     0.053 C 
HETATM   21  C   UNK N   1      33.074  20.011  -4.367  0.00  0.00     0.149 C 
ENDROOT
BRANCH   7  22
HETATM   22  O   UNK N   1      25.969  26.309  -3.795  0.00  0.00    -0.381 OA
HETATM   23  H   UNK N   1      25.420  27.096  -3.657  0.00  0.00     0.211 HD
ENDBRANCH   7  22
BRANCH   7  24
HETATM   24  C   UNK N   1      26.791  26.943  -5.923  0.00  0.00     0.185 C 
HETATM   25  O   UNK N   1      26.620  26.760  -7.119  0.00  0.00    -0.292 OA
BRANCH  24  26
HETATM   26  C   UNK N   1      27.301  28.294  -5.495  0.00  0.00     0.260 C 
BRANCH  26  27
HETATM   27  O   UNK N   1      26.365  29.020  -4.779  0.00  0.00    -0.314 OA
BRANCH  27  28
HETATM   28  C   UNK N   1      26.557  29.578  -3.550  0.00  0.00     0.255 C 
HETATM   29  O   UNK N   1      26.712  28.853  -2.586  0.00  0.00    -0.266 OA
HETATM   30  C   UNK N   1      26.610  31.062  -3.354  0.00  0.00     0.126 C 
ENDBRANCH  27  28
ENDBRANCH  26  27
ENDBRANCH  24  26
ENDBRANCH   7  24
TORSDOF 5
ENDMDL
MODEL 2
REMARK VINA RESULT:      -7.6     14.208     15.874
REMARK  5 active torsions:
REMARK  status: ('A' for Active; 'I' for Inactive)
REMARK    1  A    between atoms: C_11  and  O_1 
REMARK    2  A    between atoms: O_4  and  C_27 
REMARK    3  A    between atoms: O_4  and  C_28 
REMARK    4  A    between atoms: C_11  and  C_22 
REMARK    5  A    between atoms: C_22  and  C_27 
ROOT
HETATM    1  O   UNK N   1      19.950  13.949   7.736  0.00  0.00    -0.297 OA
HETATM    2  O   UNK N   1      24.648  11.705  11.338  0.00  0.00    -0.293 OA
HETATM    3  C   UNK N   1      22.317  15.707   5.008  0.00  0.00     0.002 C 
HETATM    4  C   UNK N   1      20.854  15.324   4.770  0.00  0.00     0.005 C 
HETATM    5  C   UNK N   1      22.965  14.776   6.064  0.00  0.00     0.003 C 
HETATM    6  C   UNK N   1      22.174  14.817   7.407  0.00  0.00     0.072 C 
HETATM    7  C   UNK N   1      20.490  16.100   3.482  0.00  0.00     0.128 C 
HETATM    8  C   UNK N   1      22.712  13.681   8.340  0.00  0.00    -0.009 C 
HETATM    9  C   UNK N   1      22.921  15.639   3.606  0.00  0.00     0.009 C 
HETATM   10  C   UNK N   1      20.059  15.603   6.052  0.00  0.00     0.091 C 
HETATM   11  C   UNK N   1      21.747  15.881   2.626  0.00  0.00     0.047 C 
HETATM   12  C   UNK N   1      24.411  15.176   6.347  0.00  0.00     0.010 C 
HETATM   13  C   UNK N   1      20.661  14.750   7.147  0.00  0.00     0.133 C 
HETATM   14  C   UNK N   1      20.725  13.811   4.443  0.00  0.00     0.019 C 
HETATM   15  C   UNK N   1      24.236  13.724   8.454  0.00  0.00    -0.067 C 
HETATM   16  C   UNK N   1      25.101  14.218   7.319  0.00  0.00     0.035 C 
HETATM   17  C   UNK N   1      22.104  13.796   9.748  0.00  0.00     0.022 C 
HETATM   18  C   UNK N   1      22.340  12.309   7.757  0.00  0.00     0.021 C 
HETATM   19  C   UNK N   1      22.604  12.695  10.697  0.00  0.00     0.084 C 
HETATM   20  C   UNK N   1      24.849  13.058   9.447  0.00  0.00     0.053 C 
HETATM   21  C   UNK N   1      24.080  12.439  10.547  0.00  0.00     0.149 C 
ENDROOT
BRANCH   7  22
HETATM   22  O   UNK N   1      19.386  15.498   2.861  0.00  0.00    -0.381 OA
HETATM   23  H   UNK N   1      18.871  15.760   2.082  0.00  0.00     0.211 HD
ENDBRANCH   7  22
BRANCH   7  24
HETATM   24  C   UNK N   1      20.193  17.597   3.601  0.00  0.00     0.185 C 
HETATM   25  O   UNK N   1      19.116  18.017   3.204  0.00  0.00    -0.292 OA
BRANCH  24  26
HETATM   26  C   UNK N   1      21.183  18.608   4.116  0.00  0.00     0.260 C 
BRANCH  26  27
HETATM   27  O   UNK N   1      21.964  19.155   3.114  0.00  0.00    -0.314 OA
BRANCH  27  28
HETATM   28  C   UNK N   1      21.798  20.388   2.554  0.00  0.00     0.255 C 
HETATM   29  O   UNK N   1      22.521  21.302   2.905  0.00  0.00    -0.266 OA
HETATM   30  C   UNK N   1      20.768  20.646   1.497  0.00  0.00     0.126 C 
ENDBRANCH  27  28
ENDBRANCH  26  27
ENDBRANCH  24  26
ENDBRANCH   7  24
TORSDOF 5
ENDMDL
MODEL 3
REMARK VINA RESULT:      -7.5     12.106     15.188
REMARK  5 active torsions:
REMARK  status: ('A' for Active; 'I' for Inactive)
REMARK    1  A    between atoms: C_11  and  O_1 
REMARK    2  A    between atoms: O_4  and  C_27 
REMARK    3  A    between atoms: O_4  and  C_28 
REMARK    4  A    between atoms: C_11  and  C_22 
REMARK    5  A    between atoms: C_22  and  C_27 
ROOT
HETATM    1  O   UNK N   1      32.459  13.434   7.638  0.00  0.00    -0.297 OA
HETATM    2  O   UNK N   1      36.184  15.540  12.305  0.00  0.00    -0.293 OA
HETATM    3  C   UNK N   1      32.346  16.892   5.600  0.00  0.00     0.002 C 
HETATM    4  C   UNK N   1      32.029  15.520   4.999  0.00  0.00     0.005 C 
HETATM    5  C   UNK N   1      33.337  16.760   6.783  0.00  0.00     0.003 C 
HETATM    6  C   UNK N   1      32.773  15.810   7.883  0.00  0.00     0.072 C 
HETATM    7  C   UNK N   1      31.333  15.870   3.663  0.00  0.00     0.128 C 
HETATM    8  C   UNK N   1      33.908  15.513   8.920  0.00  0.00    -0.009 C 
HETATM    9  C   UNK N   1      32.854  17.684   4.395  0.00  0.00     0.009 C 
HETATM   10  C   UNK N   1      31.261  14.695   6.040  0.00  0.00     0.091 C 
HETATM   11  C   UNK N   1      32.212  17.022   3.152  0.00  0.00     0.047 C 
HETATM   12  C   UNK N   1      33.626  18.116   7.423  0.00  0.00     0.010 C 
HETATM   13  C   UNK N   1      32.159  14.552   7.250  0.00  0.00     0.133 C 
HETATM   14  C   UNK N   1      33.335  14.756   4.647  0.00  0.00     0.019 C 
HETATM   15  C   UNK N   1      34.566  16.802   9.414  0.00  0.00    -0.067 C 
HETATM   16  C   UNK N   1      34.672  18.025   8.536  0.00  0.00     0.035 C 
HETATM   17  C   UNK N   1      33.356  14.739  10.128  0.00  0.00     0.022 C 
HETATM   18  C   UNK N   1      35.008  14.668   8.259  0.00  0.00     0.021 C 
HETATM   19  C   UNK N   1      34.441  14.424  11.171  0.00  0.00     0.084 C 
HETATM   20  C   UNK N   1      35.317  16.781  10.528  0.00  0.00     0.053 C 
HETATM   21  C   UNK N   1      35.370  15.587  11.398  0.00  0.00     0.149 C 
ENDROOT
BRANCH   7  22
HETATM   22  O   UNK N   1      31.421  14.782   2.782  0.00  0.00    -0.381 OA
HETATM   23  H   UNK N   1      30.910  13.960   2.731  0.00  0.00     0.211 HD
ENDBRANCH   7  22
BRANCH   7  24
HETATM   24  C   UNK N   1      29.868  16.311   3.707  0.00  0.00     0.185 C 
HETATM   25  O   UNK N   1      29.046  15.687   3.053  0.00  0.00    -0.292 OA
BRANCH  24  26
HETATM   26  C   UNK N   1      29.381  17.523   4.455  0.00  0.00     0.260 C 
BRANCH  26  27
HETATM   27  O   UNK N   1      28.777  17.205   5.659  0.00  0.00    -0.314 OA
BRANCH  27  28
HETATM   28  C   UNK N   1      28.781  17.977   6.784  0.00  0.00     0.255 C 
HETATM   29  O   UNK N   1      28.068  18.961   6.831  0.00  0.00    -0.266 OA
HETATM   30  C   UNK N   1      29.619  17.633   7.977  0.00  0.00     0.126 C 
ENDBRANCH  27  28
ENDBRANCH  26  27
ENDBRANCH  24  26
ENDBRANCH   7  24
TORSDOF 5
ENDMDL
MODEL 4
REMARK VINA RESULT:      -7.3      1.202      2.543
REMARK  5 active torsions:
REMARK  status: ('A' for Active; 'I' for Inactive)
REMARK    1  A    between atoms: C_11  and  O_1 
REMARK    2  A    between atoms: O_4  and  C_27 
REMARK    3  A    between atoms: O_4  and  C_28 
REMARK    4  A    between atoms: C_11  and  C_22 
REMARK    5  A    between atoms: C_22  and  C_27 
ROOT
HETATM    1  O   UNK N   1      30.808  24.170  -2.673  0.00  0.00    -0.297 OA
HETATM    2  O   UNK N   1      33.678  18.889  -4.665  0.00  0.00    -0.293 OA
HETATM    3  C   UNK N   1      27.888  24.124  -5.431  0.00  0.00     0.002 C 
HETATM    4  C   UNK N   1      27.819  24.889  -4.106  0.00  0.00     0.005 C 
HETATM    5  C   UNK N   1      28.808  22.885  -5.304  0.00  0.00     0.003 C 
HETATM    6  C   UNK N   1      30.241  23.296  -4.846  0.00  0.00     0.072 C 
HETATM    7  C   UNK N   1      26.625  25.850  -4.313  0.00  0.00     0.128 C 
HETATM    8  C   UNK N   1      31.045  22.000  -4.491  0.00  0.00    -0.009 C 
HETATM    9  C   UNK N   1      26.418  23.830  -5.733  0.00  0.00     0.009 C 
HETATM   10  C   UNK N   1      29.203  25.480  -3.808  0.00  0.00     0.091 C 
HETATM   11  C   UNK N   1      25.608  24.931  -5.008  0.00  0.00     0.047 C 
HETATM   12  C   UNK N   1      28.924  22.139  -6.631  0.00  0.00     0.010 C 
HETATM   13  C   UNK N   1      30.172  24.323  -3.705  0.00  0.00     0.133 C 
HETATM   14  C   UNK N   1      27.440  23.938  -2.938  0.00  0.00     0.019 C 
HETATM   15  C   UNK N   1      30.967  20.966  -5.614  0.00  0.00    -0.067 C 
HETATM   16  C   UNK N   1      29.756  20.860  -6.510  0.00  0.00     0.035 C 
HETATM   17  C   UNK N   1      32.522  22.330  -4.219  0.00  0.00     0.022 C 
HETATM   18  C   UNK N   1      30.450  21.348  -3.233  0.00  0.00     0.021 C 
HETATM   19  C   UNK N   1      33.347  21.084  -3.861  0.00  0.00     0.084 C 
HETATM   20  C   UNK N   1      31.842  19.947  -5.644  0.00  0.00     0.053 C 
HETATM   21  C   UNK N   1      33.001  19.902  -4.727  0.00  0.00     0.149 C 
ENDROOT
BRANCH   7  22
HETATM   22  O   UNK N   1      26.121  26.258  -3.069  0.00  0.00    -0.381 OA
HETATM   23  H   UNK N   1      26.159  25.837  -2.197  0.00  0.00     0.211 HD
ENDBRANCH   7  22
BRANCH   7  24
HETATM   24  C   UNK N   1      26.850  27.109  -5.154  0.00  0.00     0.185 C 
HETATM   25  O   UNK N   1      27.487  28.034  -4.671  0.00  0.00    -0.292 OA
BRANCH  24  26
HETATM   26  C   UNK N   1      26.271  27.313  -6.529  0.00  0.00     0.260 C 
BRANCH  26  27
HETATM   27  O   UNK N   1      27.093  26.839  -7.535  0.00  0.00    -0.314 OA
BRANCH  27  28
HETATM   28  C   UNK N   1      26.700  26.079  -8.597  0.00  0.00     0.255 C 
HETATM   29  O   UNK N   1      25.563  26.186  -9.016  0.00  0.00    -0.266 OA
HETATM   30  C   UNK N   1      27.637  25.134  -9.286  0.00  0.00     0.126 C 
ENDBRANCH  27  28
ENDBRANCH  26  27
ENDBRANCH  24  26
ENDBRANCH   7  24
TORSDOF 5
ENDMDL
MODEL 5
REMARK VINA RESULT:      -7.3     10.771     12.891
REMARK  5 active torsions:
REMARK  status: ('A' for Active; 'I' for Inactive)
REMARK    1  A    between atoms: C_11  and  O_1 
REMARK    2  A    between atoms: O_4  and  C_27 
REMARK    3  A    between atoms: O_4  and  C_28 
REMARK    4  A    between atoms: C_11  and  C_22 
REMARK    5  A    between atoms: C_22  and  C_27 
ROOT
HETATM    1  O   UNK N   1      30.008  17.151   8.836  0.00  0.00    -0.297 OA
HETATM    2  O   UNK N   1      35.907  14.864   8.587  0.00  0.00    -0.293 OA
HETATM    3  C   UNK N   1      29.577  17.630   4.872  0.00  0.00     0.002 C 
HETATM    4  C   UNK N   1      28.416  17.533   5.866  0.00  0.00     0.005 C 
HETATM    5  C   UNK N   1      30.816  16.863   5.397  0.00  0.00     0.003 C 
HETATM    6  C   UNK N   1      31.258  17.400   6.792  0.00  0.00     0.072 C 
HETATM    7  C   UNK N   1      27.205  18.035   5.045  0.00  0.00     0.128 C 
HETATM    8  C   UNK N   1      32.340  16.434   7.382  0.00  0.00    -0.009 C 
HETATM    9  C   UNK N   1      28.965  17.094   3.578  0.00  0.00     0.009 C 
HETATM   10  C   UNK N   1      28.804  18.282   7.147  0.00  0.00     0.091 C 
HETATM   11  C   UNK N   1      27.442  17.345   3.693  0.00  0.00     0.047 C 
HETATM   12  C   UNK N   1      31.998  16.991   4.438  0.00  0.00     0.010 C 
HETATM   13  C   UNK N   1      30.040  17.608   7.704  0.00  0.00     0.133 C 
HETATM   14  C   UNK N   1      28.131  16.053   6.240  0.00  0.00     0.019 C 
HETATM   15  C   UNK N   1      33.460  16.166   6.377  0.00  0.00    -0.067 C 
HETATM   16  C   UNK N   1      33.206  16.168   4.888  0.00  0.00     0.035 C 
HETATM   17  C   UNK N   1      32.951  17.017   8.667  0.00  0.00     0.022 C 
HETATM   18  C   UNK N   1      31.698  15.079   7.717  0.00  0.00     0.021 C 
HETATM   19  C   UNK N   1      34.017  16.095   9.282  0.00  0.00     0.084 C 
HETATM   20  C   UNK N   1      34.623  15.642   6.799  0.00  0.00     0.053 C 
HETATM   21  C   UNK N   1      34.921  15.492   8.240  0.00  0.00     0.149 C 
ENDROOT
BRANCH   7  22
HETATM   22  O   UNK N   1      26.015  17.560   5.616  0.00  0.00    -0.381 OA
HETATM   23  H   UNK N   1      25.581  16.695   5.560  0.00  0.00     0.211 HD
ENDBRANCH   7  22
BRANCH   7  24
HETATM   24  C   UNK N   1      27.048  19.544   4.841  0.00  0.00     0.185 C 
HETATM   25  O   UNK N   1      28.048  20.220   4.651  0.00  0.00    -0.292 OA
BRANCH  24  26
HETATM   26  C   UNK N   1      25.730  20.269   4.930  0.00  0.00     0.260 C 
BRANCH  26  27
HETATM   27  O   UNK N   1      24.764  19.732   4.098  0.00  0.00    -0.314 OA
BRANCH  27  28
HETATM   28  C   UNK N   1      24.165  20.372   3.053  0.00  0.00     0.255 C 
HETATM   29  O   UNK N   1      24.854  20.974   2.251  0.00  0.00    -0.266 OA
HETATM   30  C   UNK N   1      22.682  20.333   2.845  0.00  0.00     0.126 C 
ENDBRANCH  27  28
ENDBRANCH  26  27
ENDBRANCH  24  26
ENDBRANCH   7  24
TORSDOF 5
ENDMDL
MODEL 6
REMARK VINA RESULT:      -7.2     20.131     23.592
REMARK  5 active torsions:
REMARK  status: ('A' for Active; 'I' for Inactive)
REMARK    1  A    between atoms: C_11  and  O_1 
REMARK    2  A    between atoms: O_4  and  C_27 
REMARK    3  A    between atoms: O_4  and  C_28 
REMARK    4  A    between atoms: C_11  and  C_22 
REMARK    5  A    between atoms: C_22  and  C_27 
ROOT
HETATM    1  O   UNK N   1      34.256  12.933  15.322  0.00  0.00    -0.297 OA
HETATM    2  O   UNK N   1      35.646   9.145  20.202  0.00  0.00    -0.293 OA
HETATM    3  C   UNK N   1      37.037  11.447  12.834  0.00  0.00     0.002 C 
HETATM    4  C   UNK N   1      35.800  12.230  12.385  0.00  0.00     0.005 C 
HETATM    5  C   UNK N   1      36.768  10.713  14.170  0.00  0.00     0.003 C 
HETATM    6  C   UNK N   1      36.334  11.715  15.283  0.00  0.00     0.072 C 
HETATM    7  C   UNK N   1      36.124  12.593  10.917  0.00  0.00     0.128 C 
HETATM    8  C   UNK N   1      35.835  10.901  16.524  0.00  0.00    -0.009 C 
HETATM    9  C   UNK N   1      37.329  10.550  11.632  0.00  0.00     0.009 C 
HETATM   10  C   UNK N   1      35.544  13.362  13.389  0.00  0.00     0.091 C 
HETATM   11  C   UNK N   1      36.734  11.280  10.403  0.00  0.00     0.047 C 
HETATM   12  C   UNK N   1      38.009   9.966  14.655  0.00  0.00     0.010 C 
HETATM   13  C   UNK N   1      35.307  12.719  14.738  0.00  0.00     0.133 C 
HETATM   14  C   UNK N   1      34.545  11.315  12.362  0.00  0.00     0.019 C 
HETATM   15  C   UNK N   1      36.846   9.831  16.937  0.00  0.00    -0.067 C 
HETATM   16  C   UNK N   1      37.744   9.158  15.927  0.00  0.00     0.035 C 
HETATM   17  C   UNK N   1      35.576  11.831  17.720  0.00  0.00     0.022 C 
HETATM   18  C   UNK N   1      34.525  10.176  16.177  0.00  0.00     0.021 C 
HETATM   19  C   UNK N   1      35.079  11.072  18.961  0.00  0.00     0.084 C 
HETATM   20  C   UNK N   1      36.757   9.264  18.152  0.00  0.00     0.053 C 
HETATM   21  C   UNK N   1      35.823   9.780  19.175  0.00  0.00     0.149 C 
ENDROOT
BRANCH   7  22
HETATM   22  O   UNK N   1      34.937  12.866  10.222  0.00  0.00    -0.381 OA
HETATM   23  H   UNK N   1      34.216  12.283   9.935  0.00  0.00     0.211 HD
ENDBRANCH   7  22
BRANCH   7  24
HETATM   24  C   UNK N   1      37.087  13.754  10.657  0.00  0.00     0.185 C 
HETATM   25  O   UNK N   1      38.276  13.511  10.510  0.00  0.00    -0.292 OA
BRANCH  24  26
HETATM   26  C   UNK N   1      36.670  15.201  10.640  0.00  0.00     0.260 C 
BRANCH  26  27
HETATM   27  O   UNK N   1      35.762  15.487   9.636  0.00  0.00    -0.314 OA
BRANCH  27  28
HETATM   28  C   UNK N   1      34.964  16.591   9.572  0.00  0.00     0.255 C 
HETATM   29  O   UNK N   1      35.391  17.658   9.972  0.00  0.00    -0.266 OA
HETATM   30  C   UNK N   1      33.581  16.536   8.997  0.00  0.00     0.126 C 
ENDBRANCH  27  28
ENDBRANCH  26  27
ENDBRANCH  24  26
ENDBRANCH   7  24
TORSDOF 5
ENDMDL
MODEL 7
REMARK VINA RESULT:      -7.1     21.357     24.772
REMARK  5 active torsions:
REMARK  status: ('A' for Active; 'I' for Inactive)
REMARK    1  A    between atoms: C_11  and  O_1 
REMARK    2  A    between atoms: O_4  and  C_27 
REMARK    3  A    between atoms: O_4  and  C_28 
REMARK    4  A    between atoms: C_11  and  C_22 
REMARK    5  A    between atoms: C_22  and  C_27 
ROOT
HETATM    1  O   UNK N   1      35.407   8.813  15.519  0.00  0.00    -0.297 OA
HETATM    2  O   UNK N   1      34.865   9.202  21.816  0.00  0.00    -0.293 OA
HETATM    3  C   UNK N   1      35.604  12.772  14.871  0.00  0.00     0.002 C 
HETATM    4  C   UNK N   1      36.095  11.706  13.887  0.00  0.00     0.005 C 
HETATM    5  C   UNK N   1      35.683  12.254  16.329  0.00  0.00     0.003 C 
HETATM    6  C   UNK N   1      34.856  10.943  16.502  0.00  0.00     0.072 C 
HETATM    7  C   UNK N   1      36.272  12.495  12.569  0.00  0.00     0.128 C 
HETATM    8  C   UNK N   1      35.175  10.332  17.908  0.00  0.00    -0.009 C 
HETATM    9  C   UNK N   1      36.493  13.972  14.546  0.00  0.00     0.009 C 
HETATM   10  C   UNK N   1      35.116  10.525  13.917  0.00  0.00     0.091 C 
HETATM   11  C   UNK N   1      36.930  13.790  13.072  0.00  0.00     0.047 C 
HETATM   12  C   UNK N   1      35.152  13.289  17.318  0.00  0.00     0.010 C 
HETATM   13  C   UNK N   1      35.110   9.983  15.330  0.00  0.00     0.133 C 
HETATM   14  C   UNK N   1      37.497  11.180  14.297  0.00  0.00     0.019 C 
HETATM   15  C   UNK N   1      35.028  11.373  19.018  0.00  0.00    -0.067 C 
HETATM   16  C   UNK N   1      35.302  12.838  18.772  0.00  0.00     0.035 C 
HETATM   17  C   UNK N   1      34.245   9.145  18.212  0.00  0.00     0.022 C 
HETATM   18  C   UNK N   1      36.628   9.835  17.942  0.00  0.00     0.021 C 
HETATM   19  C   UNK N   1      34.527   8.512  19.584  0.00  0.00     0.084 C 
HETATM   20  C   UNK N   1      34.935  10.974  20.297  0.00  0.00     0.053 C 
HETATM   21  C   UNK N   1      34.779   9.547  20.649  0.00  0.00     0.149 C 
ENDROOT
BRANCH   7  22
HETATM   22  O   UNK N   1      37.158  11.813  11.723  0.00  0.00    -0.381 OA
HETATM   23  H   UNK N   1      37.525  10.917  11.771  0.00  0.00     0.211 HD
ENDBRANCH   7  22
BRANCH   7  24
HETATM   24  C   UNK N   1      35.020  12.829  11.754  0.00  0.00     0.185 C 
HETATM   25  O   UNK N   1      34.482  11.940  11.112  0.00  0.00    -0.292 OA
BRANCH  24  26
HETATM   26  C   UNK N   1      34.445  14.216  11.633  0.00  0.00     0.260 C 
BRANCH  26  27
HETATM   27  O   UNK N   1      34.594  14.751  10.366  0.00  0.00    -0.314 OA
BRANCH  27  28
HETATM   28  C   UNK N   1      35.242  15.912  10.060  0.00  0.00     0.255 C 
HETATM   29  O   UNK N   1      36.336  16.127  10.547  0.00  0.00    -0.266 OA
HETATM   30  C   UNK N   1      34.659  16.920   9.118  0.00  0.00     0.126 C 
ENDBRANCH  27  28
ENDBRANCH  26  27
ENDBRANCH  24  26
ENDBRANCH   7  24
TORSDOF 5
ENDMDL
MODEL 8
REMARK VINA RESULT:      -7.0     18.037     21.653
REMARK  5 active torsions:
REMARK  status: ('A' for Active; 'I' for Inactive)
REMARK    1  A    between atoms: C_11  and  O_1 
REMARK    2  A    between atoms: O_4  and  C_27 
REMARK    3  A    between atoms: O_4  and  C_28 
REMARK    4  A    between atoms: C_11  and  C_22 
REMARK    5  A    between atoms: C_22  and  C_27 
ROOT
HETATM    1  O   UNK N   1      34.694   9.937  12.227  0.00  0.00    -0.297 OA
HETATM    2  O   UNK N   1      35.430  10.877  18.445  0.00  0.00    -0.293 OA
HETATM    3  C   UNK N   1      36.041  13.547  11.095  0.00  0.00     0.002 C 
HETATM    4  C   UNK N   1      35.979  12.319  10.183  0.00  0.00     0.005 C 
HETATM    5  C   UNK N   1      36.205  13.124  12.576  0.00  0.00     0.003 C 
HETATM    6  C   UNK N   1      35.044  12.184  13.022  0.00  0.00     0.072 C 
HETATM    7  C   UNK N   1      36.165  12.918   8.769  0.00  0.00     0.128 C 
HETATM    8  C   UNK N   1      35.391  11.590  14.428  0.00  0.00    -0.009 C 
HETATM    9  C   UNK N   1      37.199  14.353  10.505  0.00  0.00     0.009 C 
HETATM   10  C   UNK N   1      34.692  11.542  10.494  0.00  0.00     0.091 C 
HETATM   11  C   UNK N   1      37.284  13.941   9.015  0.00  0.00     0.047 C 
HETATM   12  C   UNK N   1      36.222  14.338  13.504  0.00  0.00     0.010 C 
HETATM   13  C   UNK N   1      34.762  11.124  11.947  0.00  0.00     0.133 C 
HETATM   14  C   UNK N   1      37.185  11.375  10.442  0.00  0.00     0.019 C 
HETATM   15  C   UNK N   1      35.788  12.686  15.418  0.00  0.00    -0.067 C 
HETATM   16  C   UNK N   1      36.472  13.953  14.963  0.00  0.00     0.035 C 
HETATM   17  C   UNK N   1      34.198  10.809  15.002  0.00  0.00     0.022 C 
HETATM   18  C   UNK N   1      36.588  10.634  14.308  0.00  0.00     0.021 C 
HETATM   19  C   UNK N   1      34.499  10.204  16.383  0.00  0.00     0.084 C 
HETATM   20  C   UNK N   1      35.800  12.422  16.735  0.00  0.00     0.053 C 
HETATM   21  C   UNK N   1      35.255  11.157  17.271  0.00  0.00     0.149 C 
ENDROOT
BRANCH   7  22
HETATM   22  O   UNK N   1      36.619  11.925   7.888  0.00  0.00    -0.381 OA
HETATM   23  H   UNK N   1      37.112  11.106   8.049  0.00  0.00     0.211 HD
ENDBRANCH   7  22
BRANCH   7  24
HETATM   24  C   UNK N   1      34.965  13.604   8.112  0.00  0.00     0.185 C 
HETATM   25  O   UNK N   1      34.002  12.924   7.790  0.00  0.00    -0.292 OA
BRANCH  24  26
HETATM   26  C   UNK N   1      34.924  15.069   7.767  0.00  0.00     0.260 C 
BRANCH  26  27
HETATM   27  O   UNK N   1      34.357  15.841   8.767  0.00  0.00    -0.314 OA
BRANCH  27  28
HETATM   28  C   UNK N   1      34.676  17.135   9.054  0.00  0.00     0.255 C 
HETATM   29  O   UNK N   1      35.343  17.377  10.043  0.00  0.00    -0.266 OA
HETATM   30  C   UNK N   1      34.255  18.270   8.172  0.00  0.00     0.126 C 
ENDBRANCH  27  28
ENDBRANCH  26  27
ENDBRANCH  24  26
ENDBRANCH   7  24
TORSDOF 5
ENDMDL
MODEL 9
REMARK VINA RESULT:      -6.8     22.348     26.004
REMARK  5 active torsions:
REMARK  status: ('A' for Active; 'I' for Inactive)
REMARK    1  A    between atoms: C_11  and  O_1 
REMARK    2  A    between atoms: O_4  and  C_27 
REMARK    3  A    between atoms: O_4  and  C_28 
REMARK    4  A    between atoms: C_11  and  C_22 
REMARK    5  A    between atoms: C_22  and  C_27 
ROOT
HETATM    1  O   UNK N   1      35.323   8.497  16.092  0.00  0.00    -0.297 OA
HETATM    2  O   UNK N   1      34.667   8.848  22.380  0.00  0.00    -0.293 OA
HETATM    3  C   UNK N   1      35.655  12.453  15.484  0.00  0.00     0.002 C 
HETATM    4  C   UNK N   1      36.132  11.381  14.501  0.00  0.00     0.005 C 
HETATM    5  C   UNK N   1      35.689  11.920  16.938  0.00  0.00     0.003 C 
HETATM    6  C   UNK N   1      34.819  10.635  17.083  0.00  0.00     0.072 C 
HETATM    7  C   UNK N   1      36.360  12.176  13.194  0.00  0.00     0.128 C 
HETATM    8  C   UNK N   1      35.090  10.002  18.490  0.00  0.00    -0.009 C 
HETATM    9  C   UNK N   1      36.588  13.628  15.188  0.00  0.00     0.009 C 
HETATM   10  C   UNK N   1      35.117  10.231  14.500  0.00  0.00     0.091 C 
HETATM   11  C   UNK N   1      37.048  13.445  13.722  0.00  0.00     0.047 C 
HETATM   12  C   UNK N   1      35.171  12.963  17.927  0.00  0.00     0.010 C 
HETATM   13  C   UNK N   1      35.066   9.677  15.908  0.00  0.00     0.133 C 
HETATM   14  C   UNK N   1      37.509  10.808  14.932  0.00  0.00     0.019 C 
HETATM   15  C   UNK N   1      34.953  11.037  19.606  0.00  0.00    -0.067 C 
HETATM   16  C   UNK N   1      35.277  12.494  19.379  0.00  0.00     0.035 C 
HETATM   17  C   UNK N   1      34.118   8.842  18.764  0.00  0.00     0.022 C 
HETATM   18  C   UNK N   1      36.526   9.459  18.547  0.00  0.00     0.021 C 
HETATM   19  C   UNK N   1      34.353   8.188  20.135  0.00  0.00     0.084 C 
HETATM   20  C   UNK N   1      34.823  10.630  20.880  0.00  0.00     0.053 C 
HETATM   21  C   UNK N   1      34.616   9.205  21.215  0.00  0.00     0.149 C 
ENDROOT
BRANCH   7  22
HETATM   22  O   UNK N   1      37.241  11.474  12.358  0.00  0.00    -0.381 OA
HETATM   23  H   UNK N   1      37.097  10.717  11.770  0.00  0.00     0.211 HD
ENDBRANCH   7  22
BRANCH   7  24
HETATM   24  C   UNK N   1      35.136  12.556  12.357  0.00  0.00     0.185 C 
HETATM   25  O   UNK N   1      34.382  13.421  12.776  0.00  0.00    -0.292 OA
BRANCH  24  26
HETATM   26  C   UNK N   1      34.757  11.872  11.070  0.00  0.00     0.260 C 
BRANCH  26  27
HETATM   27  O   UNK N   1      34.095  10.674  11.272  0.00  0.00    -0.314 OA
BRANCH  27  28
HETATM   28  C   UNK N   1      34.600   9.431  11.027  0.00  0.00     0.255 C 
HETATM   29  O   UNK N   1      35.804   9.261  11.067  0.00  0.00    -0.266 OA
HETATM   30  C   UNK N   1      33.714   8.258  10.738  0.00  0.00     0.126 C 
ENDBRANCH  27  28
ENDBRANCH  26  27
ENDBRANCH  24  26
ENDBRANCH   7  24
TORSDOF 5
ENDMDL
