REMARK  6 active torsions:
REMARK  status: ('A' for Active; 'I' for Inactive)
REMARK    1  A    between atoms: S_1  and  N_6 
REMARK    2  A    between atoms: S_1  and  C_11 
REMARK    3  A    between atoms: O_2  and  C_15 
REMARK    4  A    between atoms: O_2  and  C_18 
REMARK    5  A    between atoms: O_5  and  C_20 
REMARK       I    between atoms: N_6  and  C_14 
REMARK    6  A    between atoms: C_15  and  C_20 
ROOT
HETATM    1  N   UNK N   1       1.937   2.422  -0.171  0.00  0.00    -0.112 N 
HETATM    2  N   UNK N   1       3.610   0.714   0.204  0.00  0.00    -0.198 N 
ATOM      3  HN  UNK N   1       4.304   1.452   0.325  1.00  0.00     0.183 HD
HETATM    4  N   UNK N   1       1.373   0.066  -0.125  0.00  0.00    -0.198 N 
ATOM      5  HN  UNK N   1       0.393   0.311  -0.265  1.00  0.00     0.183 HD
HETATM    6  C   UNK N   1       2.305   1.061   0.002  0.00  0.00     0.691 A 
HETATM    7  C   UNK N   1       3.084  -1.592   0.105  0.00  0.00     0.100 A 
HETATM    8  C   UNK N   1       4.010  -0.568   0.250  0.00  0.00     0.144 A 
HETATM    9  C   UNK N   1       1.733  -1.240  -0.069  0.00  0.00     0.144 A 
HETATM   10  H   UNK N   1       0.975   2.629  -0.139  0.00  0.00     0.197 HD
ENDROOT
BRANCH   1  11
HETATM   11  S   UNK N   1       3.054   3.799  -0.443  0.00  0.00     0.276 S 
HETATM   12  O   UNK N   1       3.648   2.792  -1.446  0.00  0.00    -0.200 OA
HETATM   13  O   UNK N   1       3.411   3.321   0.974  0.00  0.00    -0.200 OA
BRANCH  11  14
HETATM   14  C   UNK N   1       4.891   3.870  -0.153  0.00  0.00     0.080 A 
HETATM   15  C   UNK N   1       5.467   5.146  -0.059  0.00  0.00     0.025 A 
HETATM   16  C   UNK N   1       6.836   5.301   0.179  0.00  0.00     0.002 A 
HETATM   17  C   UNK N   1       7.659   4.182   0.325  0.00  0.00     0.000 A 
HETATM   18  C   UNK N   1       7.119   2.900   0.231  0.00  0.00     0.002 A 
HETATM   19  C   UNK N   1       5.753   2.737  -0.004  0.00  0.00     0.025 A 
ENDBRANCH  11  14
ENDBRANCH   1  11
BRANCH   7  20
HETATM   20  O   UNK N   1       3.517  -2.869   0.147  0.00  0.00    -0.346 OA
BRANCH  20  21
HETATM   21  C   UNK N   1       2.778  -3.913   0.656  0.00  0.00     0.201 C 
BRANCH  21  22
HETATM   22  C   UNK N   1       1.922  -4.572  -0.403  0.00  0.00     0.193 C 
BRANCH  22  23
HETATM   23  O   UNK N   1       0.617  -4.088  -0.300  0.00  0.00    -0.394 OA
HETATM   24  C   UNK N   1      -0.143  -5.186   0.100  0.00  0.00     0.201 C 
ENDBRANCH  22  23
ENDBRANCH  21  22
ENDBRANCH  20  21
ENDBRANCH   7  20
TORSDOF 6
