MODEL 1
REMARK VINA RESULT:      -7.0      0.000      0.000
REMARK  6 active torsions:
REMARK  status: ('A' for Active; 'I' for Inactive)
REMARK    1  A    between atoms: S_1  and  N_6 
REMARK    2  A    between atoms: S_1  and  C_11 
REMARK    3  A    between atoms: O_2  and  C_15 
REMARK    4  A    between atoms: O_2  and  C_18 
REMARK    5  A    between atoms: O_5  and  C_20 
REMARK       I    between atoms: N_6  and  C_14 
REMARK    6  A    between atoms: C_15  and  C_20 
ROOT
HETATM    1  N   UNK N   1      36.402  14.464  13.526  0.00  0.00    -0.112 N 
HETATM    2  N   UNK N   1      34.730  14.176  11.800  0.00  0.00    -0.198 N 
ATOM      3  HN  UNK N   1      34.396  13.347  12.293  1.00  0.00     0.183 HD
HETATM    4  N   UNK N   1      36.158  16.043  11.705  0.00  0.00    -0.198 N 
ATOM      5  HN  UNK N   1      36.901  16.609  12.113  1.00  0.00     0.183 HD
HETATM    6  C   UNK N   1      35.738  14.913  12.354  0.00  0.00     0.691 A 
HETATM    7  C   UNK N   1      34.588  15.639   9.944  0.00  0.00     0.100 A 
HETATM    8  C   UNK N   1      34.164  14.507  10.627  0.00  0.00     0.144 A 
HETATM    9  C   UNK N   1      35.601  16.421  10.527  0.00  0.00     0.144 A 
HETATM   10  H   UNK N   1      36.993  15.110  13.976  0.00  0.00     0.197 HD
ENDROOT
BRANCH   1  11
HETATM   11  S   UNK N   1      36.269  12.835  14.266  0.00  0.00     0.276 S 
HETATM   12  O   UNK N   1      34.831  13.336  14.501  0.00  0.00    -0.200 OA
HETATM   13  O   UNK N   1      37.196  13.593  15.230  0.00  0.00    -0.200 OA
BRANCH  11  14
HETATM   14  C   UNK N   1      35.899  12.398  16.037  0.00  0.00     0.080 A 
HETATM   15  C   UNK N   1      35.453  13.439  16.865  0.00  0.00     0.025 A 
HETATM   16  C   UNK N   1      35.129  13.204  18.204  0.00  0.00     0.002 A 
HETATM   17  C   UNK N   1      35.249  11.922  18.746  0.00  0.00     0.000 A 
HETATM   18  C   UNK N   1      35.695  10.867  17.951  0.00  0.00     0.002 A 
HETATM   19  C   UNK N   1      36.017  11.093  16.612  0.00  0.00     0.025 A 
ENDBRANCH  11  14
ENDBRANCH   1  11
BRANCH   7  20
HETATM   20  O   UNK N   1      34.006  15.941   8.765  0.00  0.00    -0.346 OA
BRANCH  20  21
HETATM   21  C   UNK N   1      33.274  17.085   8.541  0.00  0.00     0.201 C 
BRANCH  21  22
HETATM   22  C   UNK N   1      34.095  18.160   7.864  0.00  0.00     0.193 C 
BRANCH  22  23
HETATM   23  O   UNK N   1      34.510  17.697   6.615  0.00  0.00    -0.394 OA
HETATM   24  C   UNK N   1      33.337  17.556   5.875  0.00  0.00     0.201 C 
ENDBRANCH  22  23
ENDBRANCH  21  22
ENDBRANCH  20  21
ENDBRANCH   7  20
TORSDOF 6
ENDMDL
MODEL 2
REMARK VINA RESULT:      -7.0      0.968      1.763
REMARK  6 active torsions:
REMARK  status: ('A' for Active; 'I' for Inactive)
REMARK    1  A    between atoms: S_1  and  N_6 
REMARK    2  A    between atoms: S_1  and  C_11 
REMARK    3  A    between atoms: O_2  and  C_15 
REMARK    4  A    between atoms: O_2  and  C_18 
REMARK    5  A    between atoms: O_5  and  C_20 
REMARK       I    between atoms: N_6  and  C_14 
REMARK    6  A    between atoms: C_15  and  C_20 
ROOT
HETATM    1  N   UNK N   1      35.434  12.705  12.968  0.00  0.00    -0.112 N 
HETATM    2  N   UNK N   1      36.099  14.880  12.142  0.00  0.00    -0.198 N 
ATOM      3  HN  UNK N   1      36.893  14.856  12.782  1.00  0.00     0.183 HD
HETATM    4  N   UNK N   1      34.230  13.819  11.185  0.00  0.00    -0.198 N 
ATOM      5  HN  UNK N   1      33.612  13.011  11.114  1.00  0.00     0.183 HD
HETATM    6  C   UNK N   1      35.273  13.795  12.072  0.00  0.00     0.691 A 
HETATM    7  C   UNK N   1      34.839  16.031  10.501  0.00  0.00     0.100 A 
HETATM    8  C   UNK N   1      35.901  15.978  11.393  0.00  0.00     0.144 A 
HETATM    9  C   UNK N   1      34.005  14.902  10.400  0.00  0.00     0.144 A 
HETATM   10  H   UNK N   1      34.930  11.884  12.763  0.00  0.00     0.197 HD
ENDROOT
BRANCH   1  11
HETATM   11  S   UNK N   1      36.463  12.680  14.437  0.00  0.00     0.276 S 
HETATM   12  O   UNK N   1      35.966  11.222  14.454  0.00  0.00    -0.200 OA
HETATM   13  O   UNK N   1      35.286  13.585  14.838  0.00  0.00    -0.200 OA
BRANCH  11  14
HETATM   14  C   UNK N   1      35.951  12.374  16.200  0.00  0.00     0.080 A 
HETATM   15  C   UNK N   1      36.109  11.068  16.687  0.00  0.00     0.025 A 
HETATM   16  C   UNK N   1      35.772  10.746  18.005  0.00  0.00     0.002 A 
HETATM   17  C   UNK N   1      35.267  11.725  18.864  0.00  0.00     0.000 A 
HETATM   18  C   UNK N   1      35.092  13.031  18.410  0.00  0.00     0.002 A 
HETATM   19  C   UNK N   1      35.428  13.361  17.096  0.00  0.00     0.025 A 
ENDBRANCH  11  14
ENDBRANCH   1  11
BRANCH   7  20
HETATM   20  O   UNK N   1      34.661  17.151   9.770  0.00  0.00    -0.346 OA
BRANCH  20  21
HETATM   21  C   UNK N   1      33.660  17.306   8.837  0.00  0.00     0.201 C 
BRANCH  21  22
HETATM   22  C   UNK N   1      33.932  18.463   7.900  0.00  0.00     0.193 C 
BRANCH  22  23
HETATM   23  O   UNK N   1      34.561  17.980   6.752  0.00  0.00    -0.394 OA
HETATM   24  C   UNK N   1      33.550  17.356   6.023  0.00  0.00     0.201 C 
ENDBRANCH  22  23
ENDBRANCH  21  22
ENDBRANCH  20  21
ENDBRANCH   7  20
TORSDOF 6
ENDMDL
MODEL 3
REMARK VINA RESULT:      -6.2      1.419      1.952
REMARK  6 active torsions:
REMARK  status: ('A' for Active; 'I' for Inactive)
REMARK    1  A    between atoms: S_1  and  N_6 
REMARK    2  A    between atoms: S_1  and  C_11 
REMARK    3  A    between atoms: O_2  and  C_15 
REMARK    4  A    between atoms: O_2  and  C_18 
REMARK    5  A    between atoms: O_5  and  C_20 
REMARK       I    between atoms: N_6  and  C_14 
REMARK    6  A    between atoms: C_15  and  C_20 
ROOT
HETATM    1  N   UNK N   1      35.690  15.227  12.613  0.00  0.00    -0.112 N 
HETATM    2  N   UNK N   1      35.054  14.545  10.380  0.00  0.00    -0.198 N 
ATOM      3  HN  UNK N   1      35.111  13.573  10.684  1.00  0.00     0.183 HD
HETATM    4  N   UNK N   1      35.153  16.840  10.887  0.00  0.00    -0.198 N 
ATOM      5  HN  UNK N   1      35.297  17.591  11.561  1.00  0.00     0.183 HD
HETATM    6  C   UNK N   1      35.266  15.537  11.293  0.00  0.00     0.691 A 
HETATM    7  C   UNK N   1      34.670  16.121   8.655  0.00  0.00     0.100 A 
HETATM    8  C   UNK N   1      34.771  14.807   9.092  0.00  0.00     0.144 A 
HETATM    9  C   UNK N   1      34.854  17.147   9.600  0.00  0.00     0.144 A 
HETATM   10  H   UNK N   1      35.659  15.957  13.272  0.00  0.00     0.197 HD
ENDROOT
BRANCH   1  11
HETATM   11  S   UNK N   1      36.277  13.634  13.194  0.00  0.00     0.276 S 
HETATM   12  O   UNK N   1      34.760  13.369  13.226  0.00  0.00    -0.200 OA
HETATM   13  O   UNK N   1      36.616  14.586  14.352  0.00  0.00    -0.200 OA
BRANCH  11  14
HETATM   14  C   UNK N   1      35.974  12.823  14.841  0.00  0.00     0.080 A 
HETATM   15  C   UNK N   1      36.580  11.575  15.052  0.00  0.00     0.025 A 
HETATM   16  C   UNK N   1      36.427  10.897  16.265  0.00  0.00     0.002 A 
HETATM   17  C   UNK N   1      35.662  11.453  17.293  0.00  0.00     0.000 A 
HETATM   18  C   UNK N   1      35.041  12.688  17.114  0.00  0.00     0.002 A 
HETATM   19  C   UNK N   1      35.191  13.372  15.906  0.00  0.00     0.025 A 
ENDBRANCH  11  14
ENDBRANCH   1  11
BRANCH   7  20
HETATM   20  O   UNK N   1      34.394  16.352   7.355  0.00  0.00    -0.346 OA
BRANCH  20  21
HETATM   21  C   UNK N   1      33.915  17.550   6.875  0.00  0.00     0.201 C 
BRANCH  21  22
HETATM   22  C   UNK N   1      33.308  17.407   5.496  0.00  0.00     0.193 C 
BRANCH  22  23
HETATM   23  O   UNK N   1      33.091  16.054   5.232  0.00  0.00    -0.394 OA
HETATM   24  C   UNK N   1      33.431  15.891   3.890  0.00  0.00     0.201 C 
ENDBRANCH  22  23
ENDBRANCH  21  22
ENDBRANCH  20  21
ENDBRANCH   7  20
TORSDOF 6
ENDMDL
MODEL 4
REMARK VINA RESULT:      -6.1      2.110      8.678
REMARK  6 active torsions:
REMARK  status: ('A' for Active; 'I' for Inactive)
REMARK    1  A    between atoms: S_1  and  N_6 
REMARK    2  A    between atoms: S_1  and  C_11 
REMARK    3  A    between atoms: O_2  and  C_15 
REMARK    4  A    between atoms: O_2  and  C_18 
REMARK    5  A    between atoms: O_5  and  C_20 
REMARK       I    between atoms: N_6  and  C_14 
REMARK    6  A    between atoms: C_15  and  C_20 
ROOT
HETATM    1  N   UNK N   1      36.485  14.730  11.930  0.00  0.00    -0.112 N 
HETATM    2  N   UNK N   1      35.396  13.136  13.389  0.00  0.00    -0.198 N 
ATOM      3  HN  UNK N   1      34.959  12.717  12.568  1.00  0.00     0.183 HD
HETATM    4  N   UNK N   1      36.889  14.698  14.319  0.00  0.00    -0.198 N 
ATOM      5  HN  UNK N   1      37.559  15.459  14.203  1.00  0.00     0.183 HD
HETATM    6  C   UNK N   1      36.279  14.163  13.216  0.00  0.00     0.691 A 
HETATM    7  C   UNK N   1      35.679  13.199  15.739  0.00  0.00     0.100 A 
HETATM    8  C   UNK N   1      35.086  12.658  14.606  0.00  0.00     0.144 A 
HETATM    9  C   UNK N   1      36.615  14.234  15.563  0.00  0.00     0.144 A 
HETATM   10  H   UNK N   1      37.250  15.342  11.832  0.00  0.00     0.197 HD
ENDROOT
BRANCH   1  11
HETATM   11  S   UNK N   1      35.488  14.440  10.468  0.00  0.00     0.276 S 
HETATM   12  O   UNK N   1      36.363  15.596   9.949  0.00  0.00    -0.200 OA
HETATM   13  O   UNK N   1      34.485  15.023  11.477  0.00  0.00    -0.200 OA
BRANCH  11  14
HETATM   14  C   UNK N   1      34.294  15.601   9.635  0.00  0.00     0.080 A 
HETATM   15  C   UNK N   1      32.995  15.119   9.415  0.00  0.00     0.025 A 
HETATM   16  C   UNK N   1      32.022  15.925   8.815  0.00  0.00     0.002 A 
HETATM   17  C   UNK N   1      32.330  17.229   8.421  0.00  0.00     0.000 A 
HETATM   18  C   UNK N   1      33.613  17.736   8.621  0.00  0.00     0.002 A 
HETATM   19  C   UNK N   1      34.589  16.939   9.221  0.00  0.00     0.025 A 
ENDBRANCH  11  14
ENDBRANCH   1  11
BRANCH   7  20
HETATM   20  O   UNK N   1      35.341  12.703  16.947  0.00  0.00    -0.346 OA
BRANCH  20  21
HETATM   21  C   UNK N   1      35.205  13.473  18.081  0.00  0.00     0.201 C 
BRANCH  21  22
HETATM   22  C   UNK N   1      35.192  12.633  19.339  0.00  0.00     0.193 C 
BRANCH  22  23
HETATM   23  O   UNK N   1      35.780  11.397  19.067  0.00  0.00    -0.394 OA
HETATM   24  C   UNK N   1      36.281  10.960  20.293  0.00  0.00     0.201 C 
ENDBRANCH  22  23
ENDBRANCH  21  22
ENDBRANCH  20  21
ENDBRANCH   7  20
TORSDOF 6
ENDMDL
MODEL 5
REMARK VINA RESULT:      -6.1      2.419      8.140
REMARK  6 active torsions:
REMARK  status: ('A' for Active; 'I' for Inactive)
REMARK    1  A    between atoms: S_1  and  N_6 
REMARK    2  A    between atoms: S_1  and  C_11 
REMARK    3  A    between atoms: O_2  and  C_15 
REMARK    4  A    between atoms: O_2  and  C_18 
REMARK    5  A    between atoms: O_5  and  C_20 
REMARK       I    between atoms: N_6  and  C_14 
REMARK    6  A    between atoms: C_15  and  C_20 
ROOT
HETATM    1  N   UNK N   1      36.261  15.339  12.183  0.00  0.00    -0.112 N 
HETATM    2  N   UNK N   1      37.007  13.046  12.391  0.00  0.00    -0.198 N 
ATOM      3  HN  UNK N   1      37.084  13.003  11.375  1.00  0.00     0.183 HD
HETATM    4  N   UNK N   1      36.582  14.289  14.343  0.00  0.00    -0.198 N 
ATOM      5  HN  UNK N   1      36.328  15.167  14.794  1.00  0.00     0.183 HD
HETATM    6  C   UNK N   1      36.650  14.227  12.976  0.00  0.00     0.691 A 
HETATM    7  C   UNK N   1      37.181  11.976  14.495  0.00  0.00     0.100 A 
HETATM    8  C   UNK N   1      37.262  11.940  13.110  0.00  0.00     0.144 A 
HETATM    9  C   UNK N   1      36.847  13.199  15.105  0.00  0.00     0.144 A 
HETATM   10  H   UNK N   1      36.183  16.207  12.643  0.00  0.00     0.197 HD
ENDROOT
BRANCH   1  11
HETATM   11  S   UNK N   1      35.898  15.317  10.426  0.00  0.00     0.276 S 
HETATM   12  O   UNK N   1      36.062  16.835  10.630  0.00  0.00    -0.200 OA
HETATM   13  O   UNK N   1      34.569  14.894  11.074  0.00  0.00    -0.200 OA
BRANCH  11  14
HETATM   14  C   UNK N   1      34.448  16.072   9.538  0.00  0.00     0.080 A 
HETATM   15  C   UNK N   1      34.635  17.355   9.000  0.00  0.00     0.025 A 
HETATM   16  C   UNK N   1      33.610  17.996   8.296  0.00  0.00     0.002 A 
HETATM   17  C   UNK N   1      32.375  17.368   8.119  0.00  0.00     0.000 A 
HETATM   18  C   UNK N   1      32.155  16.096   8.646  0.00  0.00     0.002 A 
HETATM   19  C   UNK N   1      33.174  15.449   9.347  0.00  0.00     0.025 A 
ENDBRANCH  11  14
ENDBRANCH   1  11
BRANCH   7  20
HETATM   20  O   UNK N   1      37.434  10.848  15.190  0.00  0.00    -0.346 OA
BRANCH  20  21
HETATM   21  C   UNK N   1      36.568  10.302  16.110  0.00  0.00     0.201 C 
BRANCH  21  22
HETATM   22  C   UNK N   1      35.372   9.653  15.448  0.00  0.00     0.193 C 
BRANCH  22  23
HETATM   23  O   UNK N   1      34.230  10.404  15.734  0.00  0.00    -0.394 OA
HETATM   24  C   UNK N   1      33.679  10.707  14.490  0.00  0.00     0.201 C 
ENDBRANCH  22  23
ENDBRANCH  21  22
ENDBRANCH  20  21
ENDBRANCH   7  20
TORSDOF 6
ENDMDL
MODEL 6
REMARK VINA RESULT:      -5.9     19.250     23.245
REMARK  6 active torsions:
REMARK  status: ('A' for Active; 'I' for Inactive)
REMARK    1  A    between atoms: S_1  and  N_6 
REMARK    2  A    between atoms: S_1  and  C_11 
REMARK    3  A    between atoms: O_2  and  C_15 
REMARK    4  A    between atoms: O_2  and  C_18 
REMARK    5  A    between atoms: O_5  and  C_20 
REMARK       I    between atoms: N_6  and  C_14 
REMARK    6  A    between atoms: C_15  and  C_20 
ROOT
HETATM    1  N   UNK N   1      26.450  23.144  -8.108  0.00  0.00    -0.112 N 
HETATM    2  N   UNK N   1      27.982  23.534  -6.276  0.00  0.00    -0.198 N 
ATOM      3  HN  UNK N   1      27.479  24.396  -6.068  1.00  0.00     0.183 HD
HETATM    4  N   UNK N   1      28.186  21.555  -7.532  0.00  0.00    -0.198 N 
ATOM      5  HN  UNK N   1      27.849  20.939  -8.271  1.00  0.00     0.183 HD
HETATM    6  C   UNK N   1      27.526  22.728  -7.280  0.00  0.00     0.691 A 
HETATM    7  C   UNK N   1      29.768  22.052  -5.805  0.00  0.00     0.100 A 
HETATM    8  C   UNK N   1      29.073  23.227  -5.553  0.00  0.00     0.144 A 
HETATM    9  C   UNK N   1      29.281  21.202  -6.815  0.00  0.00     0.144 A 
HETATM   10  H   UNK N   1      26.052  22.461  -8.695  0.00  0.00     0.197 HD
ENDROOT
BRANCH   1  11
HETATM   11  S   UNK N   1      25.747  24.792  -8.190  0.00  0.00     0.276 S 
HETATM   12  O   UNK N   1      27.236  25.146  -8.357  0.00  0.00    -0.200 OA
HETATM   13  O   UNK N   1      25.521  24.377  -6.727  0.00  0.00    -0.200 OA
BRANCH  11  14
HETATM   14  C   UNK N   1      26.025  26.225  -7.035  0.00  0.00     0.080 A 
HETATM   15  C   UNK N   1      25.124  26.361  -5.968  0.00  0.00     0.025 A 
HETATM   16  C   UNK N   1      25.264  27.394  -5.036  0.00  0.00     0.002 A 
HETATM   17  C   UNK N   1      26.308  28.314  -5.152  0.00  0.00     0.000 A 
HETATM   18  C   UNK N   1      27.218  28.210  -6.204  0.00  0.00     0.002 A 
HETATM   19  C   UNK N   1      27.086  27.181  -7.137  0.00  0.00     0.025 A 
ENDBRANCH  11  14
ENDBRANCH   1  11
BRANCH   7  20
HETATM   20  O   UNK N   1      30.864  21.776  -5.069  0.00  0.00    -0.346 OA
BRANCH  20  21
HETATM   21  C   UNK N   1      31.389  22.630  -4.126  0.00  0.00     0.201 C 
BRANCH  21  22
HETATM   22  C   UNK N   1      31.408  22.009  -2.746  0.00  0.00     0.193 C 
BRANCH  22  23
HETATM   23  O   UNK N   1      30.923  22.938  -1.823  0.00  0.00    -0.394 OA
HETATM   24  C   UNK N   1      29.538  22.915  -1.984  0.00  0.00     0.201 C 
ENDBRANCH  22  23
ENDBRANCH  21  22
ENDBRANCH  20  21
ENDBRANCH   7  20
TORSDOF 6
ENDMDL
MODEL 7
REMARK VINA RESULT:      -5.9      1.947      2.653
REMARK  6 active torsions:
REMARK  status: ('A' for Active; 'I' for Inactive)
REMARK    1  A    between atoms: S_1  and  N_6 
REMARK    2  A    between atoms: S_1  and  C_11 
REMARK    3  A    between atoms: O_2  and  C_15 
REMARK    4  A    between atoms: O_2  and  C_18 
REMARK    5  A    between atoms: O_5  and  C_20 
REMARK       I    between atoms: N_6  and  C_14 
REMARK    6  A    between atoms: C_15  and  C_20 
ROOT
HETATM    1  N   UNK N   1      34.675  12.844  12.717  0.00  0.00    -0.112 N 
HETATM    2  N   UNK N   1      36.214  13.251  10.894  0.00  0.00    -0.198 N 
ATOM      3  HN  UNK N   1      36.973  12.922  11.491  1.00  0.00     0.183 HD
HETATM    4  N   UNK N   1      33.917  13.620  10.551  0.00  0.00    -0.198 N 
ATOM      5  HN  UNK N   1      32.955  13.585  10.889  1.00  0.00     0.183 HD
HETATM    6  C   UNK N   1      34.935  13.210  11.369  0.00  0.00     0.691 A 
HETATM    7  C   UNK N   1      35.490  14.146   8.826  0.00  0.00     0.100 A 
HETATM    8  C   UNK N   1      36.506  13.709   9.665  0.00  0.00     0.144 A 
HETATM    9  C   UNK N   1      34.167  14.074   9.298  0.00  0.00     0.144 A 
HETATM   10  H   UNK N   1      33.737  12.664  12.955  0.00  0.00     0.197 HD
ENDROOT
BRANCH   1  11
HETATM   11  S   UNK N   1      35.890  12.678  14.027  0.00  0.00     0.276 S 
HETATM   12  O   UNK N   1      34.601  12.571  14.864  0.00  0.00    -0.200 OA
HETATM   13  O   UNK N   1      36.042  14.141  13.578  0.00  0.00    -0.200 OA
BRANCH  11  14
HETATM   14  C   UNK N   1      36.178  13.801  15.483  0.00  0.00     0.080 A 
HETATM   15  C   UNK N   1      35.438  13.531  16.644  0.00  0.00     0.025 A 
HETATM   16  C   UNK N   1      35.601  14.306  17.796  0.00  0.00     0.002 A 
HETATM   17  C   UNK N   1      36.506  15.370  17.810  0.00  0.00     0.000 A 
HETATM   18  C   UNK N   1      37.252  15.668  16.670  0.00  0.00     0.002 A 
HETATM   19  C   UNK N   1      37.097  14.898  15.517  0.00  0.00     0.025 A 
ENDBRANCH  11  14
ENDBRANCH   1  11
BRANCH   7  20
HETATM   20  O   UNK N   1      35.815  14.609   7.601  0.00  0.00    -0.346 OA
BRANCH  20  21
HETATM   21  C   UNK N   1      34.970  14.563   6.515  0.00  0.00     0.201 C 
BRANCH  21  22
HETATM   22  C   UNK N   1      34.596  15.945   6.028  0.00  0.00     0.193 C 
BRANCH  22  23
HETATM   23  O   UNK N   1      33.564  16.445   6.825  0.00  0.00    -0.394 OA
HETATM   24  C   UNK N   1      33.954  17.744   7.145  0.00  0.00     0.201 C 
ENDBRANCH  22  23
ENDBRANCH  21  22
ENDBRANCH  20  21
ENDBRANCH   7  20
TORSDOF 6
ENDMDL
MODEL 8
REMARK VINA RESULT:      -5.9      2.727      9.435
REMARK  6 active torsions:
REMARK  status: ('A' for Active; 'I' for Inactive)
REMARK    1  A    between atoms: S_1  and  N_6 
REMARK    2  A    between atoms: S_1  and  C_11 
REMARK    3  A    between atoms: O_2  and  C_15 
REMARK    4  A    between atoms: O_2  and  C_18 
REMARK    5  A    between atoms: O_5  and  C_20 
REMARK       I    between atoms: N_6  and  C_14 
REMARK    6  A    between atoms: C_15  and  C_20 
ROOT
HETATM    1  N   UNK N   1      33.459  16.551   9.028  0.00  0.00    -0.112 N 
HETATM    2  N   UNK N   1      35.660  15.990   9.864  0.00  0.00    -0.198 N 
ATOM      3  HN  UNK N   1      36.059  16.631   9.178  1.00  0.00     0.183 HD
HETATM    4  N   UNK N   1      33.772  15.047  10.902  0.00  0.00    -0.198 N 
ATOM      5  HN  UNK N   1      32.759  14.967  10.990  1.00  0.00     0.183 HD
HETATM    6  C   UNK N   1      34.302  15.884   9.957  0.00  0.00     0.691 A 
HETATM    7  C   UNK N   1      35.971  14.410  11.599  0.00  0.00     0.100 A 
HETATM    8  C   UNK N   1      36.488  15.278  10.647  0.00  0.00     0.144 A 
HETATM    9  C   UNK N   1      34.572  14.323  11.722  0.00  0.00     0.144 A 
HETATM   10  H   UNK N   1      32.499  16.582   9.243  0.00  0.00     0.197 HD
ENDROOT
BRANCH   1  11
HETATM   11  S   UNK N   1      33.974  17.341   7.502  0.00  0.00     0.276 S 
HETATM   12  O   UNK N   1      32.446  17.422   7.324  0.00  0.00    -0.200 OA
HETATM   13  O   UNK N   1      34.395  15.875   7.308  0.00  0.00    -0.200 OA
BRANCH  11  14
HETATM   14  C   UNK N   1      33.672  16.781   5.753  0.00  0.00     0.080 A 
HETATM   15  C   UNK N   1      32.931  17.645   4.932  0.00  0.00     0.025 A 
HETATM   16  C   UNK N   1      32.671  17.321   3.597  0.00  0.00     0.002 A 
HETATM   17  C   UNK N   1      33.143  16.123   3.056  0.00  0.00     0.000 A 
HETATM   18  C   UNK N   1      33.877  15.240   3.846  0.00  0.00     0.002 A 
HETATM   19  C   UNK N   1      34.143  15.557   5.179  0.00  0.00     0.025 A 
ENDBRANCH  11  14
ENDBRANCH   1  11
BRANCH   7  20
HETATM   20  O   UNK N   1      36.828  13.702  12.364  0.00  0.00    -0.346 OA
BRANCH  20  21
HETATM   21  C   UNK N   1      36.436  12.903  13.414  0.00  0.00     0.201 C 
BRANCH  21  22
HETATM   22  C   UNK N   1      36.600  13.597  14.749  0.00  0.00     0.193 C 
BRANCH  22  23
HETATM   23  O   UNK N   1      36.323  12.689  15.771  0.00  0.00    -0.394 OA
HETATM   24  C   UNK N   1      35.115  13.120  16.317  0.00  0.00     0.201 C 
ENDBRANCH  22  23
ENDBRANCH  21  22
ENDBRANCH  20  21
ENDBRANCH   7  20
TORSDOF 6
ENDMDL
MODEL 9
REMARK VINA RESULT:      -5.7      2.725      3.659
REMARK  6 active torsions:
REMARK  status: ('A' for Active; 'I' for Inactive)
REMARK    1  A    between atoms: S_1  and  N_6 
REMARK    2  A    between atoms: S_1  and  C_11 
REMARK    3  A    between atoms: O_2  and  C_15 
REMARK    4  A    between atoms: O_2  and  C_18 
REMARK    5  A    between atoms: O_5  and  C_20 
REMARK       I    between atoms: N_6  and  C_14 
REMARK    6  A    between atoms: C_15  and  C_20 
ROOT
HETATM    1  N   UNK N   1      36.226  15.374  12.270  0.00  0.00    -0.112 N 
HETATM    2  N   UNK N   1      34.347  14.846  10.840  0.00  0.00    -0.198 N 
ATOM      3  HN  UNK N   1      34.222  13.978  11.362  1.00  0.00     0.183 HD
HETATM    4  N   UNK N   1      35.458  16.899  10.552  0.00  0.00    -0.198 N 
ATOM      5  HN  UNK N   1      36.171  17.567  10.843  1.00  0.00     0.183 HD
HETATM    6  C   UNK N   1      35.318  15.721  11.235  0.00  0.00     0.691 A 
HETATM    7  C   UNK N   1      33.688  16.270   9.068  0.00  0.00     0.100 A 
HETATM    8  C   UNK N   1      33.551  15.090   9.786  0.00  0.00     0.144 A 
HETATM    9  C   UNK N   1      34.663  17.191   9.492  0.00  0.00     0.144 A 
HETATM   10  H   UNK N   1      36.787  16.099  12.630  0.00  0.00     0.197 HD
ENDROOT
BRANCH   1  11
HETATM   11  S   UNK N   1      36.453  13.744  12.984  0.00  0.00     0.276 S 
HETATM   12  O   UNK N   1      36.535  13.377  11.490  0.00  0.00    -0.200 OA
HETATM   13  O   UNK N   1      34.988  14.078  13.309  0.00  0.00    -0.200 OA
BRANCH  11  14
HETATM   14  C   UNK N   1      35.366  12.244  12.805  0.00  0.00     0.080 A 
HETATM   15  C   UNK N   1      35.363  11.612  11.552  0.00  0.00     0.025 A 
HETATM   16  C   UNK N   1      34.595  10.465  11.327  0.00  0.00     0.002 A 
HETATM   17  C   UNK N   1      33.810   9.929  12.350  0.00  0.00     0.000 A 
HETATM   18  C   UNK N   1      33.785  10.537  13.604  0.00  0.00     0.002 A 
HETATM   19  C   UNK N   1      34.551  11.680  13.838  0.00  0.00     0.025 A 
ENDBRANCH  11  14
ENDBRANCH   1  11
BRANCH   7  20
HETATM   20  O   UNK N   1      32.879  16.483   8.009  0.00  0.00    -0.346 OA
BRANCH  20  21
HETATM   21  C   UNK N   1      31.715  15.786   7.781  0.00  0.00     0.201 C 
BRANCH  21  22
HETATM   22  C   UNK N   1      31.793  14.944   6.526  0.00  0.00     0.193 C 
BRANCH  22  23
HETATM   23  O   UNK N   1      31.984  13.609   6.884  0.00  0.00    -0.394 OA
HETATM   24  C   UNK N   1      33.188  13.245   6.283  0.00  0.00     0.201 C 
ENDBRANCH  22  23
ENDBRANCH  21  22
ENDBRANCH  20  21
ENDBRANCH   7  20
TORSDOF 6
ENDMDL
