MODEL 1
REMARK VINA RESULT:      -7.9      0.000      0.000
REMARK  4 active torsions:
REMARK  status: ('A' for Active; 'I' for Inactive)
REMARK    1  A    between atoms: C_15  and  O_3 
REMARK    2  A    between atoms: O_5  and  C_26 
REMARK    3  A    between atoms: C_11  and  C_21 
REMARK    4  A    between atoms: C_21  and  C_26 
ROOT
HETATM    1  F   UNK N   1      28.868  17.224   2.977  0.00  0.00    -0.245 F 
HETATM    2  O   UNK N   1      34.925  17.162   7.234  0.00  0.00    -0.381 OA
HETATM    3  O   UNK N   1      26.291  20.783   5.044  0.00  0.00    -0.289 OA
HETATM    4  C   UNK N   1      32.740  16.319   7.781  0.00  0.00     0.001 C 
HETATM    5  C   UNK N   1      32.407  16.506   6.297  0.00  0.00     0.002 C 
HETATM    6  C   UNK N   1      30.899  16.664   6.062  0.00  0.00     0.001 C 
HETATM    7  C   UNK N   1      30.343  17.880   6.887  0.00  0.00     0.035 C 
HETATM    8  C   UNK N   1      34.253  16.019   7.689  0.00  0.00     0.131 C 
HETATM    9  C   UNK N   1      33.107  15.327   5.619  0.00  0.00     0.013 C 
HETATM   10  C   UNK N   1      32.322  17.585   8.527  0.00  0.00     0.045 C 
HETATM   11  C   UNK N   1      34.302  14.971   6.532  0.00  0.00     0.025 C 
HETATM   12  C   UNK N   1      30.801  17.799   8.378  0.00  0.00     0.124 C 
HETATM   13  C   UNK N   1      28.781  17.937   6.720  0.00  0.00     0.006 A 
HETATM   14  C   UNK N   1      30.601  16.884   4.569  0.00  0.00     0.047 C 
HETATM   15  C   UNK N   1      32.000  15.122   8.414  0.00  0.00     0.019 C 
HETATM   16  C   UNK N   1      29.095  16.950   4.316  0.00  0.00     0.200 C 
HETATM   17  C   UNK N   1      28.476  17.997   5.215  0.00  0.00    -0.030 A 
HETATM   18  C   UNK N   1      34.091  13.522   6.964  0.00  0.00     0.013 C 
HETATM   19  C   UNK N   1      28.147  16.672   7.295  0.00  0.00     0.025 C 
HETATM   20  C   UNK N   1      28.176  19.095   7.501  0.00  0.00    -0.008 A 
HETATM   21  C   UNK N   1      27.694  18.954   4.682  0.00  0.00     0.061 A 
HETATM   22  C   UNK N   1      27.388  20.027   6.956  0.00  0.00     0.052 A 
HETATM   23  C   UNK N   1      27.070  19.981   5.526  0.00  0.00     0.172 A 
HETATM   24  H   UNK N   1      35.453  17.903   6.896  0.00  0.00     0.211 HD
ENDROOT
BRANCH   8  25
HETATM   25  C   UNK N   1      34.910  15.625   9.005  0.00  0.00     0.185 C 
HETATM   26  O   UNK N   1      35.587  14.612   9.095  0.00  0.00    -0.292 OA
BRANCH  25  27
HETATM   27  C   UNK N   1      34.763  16.508  10.203  0.00  0.00     0.245 C 
BRANCH  27  28
HETATM   28  O   UNK N   1      35.628  17.598  10.098  0.00  0.00    -0.393 OA
HETATM   29  H   UNK N   1      35.747  18.249   9.388  0.00  0.00     0.209 HD
ENDBRANCH  27  28
ENDBRANCH  25  27
ENDBRANCH   8  25
BRANCH  12  30
HETATM   30  O   UNK N   1      30.456  18.958   9.075  0.00  0.00    -0.395 OA
HETATM   31  H   UNK N   1      29.603  19.409   8.976  0.00  0.00     0.210 HD
ENDBRANCH  12  30
TORSDOF 4
ENDMDL
MODEL 2
REMARK VINA RESULT:      -7.9      8.365     11.359
REMARK  4 active torsions:
REMARK  status: ('A' for Active; 'I' for Inactive)
REMARK    1  A    between atoms: C_15  and  O_3 
REMARK    2  A    between atoms: O_5  and  C_26 
REMARK    3  A    between atoms: C_11  and  C_21 
REMARK    4  A    between atoms: C_21  and  C_26 
ROOT
HETATM    1  F   UNK N   1      19.844  13.116  11.102  0.00  0.00    -0.245 F 
HETATM    2  O   UNK N   1      22.183  18.198   6.252  0.00  0.00    -0.381 OA
HETATM    3  O   UNK N   1      24.056  11.534  12.925  0.00  0.00    -0.289 OA
HETATM    4  C   UNK N   1      22.274  15.805   6.027  0.00  0.00     0.001 C 
HETATM    5  C   UNK N   1      21.358  15.755   7.255  0.00  0.00     0.002 C 
HETATM    6  C   UNK N   1      21.473  14.421   8.004  0.00  0.00     0.001 C 
HETATM    7  C   UNK N   1      22.960  14.169   8.443  0.00  0.00     0.035 C 
HETATM    8  C   UNK N   1      21.825  17.143   5.400  0.00  0.00     0.131 C 
HETATM    9  C   UNK N   1      19.986  16.134   6.696  0.00  0.00     0.013 C 
HETATM   10  C   UNK N   1      23.722  15.708   6.508  0.00  0.00     0.045 C 
HETATM   11  C   UNK N   1      20.269  17.018   5.460  0.00  0.00     0.025 C 
HETATM   12  C   UNK N   1      23.938  14.369   7.241  0.00  0.00     0.124 C 
HETATM   13  C   UNK N   1      23.064  12.743   9.097  0.00  0.00     0.006 A 
HETATM   14  C   UNK N   1      20.568  14.416   9.248  0.00  0.00     0.047 C 
HETATM   15  C   UNK N   1      22.018  14.646   5.041  0.00  0.00     0.019 C 
HETATM   16  C   UNK N   1      20.608  13.058   9.948  0.00  0.00     0.200 C 
HETATM   17  C   UNK N   1      22.043  12.683  10.244  0.00  0.00    -0.030 A 
HETATM   18  C   UNK N   1      19.633  16.304   4.270  0.00  0.00     0.013 C 
HETATM   19  C   UNK N   1      22.706  11.670   8.072  0.00  0.00     0.025 C 
HETATM   20  C   UNK N   1      24.486  12.432   9.542  0.00  0.00    -0.008 A 
HETATM   21  C   UNK N   1      22.392  12.324  11.493  0.00  0.00     0.061 A 
HETATM   22  C   UNK N   1      24.810  12.062  10.785  0.00  0.00     0.052 A 
HETATM   23  C   UNK N   1      23.774  11.946  11.816  0.00  0.00     0.172 A 
HETATM   24  H   UNK N   1      22.373  18.973   6.804  0.00  0.00     0.211 HD
ENDROOT
BRANCH   8  25
HETATM   25  C   UNK N   1      22.440  17.455   4.043  0.00  0.00     0.185 C 
HETATM   26  O   UNK N   1      22.600  16.580   3.206  0.00  0.00    -0.292 OA
BRANCH  25  27
HETATM   27  C   UNK N   1      22.822  18.861   3.705  0.00  0.00     0.245 C 
BRANCH  27  28
HETATM   28  O   UNK N   1      21.709  19.695   3.814  0.00  0.00    -0.393 OA
HETATM   29  H   UNK N   1      20.767  19.522   3.655  0.00  0.00     0.209 HD
ENDBRANCH  27  28
ENDBRANCH  25  27
ENDBRANCH   8  25
BRANCH  12  30
HETATM   30  O   UNK N   1      25.268  14.314   7.660  0.00  0.00    -0.395 OA
HETATM   31  H   UNK N   1      25.538  14.082   8.563  0.00  0.00     0.210 HD
ENDBRANCH  12  30
TORSDOF 4
ENDMDL
MODEL 3
REMARK VINA RESULT:      -7.6     11.358     14.809
REMARK  4 active torsions:
REMARK  status: ('A' for Active; 'I' for Inactive)
REMARK    1  A    between atoms: C_15  and  O_3 
REMARK    2  A    between atoms: O_5  and  C_26 
REMARK    3  A    between atoms: C_11  and  C_21 
REMARK    4  A    between atoms: C_21  and  C_26 
ROOT
HETATM    1  F   UNK N   1      31.064  20.219  -7.621  0.00  0.00    -0.245 F 
HETATM    2  O   UNK N   1      25.942  23.921  -3.766  0.00  0.00    -0.381 OA
HETATM    3  O   UNK N   1      33.966  18.632  -4.066  0.00  0.00    -0.289 OA
HETATM    4  C   UNK N   1      28.197  24.607  -4.243  0.00  0.00     0.001 C 
HETATM    5  C   UNK N   1      28.237  23.437  -5.232  0.00  0.00     0.002 C 
HETATM    6  C   UNK N   1      29.670  22.959  -5.500  0.00  0.00     0.001 C 
HETATM    7  C   UNK N   1      30.366  22.540  -4.155  0.00  0.00     0.035 C 
HETATM    8  C   UNK N   1      26.697  24.972  -4.307  0.00  0.00     0.131 C 
HETATM    9  C   UNK N   1      27.428  23.945  -6.425  0.00  0.00     0.013 C 
HETATM   10  C   UNK N   1      28.743  24.117  -2.902  0.00  0.00     0.045 C 
HETATM   11  C   UNK N   1      26.434  24.977  -5.846  0.00  0.00     0.025 C 
HETATM   12  C   UNK N   1      30.204  23.655  -3.072  0.00  0.00     0.124 C 
HETATM   13  C   UNK N   1      31.866  22.175  -4.450  0.00  0.00     0.006 A 
HETATM   14  C   UNK N   1      29.673  21.763  -6.468  0.00  0.00     0.047 C 
HETATM   15  C   UNK N   1      29.054  25.806  -4.701  0.00  0.00     0.019 C 
HETATM   16  C   UNK N   1      31.102  21.342  -6.811  0.00  0.00     0.200 C 
HETATM   17  C   UNK N   1      31.875  21.088  -5.536  0.00  0.00    -0.030 A 
HETATM   18  C   UNK N   1      26.734  26.299  -6.547  0.00  0.00     0.013 C 
HETATM   19  C   UNK N   1      32.608  23.399  -4.981  0.00  0.00     0.025 C 
HETATM   20  C   UNK N   1      32.602  21.763  -3.183  0.00  0.00    -0.008 A 
HETATM   21  C   UNK N   1      32.533  19.925  -5.377  0.00  0.00     0.061 A 
HETATM   22  C   UNK N   1      33.263  20.609  -3.051  0.00  0.00     0.052 A 
HETATM   23  C   UNK N   1      33.300  19.647  -4.156  0.00  0.00     0.172 A 
HETATM   24  H   UNK N   1      25.354  23.224  -3.434  0.00  0.00     0.211 HD
ENDROOT
BRANCH   8  25
HETATM   25  C   UNK N   1      26.309  26.226  -3.536  0.00  0.00     0.185 C 
HETATM   26  O   UNK N   1      26.452  26.292  -2.324  0.00  0.00    -0.292 OA
BRANCH  25  27
HETATM   27  C   UNK N   1      25.780  27.417  -4.270  0.00  0.00     0.245 C 
BRANCH  27  28
HETATM   28  O   UNK N   1      25.383  28.397  -3.360  0.00  0.00    -0.393 OA
HETATM   29  H   UNK N   1      24.502  28.642  -3.033  0.00  0.00     0.209 HD
ENDBRANCH  27  28
ENDBRANCH  25  27
ENDBRANCH   8  25
BRANCH  12  30
HETATM   30  O   UNK N   1      30.669  23.221  -1.830  0.00  0.00    -0.395 OA
HETATM   31  H   UNK N   1      30.108  22.788  -1.167  0.00  0.00     0.210 HD
ENDBRANCH  12  30
TORSDOF 4
ENDMDL
MODEL 4
REMARK VINA RESULT:      -7.6      6.439     10.671
REMARK  4 active torsions:
REMARK  status: ('A' for Active; 'I' for Inactive)
REMARK    1  A    between atoms: C_15  and  O_3 
REMARK    2  A    between atoms: O_5  and  C_26 
REMARK    3  A    between atoms: C_11  and  C_21 
REMARK    4  A    between atoms: C_21  and  C_26 
ROOT
HETATM    1  F   UNK N   1      34.734   7.870  12.764  0.00  0.00    -0.245 F 
HETATM    2  O   UNK N   1      33.554  14.978  11.064  0.00  0.00    -0.381 OA
HETATM    3  O   UNK N   1      35.656   8.171  17.521  0.00  0.00    -0.289 OA
HETATM    4  C   UNK N   1      35.661  13.909  11.515  0.00  0.00     0.001 C 
HETATM    5  C   UNK N   1      34.894  12.585  11.422  0.00  0.00     0.002 C 
HETATM    6  C   UNK N   1      35.598  11.458  12.190  0.00  0.00     0.001 C 
HETATM    7  C   UNK N   1      35.784  11.859  13.698  0.00  0.00     0.035 C 
HETATM    8  C   UNK N   1      34.837  14.774  10.536  0.00  0.00     0.131 C 
HETATM    9  C   UNK N   1      34.687  12.392   9.920  0.00  0.00     0.013 C 
HETATM   10  C   UNK N   1      35.689  14.342  12.979  0.00  0.00     0.045 C 
HETATM   11  C   UNK N   1      34.678  13.815   9.314  0.00  0.00     0.025 C 
HETATM   12  C   UNK N   1      36.422  13.279  13.823  0.00  0.00     0.124 C 
HETATM   13  C   UNK N   1      36.614  10.740  14.424  0.00  0.00     0.006 A 
HETATM   14  C   UNK N   1      34.787  10.154  12.107  0.00  0.00     0.047 C 
HETATM   15  C   UNK N   1      37.118  13.792  11.020  0.00  0.00     0.019 C 
HETATM   16  C   UNK N   1      35.527   9.006  12.792  0.00  0.00     0.200 C 
HETATM   17  C   UNK N   1      35.884   9.405  14.207  0.00  0.00    -0.030 A 
HETATM   18  C   UNK N   1      35.825  13.856   8.308  0.00  0.00     0.013 C 
HETATM   19  C   UNK N   1      38.007  10.638  13.808  0.00  0.00     0.025 C 
HETATM   20  C   UNK N   1      36.834  11.069  15.894  0.00  0.00    -0.008 A 
HETATM   21  C   UNK N   1      35.546   8.600  15.230  0.00  0.00     0.061 A 
HETATM   22  C   UNK N   1      36.506  10.248  16.896  0.00  0.00     0.052 A 
HETATM   23  C   UNK N   1      35.884   8.951  16.616  0.00  0.00     0.172 A 
HETATM   24  H   UNK N   1      32.641  15.136  11.353  0.00  0.00     0.211 HD
ENDROOT
BRANCH   8  25
HETATM   25  C   UNK N   1      35.415  16.155  10.257  0.00  0.00     0.185 C 
HETATM   26  O   UNK N   1      36.429  16.541  10.819  0.00  0.00    -0.292 OA
BRANCH  25  27
HETATM   27  C   UNK N   1      34.761  17.047   9.250  0.00  0.00     0.245 C 
BRANCH  27  28
HETATM   28  O   UNK N   1      33.426  17.256   9.598  0.00  0.00    -0.393 OA
HETATM   29  H   UNK N   1      32.982  17.231  10.461  0.00  0.00     0.209 HD
ENDBRANCH  27  28
ENDBRANCH  25  27
ENDBRANCH   8  25
BRANCH  12  30
HETATM   30  O   UNK N   1      36.433  13.711  15.150  0.00  0.00    -0.395 OA
HETATM   31  H   UNK N   1      36.009  13.227  15.877  0.00  0.00     0.210 HD
ENDBRANCH  12  30
TORSDOF 4
ENDMDL
MODEL 5
REMARK VINA RESULT:      -7.5      7.434     11.301
REMARK  4 active torsions:
REMARK  status: ('A' for Active; 'I' for Inactive)
REMARK    1  A    between atoms: C_15  and  O_3 
REMARK    2  A    between atoms: O_5  and  C_26 
REMARK    3  A    between atoms: C_11  and  C_21 
REMARK    4  A    between atoms: C_21  and  C_26 
ROOT
HETATM    1  F   UNK N   1      35.028  13.806  17.503  0.00  0.00    -0.245 F 
HETATM    2  O   UNK N   1      38.530  13.466  10.989  0.00  0.00    -0.381 OA
HETATM    3  O   UNK N   1      35.609   9.268  19.131  0.00  0.00    -0.289 OA
HETATM    4  C   UNK N   1      36.372  12.560  11.543  0.00  0.00     0.001 C 
HETATM    5  C   UNK N   1      36.472  13.377  12.835  0.00  0.00     0.002 C 
HETATM    6  C   UNK N   1      35.598  12.793  13.954  0.00  0.00     0.001 C 
HETATM    7  C   UNK N   1      36.001  11.301  14.237  0.00  0.00     0.035 C 
HETATM    8  C   UNK N   1      37.187  13.457  10.585  0.00  0.00     0.131 C 
HETATM    9  C   UNK N   1      36.176  14.806  12.382  0.00  0.00     0.013 C 
HETATM   10  C   UNK N   1      36.914  11.158  11.821  0.00  0.00     0.045 C 
HETATM   11  C   UNK N   1      36.607  14.872  10.899  0.00  0.00     0.025 C 
HETATM   12  C   UNK N   1      36.061  10.477  12.911  0.00  0.00     0.124 C 
HETATM   13  C   UNK N   1      35.008  10.698  15.296  0.00  0.00     0.006 A 
HETATM   14  C   UNK N   1      35.748  13.614  15.246  0.00  0.00     0.047 C 
HETATM   15  C   UNK N   1      34.922  12.422  11.033  0.00  0.00     0.019 C 
HETATM   16  C   UNK N   1      34.811  13.093  16.335  0.00  0.00     0.200 C 
HETATM   17  C   UNK N   1      35.039  11.610  16.533  0.00  0.00    -0.030 A 
HETATM   18  C   UNK N   1      35.357  15.248  10.108  0.00  0.00     0.013 C 
HETATM   19  C   UNK N   1      33.589  10.685  14.736  0.00  0.00     0.025 C 
HETATM   20  C   UNK N   1      35.341   9.247  15.615  0.00  0.00    -0.008 A 
HETATM   21  C   UNK N   1      35.273  11.132  17.769  0.00  0.00     0.061 A 
HETATM   22  C   UNK N   1      35.556   8.789  16.851  0.00  0.00     0.052 A 
HETATM   23  C   UNK N   1      35.491   9.698  17.999  0.00  0.00     0.172 A 
HETATM   24  H   UNK N   1      39.468  13.543  11.227  0.00  0.00     0.211 HD
ENDROOT
BRANCH   8  25
HETATM   25  C   UNK N   1      37.177  13.015   9.128  0.00  0.00     0.185 C 
HETATM   26  O   UNK N   1      36.288  12.302   8.690  0.00  0.00    -0.292 OA
BRANCH  25  27
HETATM   27  C   UNK N   1      38.248  13.492   8.198  0.00  0.00     0.245 C 
BRANCH  27  28
HETATM   28  O   UNK N   1      39.376  12.679   8.318  0.00  0.00    -0.393 OA
HETATM   29  H   UNK N   1      40.213  12.818   8.787  0.00  0.00     0.209 HD
ENDBRANCH  27  28
ENDBRANCH  25  27
ENDBRANCH   8  25
BRANCH  12  30
HETATM   30  O   UNK N   1      36.580   9.201  13.134  0.00  0.00    -0.395 OA
HETATM   31  H   UNK N   1      36.528   8.741  13.986  0.00  0.00     0.210 HD
ENDBRANCH  12  30
TORSDOF 4
ENDMDL
MODEL 6
REMARK VINA RESULT:      -7.4     15.100     16.891
REMARK  4 active torsions:
REMARK  status: ('A' for Active; 'I' for Inactive)
REMARK    1  A    between atoms: C_15  and  O_3 
REMARK    2  A    between atoms: O_5  and  C_26 
REMARK    3  A    between atoms: C_11  and  C_21 
REMARK    4  A    between atoms: C_21  and  C_26 
ROOT
HETATM    1  F   UNK N   1      30.737  27.324  -2.965  0.00  0.00    -0.245 F 
HETATM    2  O   UNK N   1      25.731  22.654  -5.784  0.00  0.00    -0.381 OA
HETATM    3  O   UNK N   1      27.900  30.973  -1.477  0.00  0.00    -0.289 OA
HETATM    4  C   UNK N   1      26.533  24.704  -6.753  0.00  0.00     0.001 C 
HETATM    5  C   UNK N   1      27.613  24.677  -5.666  0.00  0.00     0.002 C 
HETATM    6  C   UNK N   1      28.170  26.078  -5.375  0.00  0.00     0.001 C 
HETATM    7  C   UNK N   1      27.010  27.047  -4.946  0.00  0.00     0.035 C 
HETATM    8  C   UNK N   1      26.300  23.189  -6.948  0.00  0.00     0.131 C 
HETATM    9  C   UNK N   1      28.597  23.616  -6.161  0.00  0.00     0.013 C 
HETATM   10  C   UNK N   1      25.358  25.532  -6.237  0.00  0.00     0.045 C 
HETATM   11  C   UNK N   1      27.763  22.648  -7.030  0.00  0.00     0.025 C 
HETATM   12  C   UNK N   1      25.821  26.976  -5.957  0.00  0.00     0.124 C 
HETATM   13  C   UNK N   1      27.595  28.496  -4.776  0.00  0.00     0.006 A 
HETATM   14  C   UNK N   1      29.225  26.022  -4.258  0.00  0.00     0.047 C 
HETATM   15  C   UNK N   1      27.026  25.338  -8.071  0.00  0.00     0.019 C 
HETATM   16  C   UNK N   1      29.849  27.397  -4.026  0.00  0.00     0.200 C 
HETATM   17  C   UNK N   1      28.757  28.413  -3.774  0.00  0.00    -0.030 A 
HETATM   18  C   UNK N   1      28.386  22.681  -8.424  0.00  0.00     0.013 C 
HETATM   19  C   UNK N   1      28.137  29.002  -6.110  0.00  0.00     0.025 C 
HETATM   20  C   UNK N   1      26.518  29.490  -4.363  0.00  0.00    -0.008 A 
HETATM   21  C   UNK N   1      28.820  29.202  -2.685  0.00  0.00     0.061 A 
HETATM   22  C   UNK N   1      26.606  30.275  -3.286  0.00  0.00     0.052 A 
HETATM   23  C   UNK N   1      27.782  30.204  -2.413  0.00  0.00     0.172 A 
HETATM   24  H   UNK N   1      25.365  22.209  -5.003  0.00  0.00     0.211 HD
ENDROOT
BRANCH   8  25
HETATM   25  C   UNK N   1      25.365  22.826  -8.093  0.00  0.00     0.185 C 
HETATM   26  O   UNK N   1      24.791  23.690  -8.739  0.00  0.00    -0.292 OA
BRANCH  25  27
HETATM   27  C   UNK N   1      25.170  21.391  -8.469  0.00  0.00     0.245 C 
BRANCH  27  28
HETATM   28  O   UNK N   1      25.163  21.261  -9.858  0.00  0.00    -0.393 OA
HETATM   29  H   UNK N   1      24.491  20.902 -10.459  0.00  0.00     0.209 HD
ENDBRANCH  27  28
ENDBRANCH  25  27
ENDBRANCH   8  25
BRANCH  12  30
HETATM   30  O   UNK N   1      24.723  27.703  -5.494  0.00  0.00    -0.395 OA
HETATM   31  H   UNK N   1      23.905  27.292  -5.171  0.00  0.00     0.210 HD
ENDBRANCH  12  30
TORSDOF 4
ENDMDL
MODEL 7
REMARK VINA RESULT:      -7.4      2.477      3.840
REMARK  4 active torsions:
REMARK  status: ('A' for Active; 'I' for Inactive)
REMARK    1  A    between atoms: C_15  and  O_3 
REMARK    2  A    between atoms: O_5  and  C_26 
REMARK    3  A    between atoms: C_11  and  C_21 
REMARK    4  A    between atoms: C_21  and  C_26 
ROOT
HETATM    1  F   UNK N   1      27.494  18.957   4.649  0.00  0.00    -0.245 F 
HETATM    2  O   UNK N   1      31.833  15.594   9.616  0.00  0.00    -0.381 OA
HETATM    3  O   UNK N   1      25.643  15.149   2.271  0.00  0.00    -0.289 OA
HETATM    4  C   UNK N   1      32.244  15.876   7.262  0.00  0.00     0.001 C 
HETATM    5  C   UNK N   1      31.060  16.849   7.275  0.00  0.00     0.002 C 
HETATM    6  C   UNK N   1      30.414  16.987   5.890  0.00  0.00     0.001 C 
HETATM    7  C   UNK N   1      29.941  15.583   5.367  0.00  0.00     0.035 C 
HETATM    8  C   UNK N   1      32.779  16.074   8.698  0.00  0.00     0.131 C 
HETATM    9  C   UNK N   1      31.638  18.113   7.913  0.00  0.00     0.013 C 
HETATM   10  C   UNK N   1      31.717  14.489   6.896  0.00  0.00     0.045 C 
HETATM   11  C   UNK N   1      32.789  17.630   8.825  0.00  0.00     0.025 C 
HETATM   12  C   UNK N   1      31.085  14.527   5.490  0.00  0.00     0.124 C 
HETATM   13  C   UNK N   1      29.399  15.742   3.900  0.00  0.00     0.006 A 
HETATM   14  C   UNK N   1      29.210  17.942   5.943  0.00  0.00     0.047 C 
HETATM   15  C   UNK N   1      33.327  16.266   6.235  0.00  0.00     0.019 C 
HETATM   16  C   UNK N   1      28.619  18.155   4.550  0.00  0.00     0.200 C 
HETATM   17  C   UNK N   1      28.299  16.815   3.925  0.00  0.00    -0.030 A 
HETATM   18  C   UNK N   1      34.054  18.312   8.312  0.00  0.00     0.013 C 
HETATM   19  C   UNK N   1      30.519  16.215   2.976  0.00  0.00     0.025 C 
HETATM   20  C   UNK N   1      28.926  14.413   3.329  0.00  0.00    -0.008 A 
HETATM   21  C   UNK N   1      27.070  16.591   3.424  0.00  0.00     0.061 A 
HETATM   22  C   UNK N   1      27.706  14.214   2.822  0.00  0.00     0.052 A 
HETATM   23  C   UNK N   1      26.727  15.305   2.803  0.00  0.00     0.172 A 
HETATM   24  H   UNK N   1      31.215  15.310  10.308  0.00  0.00     0.211 HD
ENDROOT
BRANCH   8  25
HETATM   25  C   UNK N   1      34.083  15.349   9.002  0.00  0.00     0.185 C 
HETATM   26  O   UNK N   1      34.668  14.712   8.139  0.00  0.00    -0.292 OA
BRANCH  25  27
HETATM   27  C   UNK N   1      34.688  15.446  10.366  0.00  0.00     0.245 C 
BRANCH  27  28
HETATM   28  O   UNK N   1      33.813  14.912  11.313  0.00  0.00    -0.393 OA
HETATM   29  H   UNK N   1      33.940  14.707  12.253  0.00  0.00     0.209 HD
ENDBRANCH  27  28
ENDBRANCH  25  27
ENDBRANCH   8  25
BRANCH  12  30
HETATM   30  O   UNK N   1      30.622  13.245   5.188  0.00  0.00    -0.395 OA
HETATM   31  H   UNK N   1      31.072  12.641   4.576  0.00  0.00     0.210 HD
ENDBRANCH  12  30
TORSDOF 4
ENDMDL
MODEL 8
REMARK VINA RESULT:      -7.3      3.697      7.877
REMARK  4 active torsions:
REMARK  status: ('A' for Active; 'I' for Inactive)
REMARK    1  A    between atoms: C_15  and  O_3 
REMARK    2  A    between atoms: O_5  and  C_26 
REMARK    3  A    between atoms: C_11  and  C_21 
REMARK    4  A    between atoms: C_21  and  C_26 
ROOT
HETATM    1  F   UNK N   1      34.468  10.675  10.911  0.00  0.00    -0.245 F 
HETATM    2  O   UNK N   1      31.217  16.113   7.082  0.00  0.00    -0.381 OA
HETATM    3  O   UNK N   1      35.937  13.055  14.880  0.00  0.00    -0.289 OA
HETATM    4  C   UNK N   1      33.574  15.738   7.383  0.00  0.00     0.001 C 
HETATM    5  C   UNK N   1      33.180  14.373   7.957  0.00  0.00     0.002 C 
HETATM    6  C   UNK N   1      34.259  13.811   8.894  0.00  0.00     0.001 C 
HETATM    7  C   UNK N   1      34.541  14.818  10.066  0.00  0.00     0.035 C 
HETATM    8  C   UNK N   1      32.420  15.958   6.379  0.00  0.00     0.131 C 
HETATM    9  C   UNK N   1      32.822  13.550   6.720  0.00  0.00     0.013 C 
HETATM   10  C   UNK N   1      33.691  16.727   8.541  0.00  0.00     0.045 C 
HETATM   11  C   UNK N   1      32.352  14.573   5.661  0.00  0.00     0.025 C 
HETATM   12  C   UNK N   1      34.791  16.259   9.516  0.00  0.00     0.124 C 
HETATM   13  C   UNK N   1      35.733  14.270  10.932  0.00  0.00     0.006 A 
HETATM   14  C   UNK N   1      33.820  12.459   9.480  0.00  0.00     0.047 C 
HETATM   15  C   UNK N   1      34.925  15.707   6.638  0.00  0.00     0.019 C 
HETATM   16  C   UNK N   1      34.927  11.851  10.340  0.00  0.00     0.200 C 
HETATM   17  C   UNK N   1      35.360  12.851  11.389  0.00  0.00    -0.030 A 
HETATM   18  C   UNK N   1      33.293  14.417   4.469  0.00  0.00     0.013 C 
HETATM   19  C   UNK N   1      37.002  14.192  10.087  0.00  0.00     0.025 C 
HETATM   20  C   UNK N   1      36.062  15.205  12.088  0.00  0.00    -0.008 A 
HETATM   21  C   UNK N   1      35.396  12.484  12.683  0.00  0.00     0.061 A 
HETATM   22  C   UNK N   1      36.108  14.817  13.366  0.00  0.00     0.052 A 
HETATM   23  C   UNK N   1      35.819  13.426  13.727  0.00  0.00     0.172 A 
HETATM   24  H   UNK N   1      30.345  16.200   7.499  0.00  0.00     0.211 HD
ENDROOT
BRANCH   8  25
HETATM   25  C   UNK N   1      32.565  17.187   5.493  0.00  0.00     0.185 C 
HETATM   26  O   UNK N   1      33.585  17.861   5.509  0.00  0.00    -0.292 OA
BRANCH  25  27
HETATM   27  C   UNK N   1      31.464  17.563   4.554  0.00  0.00     0.245 C 
BRANCH  27  28
HETATM   28  O   UNK N   1      31.938  17.562   3.241  0.00  0.00    -0.393 OA
HETATM   29  H   UNK N   1      31.673  17.038   2.469  0.00  0.00     0.209 HD
ENDBRANCH  27  28
ENDBRANCH  25  27
ENDBRANCH   8  25
BRANCH  12  30
HETATM   30  O   UNK N   1      34.874  17.187  10.555  0.00  0.00    -0.395 OA
HETATM   31  H   UNK N   1      34.992  16.942  11.486  0.00  0.00     0.210 HD
ENDBRANCH  12  30
TORSDOF 4
ENDMDL
MODEL 9
REMARK VINA RESULT:      -7.2     12.278     14.230
REMARK  4 active torsions:
REMARK  status: ('A' for Active; 'I' for Inactive)
REMARK    1  A    between atoms: C_15  and  O_3 
REMARK    2  A    between atoms: O_5  and  C_26 
REMARK    3  A    between atoms: C_11  and  C_21 
REMARK    4  A    between atoms: C_21  and  C_26 
ROOT
HETATM    1  F   UNK N   1      26.999  24.353  -4.935  0.00  0.00    -0.245 F 
HETATM    2  O   UNK N   1      32.189  19.145  -4.063  0.00  0.00    -0.381 OA
HETATM    3  O   UNK N   1      23.830  22.062  -7.813  0.00  0.00    -0.289 OA
HETATM    4  C   UNK N   1      31.786  20.502  -6.007  0.00  0.00     0.001 C 
HETATM    5  C   UNK N   1      30.860  21.332  -5.111  0.00  0.00     0.002 C 
HETATM    6  C   UNK N   1      29.801  22.089  -5.924  0.00  0.00     0.001 C 
HETATM    7  C   UNK N   1      28.950  21.084  -6.779  0.00  0.00     0.035 C 
HETATM    8  C   UNK N   1      32.817  20.016  -4.964  0.00  0.00     0.131 C 
HETATM    9  C   UNK N   1      31.826  22.163  -4.265  0.00  0.00     0.013 C 
HETATM   10  C   UNK N   1      30.943  19.437  -6.707  0.00  0.00     0.045 C 
HETATM   11  C   UNK N   1      33.127  21.332  -4.183  0.00  0.00     0.025 C 
HETATM   12  C   UNK N   1      29.873  20.116  -7.586  0.00  0.00     0.124 C 
HETATM   13  C   UNK N   1      27.961  21.900  -7.689  0.00  0.00     0.006 A 
HETATM   14  C   UNK N   1      28.868  22.884  -4.995  0.00  0.00     0.047 C 
HETATM   15  C   UNK N   1      32.488  21.349  -7.090  0.00  0.00     0.019 C 
HETATM   16  C   UNK N   1      27.869  23.712  -5.803  0.00  0.00     0.200 C 
HETATM   17  C   UNK N   1      27.133  22.814  -6.772  0.00  0.00    -0.030 A 
HETATM   18  C   UNK N   1      34.226  22.200  -4.791  0.00  0.00     0.013 C 
HETATM   19  C   UNK N   1      28.746  22.772  -8.665  0.00  0.00     0.025 C 
HETATM   20  C   UNK N   1      27.105  20.982  -8.551  0.00  0.00    -0.008 A 
HETATM   21  C   UNK N   1      25.788  22.826  -6.800  0.00  0.00     0.061 A 
HETATM   22  C   UNK N   1      25.769  21.020  -8.575  0.00  0.00     0.052 A 
HETATM   23  C   UNK N   1      25.041  21.973  -7.733  0.00  0.00     0.172 A 
HETATM   24  H   UNK N   1      31.815  18.558  -3.386  0.00  0.00     0.211 HD
ENDROOT
BRANCH   8  25
HETATM   25  C   UNK N   1      34.006  19.260  -5.540  0.00  0.00     0.185 C 
HETATM   26  O   UNK N   1      34.200  19.213  -6.745  0.00  0.00    -0.292 OA
BRANCH  25  27
HETATM   27  C   UNK N   1      34.980  18.593  -4.622  0.00  0.00     0.245 C 
BRANCH  27  28
HETATM   28  O   UNK N   1      34.366  17.520  -3.976  0.00  0.00    -0.393 OA
HETATM   29  H   UNK N   1      33.428  17.291  -3.874  0.00  0.00     0.209 HD
ENDBRANCH  27  28
ENDBRANCH  25  27
ENDBRANCH   8  25
BRANCH  12  30
HETATM   30  O   UNK N   1      29.128  19.115  -8.212  0.00  0.00    -0.395 OA
HETATM   31  H   UNK N   1      29.510  18.283  -8.534  0.00  0.00     0.210 HD
ENDBRANCH  12  30
TORSDOF 4
ENDMDL
