MODEL 1
REMARK VINA RESULT:      -7.8      0.000      0.000
REMARK  3 active torsions:
REMARK  status: ('A' for Active; 'I' for Inactive)
REMARK    1  A    between atoms: C_13  and  O_1 
REMARK    2  A    between atoms: O_2  and  C_19 
REMARK    3  A    between atoms: C_10  and  C_19 
ROOT
HETATM    1  N   UNK N   1      33.943  15.364   6.852  0.00  0.00     0.099 N 
HETATM    2  N   UNK N   1      31.500  16.615   9.355  0.00  0.00    -0.357 N 
HETATM    3  C   UNK N   1      35.383  14.581   9.252  0.00  0.00     0.010 C 
HETATM    4  C   UNK N   1      35.754  13.980   7.881  0.00  0.00     0.019 C 
HETATM    5  C   UNK N   1      33.889  14.872   9.260  0.00  0.00     0.048 C 
HETATM    6  C   UNK N   1      33.639  15.921   8.192  0.00  0.00     0.273 C 
HETATM    7  C   UNK N   1      35.783  13.662  10.420  0.00  0.00     0.118 C 
HETATM    8  C   UNK N   1      35.364  14.982   6.772  0.00  0.00     0.278 C 
HETATM    9  C   UNK N   1      37.252  13.652   7.787  0.00  0.00     0.009 C 
HETATM   10  C   UNK N   1      37.279  13.234  10.309  0.00  0.00     0.132 C 
HETATM   11  C   UNK N   1      38.017  13.838   9.105  0.00  0.00     0.033 C 
HETATM   12  C   UNK N   1      32.240  16.406   8.239  0.00  0.00     0.050 A 
HETATM   13  C   UNK N   1      33.680  16.375   5.813  0.00  0.00     0.278 C 
HETATM   14  C   UNK N   1      31.584  16.838   7.114  0.00  0.00    -0.019 A 
HETATM   15  C   UNK N   1      32.185  16.778   5.741  0.00  0.00     0.072 C 
HETATM   16  C   UNK N   1      30.374  17.324   7.546  0.00  0.00    -0.001 A 
HETATM   17  C   UNK N   1      30.356  17.164   8.912  0.00  0.00     0.043 A 
HETATM   18  C   UNK N   1      29.315  17.911   6.863  0.00  0.00     0.014 A 
HETATM   19  C   UNK N   1      29.272  17.570   9.687  0.00  0.00     0.030 A 
HETATM   20  C   UNK N   1      28.206  18.336   7.620  0.00  0.00     0.001 A 
HETATM   21  C   UNK N   1      28.183  18.162   9.025  0.00  0.00     0.002 A 
HETATM   22  H   UNK N   1      31.746  16.409  10.287  0.00  0.00     0.166 HD
ENDROOT
BRANCH   7  23
HETATM   23  C   UNK N   1      35.410  14.263  11.782  0.00  0.00     0.265 C 
HETATM   24  O   UNK N   1      35.825  15.371  12.091  0.00  0.00    -0.265 OA
BRANCH  23  25
HETATM   25  O   UNK N   1      34.611  13.609  12.660  0.00  0.00    -0.326 OA
HETATM   26  C   UNK N   1      34.969  12.436  13.281  0.00  0.00     0.213 C 
ENDBRANCH  23  25
ENDBRANCH   7  23
BRANCH  10  27
HETATM   27  O   UNK N   1      38.007  13.526  11.465  0.00  0.00    -0.395 OA
HETATM   28  H   UNK N   1      38.531  12.928  12.023  0.00  0.00     0.210 HD
ENDBRANCH  10  27
TORSDOF 3
ENDMDL
MODEL 2
REMARK VINA RESULT:      -7.3      4.217      8.440
REMARK  3 active torsions:
REMARK  status: ('A' for Active; 'I' for Inactive)
REMARK    1  A    between atoms: C_13  and  O_1 
REMARK    2  A    between atoms: O_2  and  C_19 
REMARK    3  A    between atoms: C_10  and  C_19 
ROOT
HETATM    1  N   UNK N   1      37.015  10.702  13.309  0.00  0.00     0.099 N 
HETATM    2  N   UNK N   1      35.588  13.257  15.597  0.00  0.00    -0.357 N 
HETATM    3  C   UNK N   1      36.619  12.819  11.357  0.00  0.00     0.010 C 
HETATM    4  C   UNK N   1      37.539  11.623  11.043  0.00  0.00     0.019 C 
HETATM    5  C   UNK N   1      36.683  13.095  12.853  0.00  0.00     0.048 C 
HETATM    6  C   UNK N   1      36.130  11.866  13.551  0.00  0.00     0.273 C 
HETATM    7  C   UNK N   1      36.985  14.070  10.539  0.00  0.00     0.118 C 
HETATM    8  C   UNK N   1      37.074  10.401  11.866  0.00  0.00     0.278 C 
HETATM    9  C   UNK N   1      37.535  11.277   9.546  0.00  0.00     0.009 C 
HETATM   10  C   UNK N   1      37.080  13.736   9.018  0.00  0.00     0.132 C 
HETATM   11  C   UNK N   1      36.759  12.274   8.675  0.00  0.00     0.033 C 
HETATM   12  C   UNK N   1      35.982  12.102  15.006  0.00  0.00     0.050 A 
HETATM   13  C   UNK N   1      36.490   9.514  14.004  0.00  0.00     0.278 C 
HETATM   14  C   UNK N   1      36.104  11.087  15.921  0.00  0.00    -0.019 A 
HETATM   15  C   UNK N   1      36.478   9.684  15.545  0.00  0.00     0.072 C 
HETATM   16  C   UNK N   1      35.787  11.637  17.140  0.00  0.00    -0.001 A 
HETATM   17  C   UNK N   1      35.487  12.958  16.904  0.00  0.00     0.043 A 
HETATM   18  C   UNK N   1      35.711  11.085  18.414  0.00  0.00     0.014 A 
HETATM   19  C   UNK N   1      35.101  13.820  17.927  0.00  0.00     0.030 A 
HETATM   20  C   UNK N   1      35.320  11.931  19.469  0.00  0.00     0.001 A 
HETATM   21  C   UNK N   1      35.021  13.293  19.227  0.00  0.00     0.002 A 
HETATM   22  H   UNK N   1      35.414  14.124  15.164  0.00  0.00     0.166 HD
ENDROOT
BRANCH   7  23
HETATM   23  C   UNK N   1      36.068  15.259  10.857  0.00  0.00     0.265 C 
HETATM   24  O   UNK N   1      36.508  16.398  10.796  0.00  0.00    -0.265 OA
BRANCH  23  25
HETATM   25  O   UNK N   1      34.765  15.089  11.191  0.00  0.00    -0.326 OA
HETATM   26  C   UNK N   1      33.750  15.014  10.268  0.00  0.00     0.213 C 
ENDBRANCH  23  25
ENDBRANCH   7  23
BRANCH  10  27
HETATM   27  O   UNK N   1      36.268  14.562   8.237  0.00  0.00    -0.395 OA
HETATM   28  H   UNK N   1      35.849  14.372   7.381  0.00  0.00     0.210 HD
ENDBRANCH  10  27
TORSDOF 3
ENDMDL
MODEL 3
REMARK VINA RESULT:      -7.3     12.910     14.058
REMARK  3 active torsions:
REMARK  status: ('A' for Active; 'I' for Inactive)
REMARK    1  A    between atoms: C_13  and  O_1 
REMARK    2  A    between atoms: O_2  and  C_19 
REMARK    3  A    between atoms: C_10  and  C_19 
ROOT
HETATM    1  N   UNK N   1      40.427  21.812  -0.045  0.00  0.00     0.099 N 
HETATM    2  N   UNK N   1      40.567  25.493   0.431  0.00  0.00    -0.357 N 
HETATM    3  C   UNK N   1      42.641  21.894   1.835  0.00  0.00     0.010 C 
HETATM    4  C   UNK N   1      41.890  20.576   1.564  0.00  0.00     0.019 C 
HETATM    5  C   UNK N   1      41.658  23.047   1.688  0.00  0.00     0.048 C 
HETATM    6  C   UNK N   1      41.194  23.047   0.243  0.00  0.00     0.273 C 
HETATM    7  C   UNK N   1      43.318  21.907   3.217  0.00  0.00     0.118 C 
HETATM    8  C   UNK N   1      41.283  20.627   0.144  0.00  0.00     0.278 C 
HETATM    9  C   UNK N   1      42.812  19.354   1.695  0.00  0.00     0.009 C 
HETATM   10  C   UNK N   1      44.196  20.633   3.423  0.00  0.00     0.132 C 
HETATM   11  C   UNK N   1      44.218  19.685   2.215  0.00  0.00     0.033 C 
HETATM   12  C   UNK N   1      40.369  24.242  -0.051  0.00  0.00     0.050 A 
HETATM   13  C   UNK N   1      39.957  21.821  -1.442  0.00  0.00     0.278 C 
HETATM   14  C   UNK N   1      39.367  24.218  -0.988  0.00  0.00    -0.019 A 
HETATM   15  C   UNK N   1      38.964  22.977  -1.727  0.00  0.00     0.072 C 
HETATM   16  C   UNK N   1      38.908  25.510  -1.083  0.00  0.00    -0.001 A 
HETATM   17  C   UNK N   1      39.656  26.254  -0.201  0.00  0.00     0.043 A 
HETATM   18  C   UNK N   1      37.929  26.089  -1.883  0.00  0.00     0.014 A 
HETATM   19  C   UNK N   1      39.468  27.625  -0.050  0.00  0.00     0.030 A 
HETATM   20  C   UNK N   1      37.718  27.475  -1.755  0.00  0.00     0.001 A 
HETATM   21  C   UNK N   1      38.481  28.238  -0.840  0.00  0.00     0.002 A 
HETATM   22  H   UNK N   1      41.232  25.782   1.098  0.00  0.00     0.166 HD
ENDROOT
BRANCH   7  23
HETATM   23  C   UNK N   1      44.063  23.222   3.484  0.00  0.00     0.265 C 
HETATM   24  O   UNK N   1      43.637  24.001   4.324  0.00  0.00    -0.265 OA
BRANCH  23  25
HETATM   25  O   UNK N   1      45.202  23.547   2.824  0.00  0.00    -0.326 OA
HETATM   26  C   UNK N   1      45.304  24.622   1.974  0.00  0.00     0.213 C 
ENDBRANCH  23  25
ENDBRANCH   7  23
BRANCH  10  27
HETATM   27  O   UNK N   1      45.514  20.940   3.768  0.00  0.00    -0.395 OA
HETATM   28  H   UNK N   1      46.265  21.143   3.187  0.00  0.00     0.210 HD
ENDBRANCH  10  27
TORSDOF 3
ENDMDL
MODEL 4
REMARK VINA RESULT:      -7.2     14.975     17.197
REMARK  3 active torsions:
REMARK  status: ('A' for Active; 'I' for Inactive)
REMARK    1  A    between atoms: C_13  and  O_1 
REMARK    2  A    between atoms: O_2  and  C_19 
REMARK    3  A    between atoms: C_10  and  C_19 
ROOT
HETATM    1  N   UNK N   1      27.879  22.447  -6.964  0.00  0.00     0.099 N 
HETATM    2  N   UNK N   1      27.998  25.249  -4.529  0.00  0.00    -0.357 N 
HETATM    3  C   UNK N   1      30.353  21.715  -5.626  0.00  0.00     0.010 C 
HETATM    4  C   UNK N   1      29.601  20.693  -6.501  0.00  0.00     0.019 C 
HETATM    5  C   UNK N   1      29.330  22.647  -4.990  0.00  0.00     0.048 C 
HETATM    6  C   UNK N   1      28.650  23.393  -6.123  0.00  0.00     0.273 C 
HETATM    7  C   UNK N   1      31.233  21.038  -4.561  0.00  0.00     0.118 C 
HETATM    8  C   UNK N   1      28.783  21.452  -7.570  0.00  0.00     0.278 C 
HETATM    9  C   UNK N   1      30.563  19.707  -7.182  0.00  0.00     0.009 C 
HETATM   10  C   UNK N   1      32.163  19.963  -5.205  0.00  0.00     0.132 C 
HETATM   11  C   UNK N   1      32.024  19.845  -6.729  0.00  0.00     0.033 C 
HETATM   12  C   UNK N   1      27.760  24.456  -5.603  0.00  0.00     0.050 A 
HETATM   13  C   UNK N   1      27.200  23.173  -8.052  0.00  0.00     0.278 C 
HETATM   14  C   UNK N   1      26.627  24.846  -6.271  0.00  0.00    -0.019 A 
HETATM   15  C   UNK N   1      26.146  24.181  -7.527  0.00  0.00     0.072 C 
HETATM   16  C   UNK N   1      26.127  25.919  -5.574  0.00  0.00    -0.001 A 
HETATM   17  C   UNK N   1      26.983  26.129  -4.518  0.00  0.00     0.043 A 
HETATM   18  C   UNK N   1      25.022  26.734  -5.796  0.00  0.00     0.014 A 
HETATM   19  C   UNK N   1      26.786  27.162  -3.606  0.00  0.00     0.030 A 
HETATM   20  C   UNK N   1      24.799  27.790  -4.891  0.00  0.00     0.001 A 
HETATM   21  C   UNK N   1      25.674  28.000  -3.799  0.00  0.00     0.002 A 
HETATM   22  H   UNK N   1      28.750  25.192  -3.896  0.00  0.00     0.166 HD
ENDROOT
BRANCH   7  23
HETATM   23  C   UNK N   1      31.977  22.060  -3.690  0.00  0.00     0.265 C 
HETATM   24  O   UNK N   1      31.757  22.108  -2.488  0.00  0.00    -0.265 OA
BRANCH  23  25
HETATM   25  O   UNK N   1      32.895  22.912  -4.210  0.00  0.00    -0.326 OA
HETATM   26  C   UNK N   1      32.582  24.161  -4.691  0.00  0.00     0.213 C 
ENDBRANCH  23  25
ENDBRANCH   7  23
BRANCH  10  27
HETATM   27  O   UNK N   1      33.511  20.168  -4.899  0.00  0.00    -0.395 OA
HETATM   28  H   UNK N   1      34.281  19.634  -5.151  0.00  0.00     0.210 HD
ENDBRANCH  10  27
TORSDOF 3
ENDMDL
MODEL 5
REMARK VINA RESULT:      -7.0      3.618      5.689
REMARK  3 active torsions:
REMARK  status: ('A' for Active; 'I' for Inactive)
REMARK    1  A    between atoms: C_13  and  O_1 
REMARK    2  A    between atoms: O_2  and  C_19 
REMARK    3  A    between atoms: C_10  and  C_19 
ROOT
HETATM    1  N   UNK N   1      30.700  17.148   8.461  0.00  0.00     0.099 N 
HETATM    2  N   UNK N   1      29.002  18.009   5.272  0.00  0.00    -0.357 N 
HETATM    3  C   UNK N   1      32.032  15.207   6.756  0.00  0.00     0.010 C 
HETATM    4  C   UNK N   1      32.610  15.565   8.139  0.00  0.00     0.019 C 
HETATM    5  C   UNK N   1      31.334  16.438   6.194  0.00  0.00     0.048 C 
HETATM    6  C   UNK N   1      30.182  16.756   7.129  0.00  0.00     0.273 C 
HETATM    7  C   UNK N   1      33.109  14.683   5.789  0.00  0.00     0.118 C 
HETATM    8  C   UNK N   1      31.460  16.035   9.058  0.00  0.00     0.278 C 
HETATM    9  C   UNK N   1      33.337  14.373   8.780  0.00  0.00     0.009 C 
HETATM   10  C   UNK N   1      33.931  13.528   6.441  0.00  0.00     0.132 C 
HETATM   11  C   UNK N   1      33.472  13.153   7.858  0.00  0.00     0.033 C 
HETATM   12  C   UNK N   1      29.327  17.833   6.576  0.00  0.00     0.050 A 
HETATM   13  C   UNK N   1      29.583  17.477   9.363  0.00  0.00     0.278 C 
HETATM   14  C   UNK N   1      28.647  18.707   7.385  0.00  0.00    -0.019 A 
HETATM   15  C   UNK N   1      28.772  18.707   8.880  0.00  0.00     0.072 C 
HETATM   16  C   UNK N   1      27.874  19.474   6.547  0.00  0.00    -0.001 A 
HETATM   17  C   UNK N   1      28.123  19.026   5.271  0.00  0.00     0.043 A 
HETATM   18  C   UNK N   1      26.964  20.494   6.801  0.00  0.00     0.014 A 
HETATM   19  C   UNK N   1      27.487  19.575   4.161  0.00  0.00     0.030 A 
HETATM   20  C   UNK N   1      26.302  21.067   5.699  0.00  0.00     0.001 A 
HETATM   21  C   UNK N   1      26.565  20.613   4.384  0.00  0.00     0.002 A 
HETATM   22  H   UNK N   1      29.337  17.504   4.495  0.00  0.00     0.166 HD
ENDROOT
BRANCH   7  23
HETATM   23  C   UNK N   1      32.529  14.331   4.413  0.00  0.00     0.265 C 
HETATM   24  O   UNK N   1      31.593  13.549   4.331  0.00  0.00    -0.265 OA
BRANCH  23  25
HETATM   25  O   UNK N   1      33.014  14.876   3.270  0.00  0.00    -0.326 OA
HETATM   26  C   UNK N   1      33.054  16.230   3.034  0.00  0.00     0.213 C 
ENDBRANCH  23  25
ENDBRANCH   7  23
BRANCH  10  27
HETATM   27  O   UNK N   1      33.941  12.370   5.659  0.00  0.00    -0.395 OA
HETATM   28  H   UNK N   1      33.491  11.525   5.816  0.00  0.00     0.210 HD
ENDBRANCH  10  27
TORSDOF 3
ENDMDL
MODEL 6
REMARK VINA RESULT:      -6.9      8.352     12.811
REMARK  3 active torsions:
REMARK  status: ('A' for Active; 'I' for Inactive)
REMARK    1  A    between atoms: C_13  and  O_1 
REMARK    2  A    between atoms: O_2  and  C_19 
REMARK    3  A    between atoms: C_10  and  C_19 
ROOT
HETATM    1  N   UNK N   1      24.922  19.979   3.679  0.00  0.00     0.099 N 
HETATM    2  N   UNK N   1      26.273  16.657   4.647  0.00  0.00    -0.357 N 
HETATM    3  C   UNK N   1      22.474  18.442   3.376  0.00  0.00     0.010 C 
HETATM    4  C   UNK N   1      22.430  19.980   3.462  0.00  0.00     0.019 C 
HETATM    5  C   UNK N   1      23.645  17.947   4.213  0.00  0.00     0.048 C 
HETATM    6  C   UNK N   1      24.907  18.500   3.576  0.00  0.00     0.273 C 
HETATM    7  C   UNK N   1      21.152  17.793   3.821  0.00  0.00     0.118 C 
HETATM    8  C   UNK N   1      23.773  20.551   2.953  0.00  0.00     0.278 C 
HETATM    9  C   UNK N   1      21.270  20.566   2.643  0.00  0.00     0.009 C 
HETATM   10  C   UNK N   1      19.938  18.427   3.074  0.00  0.00     0.132 C 
HETATM   11  C   UNK N   1      20.323  19.509   2.056  0.00  0.00     0.033 C 
HETATM   12  C   UNK N   1      26.118  17.931   4.211  0.00  0.00     0.050 A 
HETATM   13  C   UNK N   1      26.157  20.515   3.080  0.00  0.00     0.278 C 
HETATM   14  C   UNK N   1      27.293  18.635   4.293  0.00  0.00    -0.019 A 
HETATM   15  C   UNK N   1      27.431  20.056   3.833  0.00  0.00     0.072 C 
HETATM   16  C   UNK N   1      28.218  17.766   4.819  0.00  0.00    -0.001 A 
HETATM   17  C   UNK N   1      27.559  16.577   5.028  0.00  0.00     0.043 A 
HETATM   18  C   UNK N   1      29.572  17.913   5.100  0.00  0.00     0.014 A 
HETATM   19  C   UNK N   1      28.207  15.457   5.543  0.00  0.00     0.030 A 
HETATM   20  C   UNK N   1      30.255  16.796   5.618  0.00  0.00     0.001 A 
HETATM   21  C   UNK N   1      29.575  15.575   5.842  0.00  0.00     0.002 A 
HETATM   22  H   UNK N   1      25.592  15.946   4.678  0.00  0.00     0.166 HD
ENDROOT
BRANCH   7  23
HETATM   23  C   UNK N   1      21.201  16.262   3.736  0.00  0.00     0.265 C 
HETATM   24  O   UNK N   1      21.038  15.592   4.746  0.00  0.00    -0.265 OA
BRANCH  23  25
HETATM   25  O   UNK N   1      21.406  15.615   2.562  0.00  0.00    -0.326 OA
HETATM   26  C   UNK N   1      22.521  14.857   2.299  0.00  0.00     0.213 C 
ENDBRANCH  23  25
ENDBRANCH   7  23
BRANCH  10  27
HETATM   27  O   UNK N   1      19.149  17.472   2.427  0.00  0.00    -0.395 OA
HETATM   28  H   UNK N   1      19.352  16.949   1.635  0.00  0.00     0.210 HD
ENDBRANCH  10  27
TORSDOF 3
ENDMDL
MODEL 7
REMARK VINA RESULT:      -6.8      3.578      7.215
REMARK  3 active torsions:
REMARK  status: ('A' for Active; 'I' for Inactive)
REMARK    1  A    between atoms: C_13  and  O_1 
REMARK    2  A    between atoms: O_2  and  C_19 
REMARK    3  A    between atoms: C_10  and  C_19 
ROOT
HETATM    1  N   UNK N   1      34.774  15.707  10.748  0.00  0.00     0.099 N 
HETATM    2  N   UNK N   1      34.243  12.032  10.688  0.00  0.00    -0.357 N 
HETATM    3  C   UNK N   1      33.598  15.511   8.098  0.00  0.00     0.010 C 
HETATM    4  C   UNK N   1      33.686  16.870   8.820  0.00  0.00     0.019 C 
HETATM    5  C   UNK N   1      33.425  14.421   9.146  0.00  0.00     0.048 C 
HETATM    6  C   UNK N   1      34.677  14.430  10.002  0.00  0.00     0.273 C 
HETATM    7  C   UNK N   1      32.465  15.474   7.057  0.00  0.00     0.118 C 
HETATM    8  C   UNK N   1      34.874  16.839   9.808  0.00  0.00     0.278 C 
HETATM    9  C   UNK N   1      33.861  18.033   7.830  0.00  0.00     0.009 C 
HETATM   10  C   UNK N   1      32.557  16.692   6.087  0.00  0.00     0.132 C 
HETATM   11  C   UNK N   1      33.750  17.620   6.355  0.00  0.00     0.033 C 
HETATM   12  C   UNK N   1      34.688  13.286  10.944  0.00  0.00     0.050 A 
HETATM   13  C   UNK N   1      35.980  15.709  11.596  0.00  0.00     0.278 C 
HETATM   14  C   UNK N   1      35.302  13.361  12.168  0.00  0.00    -0.019 A 
HETATM   15  C   UNK N   1      35.935  14.615  12.694  0.00  0.00     0.072 C 
HETATM   16  C   UNK N   1      35.223  12.099  12.707  0.00  0.00    -0.001 A 
HETATM   17  C   UNK N   1      34.566  11.322  11.783  0.00  0.00     0.043 A 
HETATM   18  C   UNK N   1      35.694  11.573  13.905  0.00  0.00     0.014 A 
HETATM   19  C   UNK N   1      34.325   9.968  11.998  0.00  0.00     0.030 A 
HETATM   20  C   UNK N   1      35.468  10.205  14.150  0.00  0.00     0.001 A 
HETATM   21  C   UNK N   1      34.784   9.407  13.202  0.00  0.00     0.002 A 
HETATM   22  H   UNK N   1      33.784  11.711   9.878  0.00  0.00     0.166 HD
ENDROOT
BRANCH   7  23
HETATM   23  C   UNK N   1      32.380  14.118   6.343  0.00  0.00     0.265 C 
HETATM   24  O   UNK N   1      31.287  13.611   6.132  0.00  0.00    -0.265 OA
BRANCH  23  25
HETATM   25  O   UNK N   1      33.487  13.461   5.917  0.00  0.00    -0.326 OA
HETATM   26  C   UNK N   1      33.600  12.091   5.914  0.00  0.00     0.213 C 
ENDBRANCH  23  25
ENDBRANCH   7  23
BRANCH  10  27
HETATM   27  O   UNK N   1      32.590  16.307   4.744  0.00  0.00    -0.395 OA
HETATM   28  H   UNK N   1      31.920  16.440   4.055  0.00  0.00     0.210 HD
ENDBRANCH  10  27
TORSDOF 3
ENDMDL
MODEL 8
REMARK VINA RESULT:      -6.8      2.714      4.301
REMARK  3 active torsions:
REMARK  status: ('A' for Active; 'I' for Inactive)
REMARK    1  A    between atoms: C_13  and  O_1 
REMARK    2  A    between atoms: O_2  and  C_19 
REMARK    3  A    between atoms: C_10  and  C_19 
ROOT
HETATM    1  N   UNK N   1      34.836  16.637   9.251  0.00  0.00     0.099 N 
HETATM    2  N   UNK N   1      34.489  14.737   6.078  0.00  0.00    -0.357 N 
HETATM    3  C   UNK N   1      35.928  14.106  10.172  0.00  0.00     0.010 C 
HETATM    4  C   UNK N   1      36.163  15.402  10.974  0.00  0.00     0.019 C 
HETATM    5  C   UNK N   1      35.842  14.464   8.695  0.00  0.00     0.048 C 
HETATM    6  C   UNK N   1      34.629  15.360   8.528  0.00  0.00     0.273 C 
HETATM    7  C   UNK N   1      37.018  13.051  10.432  0.00  0.00     0.118 C 
HETATM    8  C   UNK N   1      35.003  16.384  10.693  0.00  0.00     0.278 C 
HETATM    9  C   UNK N   1      36.263  15.130  12.483  0.00  0.00     0.009 C 
HETATM   10  C   UNK N   1      37.212  12.814  11.962  0.00  0.00     0.132 C 
HETATM   11  C   UNK N   1      36.271  13.639  12.850  0.00  0.00     0.033 C 
HETATM   12  C   UNK N   1      34.352  15.621   7.096  0.00  0.00     0.050 A 
HETATM   13  C   UNK N   1      33.667  17.516   9.071  0.00  0.00     0.278 C 
HETATM   14  C   UNK N   1      33.775  16.791   6.671  0.00  0.00    -0.019 A 
HETATM   15  C   UNK N   1      33.456  17.930   7.592  0.00  0.00     0.072 C 
HETATM   16  C   UNK N   1      33.557  16.636   5.323  0.00  0.00    -0.001 A 
HETATM   17  C   UNK N   1      34.011  15.379   4.998  0.00  0.00     0.043 A 
HETATM   18  C   UNK N   1      32.979  17.474   4.376  0.00  0.00     0.014 A 
HETATM   19  C   UNK N   1      33.928  14.879   3.701  0.00  0.00     0.030 A 
HETATM   20  C   UNK N   1      32.878  16.995   3.056  0.00  0.00     0.001 A 
HETATM   21  C   UNK N   1      33.354  15.705   2.720  0.00  0.00     0.002 A 
HETATM   22  H   UNK N   1      34.859  13.825   6.120  0.00  0.00     0.166 HD
ENDROOT
BRANCH   7  23
HETATM   23  C   UNK N   1      36.781  11.765   9.630  0.00  0.00     0.265 C 
HETATM   24  O   UNK N   1      37.628  11.379   8.837  0.00  0.00    -0.265 OA
BRANCH  23  25
HETATM   25  O   UNK N   1      35.658  11.021   9.783  0.00  0.00    -0.326 OA
HETATM   26  C   UNK N   1      34.751  10.801   8.774  0.00  0.00     0.213 C 
ENDBRANCH  23  25
ENDBRANCH   7  23
BRANCH  10  27
HETATM   27  O   UNK N   1      37.086  11.468  12.315  0.00  0.00    -0.395 OA
HETATM   28  H   UNK N   1      37.682  10.727  12.117  0.00  0.00     0.210 HD
ENDBRANCH  10  27
TORSDOF 3
ENDMDL
MODEL 9
REMARK VINA RESULT:      -6.6      7.054     10.543
REMARK  3 active torsions:
REMARK  status: ('A' for Active; 'I' for Inactive)
REMARK    1  A    between atoms: C_13  and  O_1 
REMARK    2  A    between atoms: O_2  and  C_19 
REMARK    3  A    between atoms: C_10  and  C_19 
ROOT
HETATM    1  N   UNK N   1      27.682  15.889   3.711  0.00  0.00     0.099 N 
HETATM    2  N   UNK N   1      27.189  17.088   7.191  0.00  0.00    -0.357 N 
HETATM    3  C   UNK N   1      24.794  15.587   3.838  0.00  0.00     0.010 C 
HETATM    4  C   UNK N   1      25.525  15.585   2.481  0.00  0.00     0.019 C 
HETATM    5  C   UNK N   1      25.559  16.491   4.795  0.00  0.00     0.048 C 
HETATM    6  C   UNK N   1      26.930  15.868   4.987  0.00  0.00     0.273 C 
HETATM    7  C   UNK N   1      23.323  16.022   3.711  0.00  0.00     0.118 C 
HETATM    8  C   UNK N   1      26.974  15.092   2.692  0.00  0.00     0.278 C 
HETATM    9  C   UNK N   1      24.814  14.694   1.451  0.00  0.00     0.009 C 
HETATM   10  C   UNK N   1      22.590  15.198   2.606  0.00  0.00     0.132 C 
HETATM   11  C   UNK N   1      23.468  14.135   1.930  0.00  0.00     0.033 C 
HETATM   12  C   UNK N   1      27.693  16.576   6.042  0.00  0.00     0.050 A 
HETATM   13  C   UNK N   1      29.021  15.304   3.902  0.00  0.00     0.278 C 
HETATM   14  C   UNK N   1      29.062  16.659   6.014  0.00  0.00    -0.019 A 
HETATM   15  C   UNK N   1      29.893  16.126   4.885  0.00  0.00     0.072 C 
HETATM   16  C   UNK N   1      29.428  17.266   7.191  0.00  0.00    -0.001 A 
HETATM   17  C   UNK N   1      28.262  17.518   7.877  0.00  0.00     0.043 A 
HETATM   18  C   UNK N   1      30.673  17.584   7.721  0.00  0.00     0.014 A 
HETATM   19  C   UNK N   1      28.263  18.117   9.134  0.00  0.00     0.030 A 
HETATM   20  C   UNK N   1      30.706  18.188   8.993  0.00  0.00     0.001 A 
HETATM   21  C   UNK N   1      29.506  18.456   9.694  0.00  0.00     0.002 A 
HETATM   22  H   UNK N   1      26.244  17.135   7.465  0.00  0.00     0.166 HD
ENDROOT
BRANCH   7  23
HETATM   23  C   UNK N   1      22.601  16.025   5.064  0.00  0.00     0.265 C 
HETATM   24  O   UNK N   1      22.450  14.975   5.674  0.00  0.00    -0.265 OA
BRANCH  23  25
HETATM   25  O   UNK N   1      22.132  17.167   5.625  0.00  0.00    -0.326 OA
HETATM   26  C   UNK N   1      21.883  18.314   4.910  0.00  0.00     0.213 C 
ENDBRANCH  23  25
ENDBRANCH   7  23
BRANCH  10  27
HETATM   27  O   UNK N   1      21.431  14.579   3.081  0.00  0.00    -0.395 OA
HETATM   28  H   UNK N   1      21.066  13.710   2.849  0.00  0.00     0.210 HD
ENDBRANCH  10  27
TORSDOF 3
ENDMDL
