MODEL 1
REMARK VINA RESULT:      -6.3      0.000      0.000
REMARK  8 active torsions:
REMARK  status: ('A' for Active; 'I' for Inactive)
REMARK    1  A    between atoms: O_2  and  C_7 
REMARK    2  A    between atoms: O_2  and  C_11 
REMARK    3  A    between atoms: O_3  and  C_18 
REMARK    4  A    between atoms: N_6  and  C_10 
REMARK       I    between atoms: N_6  and  C_19 
REMARK    5  A    between atoms: C_7  and  C_18 
REMARK    6  A    between atoms: C_8  and  C_9 
REMARK    7  A    between atoms: C_8  and  C_10 
REMARK    8  A    between atoms: C_19  and  C_20 
ROOT
HETATM    1  C   UNK N   1      29.652  27.596  -4.805  0.00  0.00    -0.057 A 
HETATM    2  C   UNK N   1      30.645  24.998  -4.475  0.00  0.00     0.070 A 
HETATM    3  C   UNK N   1      29.483  26.647  -5.816  0.00  0.00     0.010 A 
HETATM    4  C   UNK N   1      30.328  27.251  -3.628  0.00  0.00     0.010 A 
HETATM    5  C   UNK N   1      29.984  25.356  -5.653  0.00  0.00     0.037 A 
HETATM    6  C   UNK N   1      30.822  25.950  -3.460  0.00  0.00     0.037 A 
ENDROOT
BRANCH   1   7
HETATM    7  C   UNK N   1      29.156  28.987  -5.026  0.00  0.00     0.058 C 
BRANCH   7   8
HETATM    8  C   UNK N   1      27.692  28.977  -5.449  0.00  0.00     0.127 C 
BRANCH   8   9
HETATM    9  N   UNK N   1      26.852  28.901  -4.277  0.00  0.00    -0.357 N 
HETATM   10  C   UNK N   1      26.090  27.839  -3.899  0.00  0.00     0.251 C 
HETATM   11  O   UNK N   1      25.402  27.956  -2.898  0.00  0.00    -0.268 OA
HETATM   12  H   UNK N   1      26.827  29.696  -3.695  0.00  0.00     0.162 HD
BRANCH  10  13
HETATM   13  C   UNK N   1      26.049  26.542  -4.641  0.00  0.00     0.032 A 
HETATM   14  C   UNK N   1      25.590  26.441  -5.963  0.00  0.00     0.018 A 
HETATM   15  C   UNK N   1      25.587  25.210  -6.626  0.00  0.00     0.025 A 
HETATM   16  C   UNK N   1      26.042  24.064  -5.971  0.00  0.00     0.034 A 
HETATM   17 Cl   UNK N   1      26.046  22.523  -6.800  0.00  0.00    -0.084 Cl
HETATM   18  C   UNK N   1      26.499  24.148  -4.656  0.00  0.00     0.025 A 
HETATM   19  C   UNK N   1      26.504  25.379  -3.995  0.00  0.00     0.018 A 
ENDBRANCH  10  13
ENDBRANCH   8   9
ENDBRANCH   7   8
ENDBRANCH   1   7
BRANCH   2  20
HETATM   20  O   UNK N   1      31.122  23.737  -4.349  0.00  0.00    -0.330 OA
BRANCH  20  21
HETATM   21  C   UNK N   1      30.405  22.667  -3.831  0.00  0.00     0.145 C 
HETATM   22  C   UNK N   1      29.646  22.030  -4.984  0.00  0.00     0.058 C 
HETATM   23  C   UNK N   1      29.364  23.151  -2.828  0.00  0.00     0.058 C 
BRANCH  21  24
HETATM   24  C   UNK N   1      31.308  21.641  -3.175  0.00  0.00     0.175 C 
HETATM   25  O   UNK N   1      31.973  21.943  -2.197  0.00  0.00    -0.648 OA
BRANCH  24  26
HETATM   26  O   UNK N   1      31.369  20.379  -3.648  0.00  0.00    -0.774 OA
HETATM   27  H   UNK N   1      30.734  19.704  -3.511  0.00  0.00     0.167 HD
ENDBRANCH  24  26
ENDBRANCH  21  24
ENDBRANCH  20  21
ENDBRANCH   2  20
TORSDOF 8
ENDMDL
MODEL 2
REMARK VINA RESULT:      -6.3      3.461      6.134
REMARK  8 active torsions:
REMARK  status: ('A' for Active; 'I' for Inactive)
REMARK    1  A    between atoms: O_2  and  C_7 
REMARK    2  A    between atoms: O_2  and  C_11 
REMARK    3  A    between atoms: O_3  and  C_18 
REMARK    4  A    between atoms: N_6  and  C_10 
REMARK       I    between atoms: N_6  and  C_19 
REMARK    5  A    between atoms: C_7  and  C_18 
REMARK    6  A    between atoms: C_8  and  C_9 
REMARK    7  A    between atoms: C_8  and  C_10 
REMARK    8  A    between atoms: C_19  and  C_20 
ROOT
HETATM    1  C   UNK N   1      26.034  26.734  -6.902  0.00  0.00    -0.057 A 
HETATM    2  C   UNK N   1      26.929  27.769  -4.459  0.00  0.00     0.070 A 
HETATM    3  C   UNK N   1      27.400  26.916  -6.675  0.00  0.00     0.010 A 
HETATM    4  C   UNK N   1      25.108  27.079  -5.909  0.00  0.00     0.010 A 
HETATM    5  C   UNK N   1      27.843  27.438  -5.462  0.00  0.00     0.037 A 
HETATM    6  C   UNK N   1      25.556  27.594  -4.684  0.00  0.00     0.037 A 
ENDROOT
BRANCH   1   7
HETATM    7  C   UNK N   1      25.580  26.227  -8.231  0.00  0.00     0.058 C 
BRANCH   7   8
HETATM    8  C   UNK N   1      26.204  24.869  -8.533  0.00  0.00     0.127 C 
BRANCH   8   9
HETATM    9  N   UNK N   1      25.359  23.823  -8.007  0.00  0.00    -0.357 N 
HETATM   10  C   UNK N   1      25.573  23.111  -6.867  0.00  0.00     0.251 C 
HETATM   11  O   UNK N   1      24.779  22.227  -6.587  0.00  0.00    -0.268 OA
HETATM   12  H   UNK N   1      24.551  23.602  -8.525  0.00  0.00     0.162 HD
BRANCH  10  13
HETATM   13  C   UNK N   1      26.724  23.350  -5.943  0.00  0.00     0.032 A 
HETATM   14  C   UNK N   1      28.050  23.054  -6.294  0.00  0.00     0.018 A 
HETATM   15  C   UNK N   1      29.098  23.312  -5.405  0.00  0.00     0.025 A 
HETATM   16  C   UNK N   1      28.830  23.868  -4.153  0.00  0.00     0.034 A 
HETATM   17 Cl   UNK N   1      30.140  24.198  -3.041  0.00  0.00    -0.084 Cl
HETATM   18  C   UNK N   1      27.516  24.165  -3.789  0.00  0.00     0.025 A 
HETATM   19  C   UNK N   1      26.470  23.909  -4.678  0.00  0.00     0.018 A 
ENDBRANCH  10  13
ENDBRANCH   8   9
ENDBRANCH   7   8
ENDBRANCH   1   7
BRANCH   2  20
HETATM   20  O   UNK N   1      27.392  28.276  -3.292  0.00  0.00    -0.330 OA
BRANCH  20  21
HETATM   21  C   UNK N   1      27.925  29.549  -3.136  0.00  0.00     0.145 C 
HETATM   22  C   UNK N   1      29.366  29.497  -3.617  0.00  0.00     0.058 C 
HETATM   23  C   UNK N   1      27.962  29.942  -1.664  0.00  0.00     0.058 C 
BRANCH  21  24
HETATM   24  C   UNK N   1      27.153  30.589  -3.924  0.00  0.00     0.175 C 
HETATM   25  O   UNK N   1      27.624  31.062  -4.946  0.00  0.00    -0.648 OA
BRANCH  24  26
HETATM   26  O   UNK N   1      25.929  30.986  -3.518  0.00  0.00    -0.774 OA
HETATM   27  H   UNK N   1      25.686  31.235  -2.648  0.00  0.00     0.167 HD
ENDBRANCH  24  26
ENDBRANCH  21  24
ENDBRANCH  20  21
ENDBRANCH   2  20
TORSDOF 8
ENDMDL
MODEL 3
REMARK VINA RESULT:      -6.3      2.138      3.762
REMARK  8 active torsions:
REMARK  status: ('A' for Active; 'I' for Inactive)
REMARK    1  A    between atoms: O_2  and  C_7 
REMARK    2  A    between atoms: O_2  and  C_11 
REMARK    3  A    between atoms: O_3  and  C_18 
REMARK    4  A    between atoms: N_6  and  C_10 
REMARK       I    between atoms: N_6  and  C_19 
REMARK    5  A    between atoms: C_7  and  C_18 
REMARK    6  A    between atoms: C_8  and  C_9 
REMARK    7  A    between atoms: C_8  and  C_10 
REMARK    8  A    between atoms: C_19  and  C_20 
ROOT
HETATM    1  C   UNK N   1      26.959  24.770  -5.573  0.00  0.00    -0.057 A 
HETATM    2  C   UNK N   1      29.535  24.228  -4.617  0.00  0.00     0.070 A 
HETATM    3  C   UNK N   1      27.139  24.295  -4.271  0.00  0.00     0.010 A 
HETATM    4  C   UNK N   1      28.068  24.967  -6.405  0.00  0.00     0.010 A 
HETATM    5  C   UNK N   1      28.421  24.019  -3.800  0.00  0.00     0.037 A 
HETATM    6  C   UNK N   1      29.358  24.699  -5.926  0.00  0.00     0.037 A 
ENDROOT
BRANCH   1   7
HETATM    7  C   UNK N   1      25.572  25.005  -6.073  0.00  0.00     0.058 C 
BRANCH   7   8
HETATM    8  C   UNK N   1      25.315  26.494  -6.274  0.00  0.00     0.127 C 
BRANCH   8   9
HETATM    9  N   UNK N   1      25.006  27.106  -5.003  0.00  0.00    -0.357 N 
HETATM   10  C   UNK N   1      25.848  27.859  -4.245  0.00  0.00     0.251 C 
HETATM   11  O   UNK N   1      25.439  28.268  -3.170  0.00  0.00    -0.268 OA
HETATM   12  H   UNK N   1      24.097  26.962  -4.650  0.00  0.00     0.162 HD
BRANCH  10  13
HETATM   13  C   UNK N   1      27.242  28.211  -4.655  0.00  0.00     0.032 A 
HETATM   14  C   UNK N   1      28.372  27.780  -3.942  0.00  0.00     0.018 A 
HETATM   15  C   UNK N   1      29.658  28.117  -4.373  0.00  0.00     0.025 A 
HETATM   16  C   UNK N   1      29.829  28.893  -5.521  0.00  0.00     0.034 A 
HETATM   17 Cl   UNK N   1      31.439  29.310  -6.066  0.00  0.00    -0.084 Cl
HETATM   18  C   UNK N   1      28.716  29.331  -6.238  0.00  0.00     0.025 A 
HETATM   19  C   UNK N   1      27.431  28.991  -5.809  0.00  0.00     0.018 A 
ENDBRANCH  10  13
ENDBRANCH   8   9
ENDBRANCH   7   8
ENDBRANCH   1   7
BRANCH   2  20
HETATM   20  O   UNK N   1      30.767  23.947  -4.130  0.00  0.00    -0.330 OA
BRANCH  20  21
HETATM   21  C   UNK N   1      31.295  22.670  -3.997  0.00  0.00     0.145 C 
HETATM   22  C   UNK N   1      32.641  22.661  -4.700  0.00  0.00     0.058 C 
HETATM   23  C   UNK N   1      30.416  21.647  -4.708  0.00  0.00     0.058 C 
BRANCH  21  24
HETATM   24  C   UNK N   1      31.466  22.274  -2.544  0.00  0.00     0.175 C 
HETATM   25  O   UNK N   1      30.806  22.820  -1.674  0.00  0.00    -0.648 OA
BRANCH  24  26
HETATM   26  O   UNK N   1      32.331  21.298  -2.197  0.00  0.00    -0.774 OA
HETATM   27  H   UNK N   1      32.226  20.380  -2.357  0.00  0.00     0.167 HD
ENDBRANCH  24  26
ENDBRANCH  21  24
ENDBRANCH  20  21
ENDBRANCH   2  20
TORSDOF 8
ENDMDL
MODEL 4
REMARK VINA RESULT:      -6.2      1.116      1.648
REMARK  8 active torsions:
REMARK  status: ('A' for Active; 'I' for Inactive)
REMARK    1  A    between atoms: O_2  and  C_7 
REMARK    2  A    between atoms: O_2  and  C_11 
REMARK    3  A    between atoms: O_3  and  C_18 
REMARK    4  A    between atoms: N_6  and  C_10 
REMARK       I    between atoms: N_6  and  C_19 
REMARK    5  A    between atoms: C_7  and  C_18 
REMARK    6  A    between atoms: C_8  and  C_9 
REMARK    7  A    between atoms: C_8  and  C_10 
REMARK    8  A    between atoms: C_19  and  C_20 
ROOT
HETATM    1  C   UNK N   1      29.408  27.032  -5.431  0.00  0.00    -0.057 A 
HETATM    2  C   UNK N   1      29.726  24.352  -4.683  0.00  0.00     0.070 A 
HETATM    3  C   UNK N   1      29.539  26.691  -4.083  0.00  0.00     0.010 A 
HETATM    4  C   UNK N   1      29.427  26.031  -6.411  0.00  0.00     0.010 A 
HETATM    5  C   UNK N   1      29.690  25.356  -3.711  0.00  0.00     0.037 A 
HETATM    6  C   UNK N   1      29.590  24.690  -6.037  0.00  0.00     0.037 A 
ENDROOT
BRANCH   1   7
HETATM    7  C   UNK N   1      29.191  28.463  -5.799  0.00  0.00     0.058 C 
BRANCH   7   8
HETATM    8  C   UNK N   1      27.810  28.659  -6.412  0.00  0.00     0.127 C 
BRANCH   8   9
HETATM    9  N   UNK N   1      26.829  28.786  -5.360  0.00  0.00    -0.357 N 
HETATM   10  C   UNK N   1      25.952  27.827  -4.955  0.00  0.00     0.251 C 
HETATM   11  O   UNK N   1      25.157  28.114  -4.076  0.00  0.00    -0.268 OA
HETATM   12  H   UNK N   1      26.790  29.651  -4.891  0.00  0.00     0.162 HD
BRANCH  10  13
HETATM   13  C   UNK N   1      25.910  26.447  -5.529  0.00  0.00     0.032 A 
HETATM   14  C   UNK N   1      25.756  26.203  -6.902  0.00  0.00     0.018 A 
HETATM   15  C   UNK N   1      25.741  24.895  -7.397  0.00  0.00     0.025 A 
HETATM   16  C   UNK N   1      25.877  23.816  -6.522  0.00  0.00     0.034 A 
HETATM   17 Cl   UNK N   1      25.866  22.179  -7.139  0.00  0.00    -0.084 Cl
HETATM   18  C   UNK N   1      26.028  24.043  -5.154  0.00  0.00     0.025 A 
HETATM   19  C   UNK N   1      26.046  25.350  -4.660  0.00  0.00     0.018 A 
ENDBRANCH  10  13
ENDBRANCH   8   9
ENDBRANCH   7   8
ENDBRANCH   1   7
BRANCH   2  20
HETATM   20  O   UNK N   1      29.872  23.065  -4.289  0.00  0.00    -0.330 OA
BRANCH  20  21
HETATM   21  C   UNK N   1      31.091  22.435  -4.073  0.00  0.00     0.145 C 
HETATM   22  C   UNK N   1      32.166  23.304  -4.705  0.00  0.00     0.058 C 
HETATM   23  C   UNK N   1      31.134  21.088  -4.785  0.00  0.00     0.058 C 
BRANCH  21  24
HETATM   24  C   UNK N   1      31.379  22.244  -2.598  0.00  0.00     0.175 C 
HETATM   25  O   UNK N   1      30.734  22.854  -1.760  0.00  0.00    -0.648 OA
BRANCH  24  26
HETATM   26  O   UNK N   1      32.334  21.382  -2.192  0.00  0.00    -0.774 OA
HETATM   27  H   UNK N   1      32.953  20.941  -2.741  0.00  0.00     0.167 HD
ENDBRANCH  24  26
ENDBRANCH  21  24
ENDBRANCH  20  21
ENDBRANCH   2  20
TORSDOF 8
ENDMDL
MODEL 5
REMARK VINA RESULT:      -6.1      3.428      5.370
REMARK  8 active torsions:
REMARK  status: ('A' for Active; 'I' for Inactive)
REMARK    1  A    between atoms: O_2  and  C_7 
REMARK    2  A    between atoms: O_2  and  C_11 
REMARK    3  A    between atoms: O_3  and  C_18 
REMARK    4  A    between atoms: N_6  and  C_10 
REMARK       I    between atoms: N_6  and  C_19 
REMARK    5  A    between atoms: C_7  and  C_18 
REMARK    6  A    between atoms: C_8  and  C_9 
REMARK    7  A    between atoms: C_8  and  C_10 
REMARK    8  A    between atoms: C_19  and  C_20 
ROOT
HETATM    1  C   UNK N   1      25.362  26.297  -5.715  0.00  0.00    -0.057 A 
HETATM    2  C   UNK N   1      26.340  23.905  -6.793  0.00  0.00     0.070 A 
HETATM    3  C   UNK N   1      25.632  25.210  -4.880  0.00  0.00     0.010 A 
HETATM    4  C   UNK N   1      25.572  26.188  -7.095  0.00  0.00     0.010 A 
HETATM    5  C   UNK N   1      26.111  24.018  -5.419  0.00  0.00     0.037 A 
HETATM    6  C   UNK N   1      26.065  24.992  -7.635  0.00  0.00     0.037 A 
ENDROOT
BRANCH   1   7
HETATM    7  C   UNK N   1      24.796  27.545  -5.121  0.00  0.00     0.058 C 
BRANCH   7   8
HETATM    8  C   UNK N   1      25.510  27.897  -3.821  0.00  0.00     0.127 C 
BRANCH   8   9
HETATM    9  N   UNK N   1      26.026  29.243  -3.904  0.00  0.00    -0.357 N 
HETATM   10  C   UNK N   1      27.118  29.645  -4.610  0.00  0.00     0.251 C 
HETATM   11  O   UNK N   1      27.445  30.818  -4.538  0.00  0.00    -0.268 OA
HETATM   12  H   UNK N   1      25.542  29.937  -3.400  0.00  0.00     0.162 HD
BRANCH  10  13
HETATM   13  C   UNK N   1      27.936  28.730  -5.464  0.00  0.00     0.032 A 
HETATM   14  C   UNK N   1      28.685  27.668  -4.934  0.00  0.00     0.018 A 
HETATM   15  C   UNK N   1      29.421  26.826  -5.773  0.00  0.00     0.025 A 
HETATM   16  C   UNK N   1      29.418  27.039  -7.152  0.00  0.00     0.034 A 
HETATM   17 Cl   UNK N   1      30.333  25.982  -8.205  0.00  0.00    -0.084 Cl
HETATM   18  C   UNK N   1      28.681  28.092  -7.694  0.00  0.00     0.025 A 
HETATM   19  C   UNK N   1      27.944  28.932  -6.856  0.00  0.00     0.018 A 
ENDBRANCH  10  13
ENDBRANCH   8   9
ENDBRANCH   7   8
ENDBRANCH   1   7
BRANCH   2  20
HETATM   20  O   UNK N   1      26.804  22.732  -7.285  0.00  0.00    -0.330 OA
BRANCH  20  21
HETATM   21  C   UNK N   1      26.091  21.888  -8.126  0.00  0.00     0.145 C 
HETATM   22  C   UNK N   1      26.858  20.578  -8.209  0.00  0.00     0.058 C 
HETATM   23  C   UNK N   1      26.033  22.458  -9.539  0.00  0.00     0.058 C 
BRANCH  21  24
HETATM   24  C   UNK N   1      24.685  21.634  -7.619  0.00  0.00     0.175 C 
HETATM   25  O   UNK N   1      24.500  20.911  -6.654  0.00  0.00    -0.648 OA
BRANCH  24  26
HETATM   26  O   UNK N   1      23.626  22.223  -8.213  0.00  0.00    -0.774 OA
HETATM   27  H   UNK N   1      23.464  23.144  -8.272  0.00  0.00     0.167 HD
ENDBRANCH  24  26
ENDBRANCH  21  24
ENDBRANCH  20  21
ENDBRANCH   2  20
TORSDOF 8
ENDMDL
MODEL 6
REMARK VINA RESULT:      -6.1     24.775     27.945
REMARK  8 active torsions:
REMARK  status: ('A' for Active; 'I' for Inactive)
REMARK    1  A    between atoms: O_2  and  C_7 
REMARK    2  A    between atoms: O_2  and  C_11 
REMARK    3  A    between atoms: O_3  and  C_18 
REMARK    4  A    between atoms: N_6  and  C_10 
REMARK       I    between atoms: N_6  and  C_19 
REMARK    5  A    between atoms: C_7  and  C_18 
REMARK    6  A    between atoms: C_8  and  C_9 
REMARK    7  A    between atoms: C_8  and  C_10 
REMARK    8  A    between atoms: C_19  and  C_20 
ROOT
HETATM    1  C   UNK N   1      35.312  11.629  18.358  0.00  0.00    -0.057 A 
HETATM    2  C   UNK N   1      34.682  12.330  15.721  0.00  0.00     0.070 A 
HETATM    3  C   UNK N   1      35.175  12.973  18.003  0.00  0.00     0.010 A 
HETATM    4  C   UNK N   1      35.144  10.630  17.391  0.00  0.00     0.010 A 
HETATM    5  C   UNK N   1      34.868  13.321  16.689  0.00  0.00     0.037 A 
HETATM    6  C   UNK N   1      34.825  10.980  16.072  0.00  0.00     0.037 A 
ENDROOT
BRANCH   1   7
HETATM    7  C   UNK N   1      35.696  11.284  19.759  0.00  0.00     0.058 C 
BRANCH   7   8
HETATM    8  C   UNK N   1      34.718  10.279  20.356  0.00  0.00     0.127 C 
BRANCH   8   9
HETATM    9  N   UNK N   1      34.101  10.846  21.532  0.00  0.00    -0.357 N 
HETATM   10  C   UNK N   1      33.046  10.328  22.218  0.00  0.00     0.251 C 
HETATM   11  O   UNK N   1      32.617  10.959  23.170  0.00  0.00    -0.268 OA
HETATM   12  H   UNK N   1      34.479  11.691  21.869  0.00  0.00     0.162 HD
BRANCH  10  13
HETATM   13  C   UNK N   1      32.385   9.033  21.868  0.00  0.00     0.032 A 
HETATM   14  C   UNK N   1      31.555   8.886  20.746  0.00  0.00     0.018 A 
HETATM   15  C   UNK N   1      30.972   7.650  20.447  0.00  0.00     0.025 A 
HETATM   16  C   UNK N   1      31.212   6.548  21.269  0.00  0.00     0.034 A 
HETATM   17 Cl   UNK N   1      30.491   4.999  20.893  0.00  0.00    -0.084 Cl
HETATM   18  C   UNK N   1      32.033   6.680  22.389  0.00  0.00     0.025 A 
HETATM   19  C   UNK N   1      32.617   7.913  22.687  0.00  0.00     0.018 A 
ENDBRANCH  10  13
ENDBRANCH   8   9
ENDBRANCH   7   8
ENDBRANCH   1   7
BRANCH   2  20
HETATM   20  O   UNK N   1      34.387  12.701  14.453  0.00  0.00    -0.330 OA
BRANCH  20  21
HETATM   21  C   UNK N   1      35.301  12.746  13.407  0.00  0.00     0.145 C 
HETATM   22  C   UNK N   1      35.003  11.566  12.496  0.00  0.00     0.058 C 
HETATM   23  C   UNK N   1      36.722  12.558  13.925  0.00  0.00     0.058 C 
BRANCH  21  24
HETATM   24  C   UNK N   1      35.208  14.041  12.625  0.00  0.00     0.175 C 
HETATM   25  O   UNK N   1      36.084  14.885  12.728  0.00  0.00    -0.648 OA
BRANCH  24  26
HETATM   26  O   UNK N   1      34.172  14.266  11.792  0.00  0.00    -0.774 OA
HETATM   27  H   UNK N   1      34.228  14.564  10.905  0.00  0.00     0.167 HD
ENDBRANCH  24  26
ENDBRANCH  21  24
ENDBRANCH  20  21
ENDBRANCH   2  20
TORSDOF 8
ENDMDL
MODEL 7
REMARK VINA RESULT:      -6.1      3.443      5.968
REMARK  8 active torsions:
REMARK  status: ('A' for Active; 'I' for Inactive)
REMARK    1  A    between atoms: O_2  and  C_7 
REMARK    2  A    between atoms: O_2  and  C_11 
REMARK    3  A    between atoms: O_3  and  C_18 
REMARK    4  A    between atoms: N_6  and  C_10 
REMARK       I    between atoms: N_6  and  C_19 
REMARK    5  A    between atoms: C_7  and  C_18 
REMARK    6  A    between atoms: C_8  and  C_9 
REMARK    7  A    between atoms: C_8  and  C_10 
REMARK    8  A    between atoms: C_19  and  C_20 
ROOT
HETATM    1  C   UNK N   1      25.955  26.792  -6.976  0.00  0.00    -0.057 A 
HETATM    2  C   UNK N   1      26.935  27.893  -4.594  0.00  0.00     0.070 A 
HETATM    3  C   UNK N   1      25.078  27.102  -5.933  0.00  0.00     0.010 A 
HETATM    4  C   UNK N   1      27.328  27.023  -6.826  0.00  0.00     0.010 A 
HETATM    5  C   UNK N   1      25.568  27.644  -4.746  0.00  0.00     0.037 A 
HETATM    6  C   UNK N   1      27.819  27.578  -5.636  0.00  0.00     0.037 A 
ENDROOT
BRANCH   1   7
HETATM    7  C   UNK N   1      25.413  26.161  -8.216  0.00  0.00     0.058 C 
BRANCH   7   8
HETATM    8  C   UNK N   1      26.122  24.843  -8.505  0.00  0.00     0.127 C 
BRANCH   8   9
HETATM    9  N   UNK N   1      25.344  23.750  -7.973  0.00  0.00    -0.357 N 
HETATM   10  C   UNK N   1      25.589  23.072  -6.819  0.00  0.00     0.251 C 
HETATM   11  O   UNK N   1      24.854  22.141  -6.534  0.00  0.00    -0.268 OA
HETATM   12  H   UNK N   1      24.560  23.466  -8.497  0.00  0.00     0.162 HD
BRANCH  10  13
HETATM   13  C   UNK N   1      26.708  23.405  -5.884  0.00  0.00     0.032 A 
HETATM   14  C   UNK N   1      26.498  24.032  -4.646  0.00  0.00     0.018 A 
HETATM   15  C   UNK N   1      27.573  24.307  -3.795  0.00  0.00     0.025 A 
HETATM   16  C   UNK N   1      28.871  23.961  -4.175  0.00  0.00     0.034 A 
HETATM   17 Cl   UNK N   1      30.217  24.298  -3.109  0.00  0.00    -0.084 Cl
HETATM   18  C   UNK N   1      29.095  23.340  -5.404  0.00  0.00     0.025 A 
HETATM   19  C   UNK N   1      28.021  23.063  -6.253  0.00  0.00     0.018 A 
ENDBRANCH  10  13
ENDBRANCH   8   9
ENDBRANCH   7   8
ENDBRANCH   1   7
BRANCH   2  20
HETATM   20  O   UNK N   1      27.378  28.418  -3.428  0.00  0.00    -0.330 OA
BRANCH  20  21
HETATM   21  C   UNK N   1      27.780  29.736  -3.253  0.00  0.00     0.145 C 
HETATM   22  C   UNK N   1      27.889  29.982  -1.758  0.00  0.00     0.058 C 
HETATM   23  C   UNK N   1      26.721  30.696  -3.785  0.00  0.00     0.058 C 
BRANCH  21  24
HETATM   24  C   UNK N   1      29.110  30.019  -3.924  0.00  0.00     0.175 C 
HETATM   25  O   UNK N   1      29.198  30.892  -4.772  0.00  0.00    -0.648 OA
BRANCH  24  26
HETATM   26  O   UNK N   1      30.214  29.328  -3.574  0.00  0.00    -0.774 OA
HETATM   27  H   UNK N   1      31.025  29.303  -4.043  0.00  0.00     0.167 HD
ENDBRANCH  24  26
ENDBRANCH  21  24
ENDBRANCH  20  21
ENDBRANCH   2  20
TORSDOF 8
ENDMDL
MODEL 8
REMARK VINA RESULT:      -6.0     16.904     20.024
REMARK  8 active torsions:
REMARK  status: ('A' for Active; 'I' for Inactive)
REMARK    1  A    between atoms: O_2  and  C_7 
REMARK    2  A    between atoms: O_2  and  C_11 
REMARK    3  A    between atoms: O_3  and  C_18 
REMARK    4  A    between atoms: N_6  and  C_10 
REMARK       I    between atoms: N_6  and  C_19 
REMARK    5  A    between atoms: C_7  and  C_18 
REMARK    6  A    between atoms: C_8  and  C_9 
REMARK    7  A    between atoms: C_8  and  C_10 
REMARK    8  A    between atoms: C_19  and  C_20 
ROOT
HETATM    1  C   UNK N   1      36.030  14.306  10.934  0.00  0.00    -0.057 A 
HETATM    2  C   UNK N   1      36.394  12.835  13.289  0.00  0.00     0.070 A 
HETATM    3  C   UNK N   1      35.776  14.894  12.175  0.00  0.00     0.010 A 
HETATM    4  C   UNK N   1      36.458  12.974  10.866  0.00  0.00     0.010 A 
HETATM    5  C   UNK N   1      35.951  14.159  13.346  0.00  0.00     0.037 A 
HETATM    6  C   UNK N   1      36.644  12.238  12.045  0.00  0.00     0.037 A 
ENDROOT
BRANCH   1   7
HETATM    7  C   UNK N   1      35.782  15.096   9.692  0.00  0.00     0.058 C 
BRANCH   7   8
HETATM    8  C   UNK N   1      34.624  16.067   9.891  0.00  0.00     0.127 C 
BRANCH   8   9
HETATM    9  N   UNK N   1      35.059  17.407   9.576  0.00  0.00    -0.357 N 
HETATM   10  C   UNK N   1      34.603  18.183   8.555  0.00  0.00     0.251 C 
HETATM   11  O   UNK N   1      35.109  19.283   8.402  0.00  0.00    -0.268 OA
HETATM   12  H   UNK N   1      35.753  17.797  10.156  0.00  0.00     0.162 HD
BRANCH  10  13
HETATM   13  C   UNK N   1      33.520  17.763   7.614  0.00  0.00     0.032 A 
HETATM   14  C   UNK N   1      33.771  17.423   6.275  0.00  0.00     0.018 A 
HETATM   15  C   UNK N   1      32.730  17.018   5.435  0.00  0.00     0.025 A 
HETATM   16  C   UNK N   1      31.424  16.949   5.924  0.00  0.00     0.034 A 
HETATM   17 Cl   UNK N   1      30.121  16.435   4.877  0.00  0.00    -0.084 Cl
HETATM   18  C   UNK N   1      31.159  17.287   7.252  0.00  0.00     0.025 A 
HETATM   19  C   UNK N   1      32.200  17.690   8.091  0.00  0.00     0.018 A 
ENDBRANCH  10  13
ENDBRANCH   8   9
ENDBRANCH   7   8
ENDBRANCH   1   7
BRANCH   2  20
HETATM   20  O   UNK N   1      36.551  12.147  14.445  0.00  0.00    -0.330 OA
BRANCH  20  21
HETATM   21  C   UNK N   1      35.530  11.501  15.128  0.00  0.00     0.145 C 
HETATM   22  C   UNK N   1      36.100  10.201  15.671  0.00  0.00     0.058 C 
HETATM   23  C   UNK N   1      34.398  11.126  14.177  0.00  0.00     0.058 C 
BRANCH  21  24
HETATM   24  C   UNK N   1      34.984  12.342  16.265  0.00  0.00     0.175 C 
HETATM   25  O   UNK N   1      35.402  12.187  17.401  0.00  0.00    -0.648 OA
BRANCH  24  26
HETATM   26  O   UNK N   1      34.049  13.287  16.031  0.00  0.00    -0.774 OA
HETATM   27  H   UNK N   1      33.722  13.548  15.192  0.00  0.00     0.167 HD
ENDBRANCH  24  26
ENDBRANCH  21  24
ENDBRANCH  20  21
ENDBRANCH   2  20
TORSDOF 8
ENDMDL
MODEL 9
REMARK VINA RESULT:      -6.0     17.880     21.466
REMARK  8 active torsions:
REMARK  status: ('A' for Active; 'I' for Inactive)
REMARK    1  A    between atoms: O_2  and  C_7 
REMARK    2  A    between atoms: O_2  and  C_11 
REMARK    3  A    between atoms: O_3  and  C_18 
REMARK    4  A    between atoms: N_6  and  C_10 
REMARK       I    between atoms: N_6  and  C_19 
REMARK    5  A    between atoms: C_7  and  C_18 
REMARK    6  A    between atoms: C_8  and  C_9 
REMARK    7  A    between atoms: C_8  and  C_10 
REMARK    8  A    between atoms: C_19  and  C_20 
ROOT
HETATM    1  C   UNK N   1      35.567  14.561  10.383  0.00  0.00    -0.057 A 
HETATM    2  C   UNK N   1      33.758  15.256   8.361  0.00  0.00     0.070 A 
HETATM    3  C   UNK N   1      34.287  15.014  10.712  0.00  0.00     0.010 A 
HETATM    4  C   UNK N   1      35.950  14.463   9.039  0.00  0.00     0.010 A 
HETATM    5  C   UNK N   1      33.390  15.366   9.705  0.00  0.00     0.037 A 
HETATM    6  C   UNK N   1      35.043  14.807   8.027  0.00  0.00     0.037 A 
ENDROOT
BRANCH   1   7
HETATM    7  C   UNK N   1      36.528  14.244  11.480  0.00  0.00     0.058 C 
BRANCH   7   8
HETATM    8  C   UNK N   1      35.830  14.269  12.835  0.00  0.00     0.127 C 
BRANCH   8   9
HETATM    9  N   UNK N   1      36.654  14.974  13.789  0.00  0.00    -0.357 N 
HETATM   10  C   UNK N   1      36.914  14.590  15.068  0.00  0.00     0.251 C 
HETATM   11  O   UNK N   1      37.600  15.326  15.758  0.00  0.00    -0.268 OA
HETATM   12  H   UNK N   1      37.066  15.815  13.484  0.00  0.00     0.162 HD
BRANCH  10  13
HETATM   13  C   UNK N   1      36.407  13.320  15.672  0.00  0.00     0.032 A 
HETATM   14  C   UNK N   1      36.836  12.054  15.243  0.00  0.00     0.018 A 
HETATM   15  C   UNK N   1      36.348  10.892  15.850  0.00  0.00     0.025 A 
HETATM   16  C   UNK N   1      35.423  10.984  16.891  0.00  0.00     0.034 A 
HETATM   17 Cl   UNK N   1      34.816   9.533  17.657  0.00  0.00    -0.084 Cl
HETATM   18  C   UNK N   1      34.985  12.235  17.326  0.00  0.00     0.025 A 
HETATM   19  C   UNK N   1      35.474  13.396  16.722  0.00  0.00     0.018 A 
ENDBRANCH  10  13
ENDBRANCH   8   9
ENDBRANCH   7   8
ENDBRANCH   1   7
BRANCH   2  20
HETATM   20  O   UNK N   1      32.864  15.608   7.407  0.00  0.00    -0.330 OA
BRANCH  20  21
HETATM   21  C   UNK N   1      32.859  16.823   6.735  0.00  0.00     0.145 C 
HETATM   22  C   UNK N   1      31.421  17.116   6.341  0.00  0.00     0.058 C 
HETATM   23  C   UNK N   1      33.663  16.728   5.443  0.00  0.00     0.058 C 
BRANCH  21  24
HETATM   24  C   UNK N   1      33.401  17.949   7.593  0.00  0.00     0.175 C 
HETATM   25  O   UNK N   1      32.706  18.450   8.463  0.00  0.00    -0.648 OA
BRANCH  24  26
HETATM   26  O   UNK N   1      34.663  18.394   7.422  0.00  0.00    -0.774 OA
HETATM   27  H   UNK N   1      35.301  18.042   6.833  0.00  0.00     0.167 HD
ENDBRANCH  24  26
ENDBRANCH  21  24
ENDBRANCH  20  21
ENDBRANCH   2  20
TORSDOF 8
ENDMDL
