REMARK  8 active torsions:
REMARK  status: ('A' for Active; 'I' for Inactive)
REMARK    1  A    between atoms: O_2  and  C_7 
REMARK    2  A    between atoms: O_2  and  C_11 
REMARK    3  A    between atoms: O_3  and  C_18 
REMARK    4  A    between atoms: N_6  and  C_10 
REMARK       I    between atoms: N_6  and  C_19 
REMARK    5  A    between atoms: C_7  and  C_18 
REMARK    6  A    between atoms: C_8  and  C_9 
REMARK    7  A    between atoms: C_8  and  C_10 
REMARK    8  A    between atoms: C_19  and  C_20 
ROOT
HETATM    1  C   UNK N   1       4.608   0.416  -0.310  0.00  0.00    -0.057 A 
HETATM    2  C   UNK N   1       4.194   3.162   0.052  0.00  0.00     0.070 A 
HETATM    3  C   UNK N   1       3.648   1.087  -1.071  0.00  0.00     0.010 A 
HETATM    4  C   UNK N   1       5.359   1.116   0.643  0.00  0.00     0.010 A 
HETATM    5  C   UNK N   1       3.438   2.452  -0.885  0.00  0.00     0.037 A 
HETATM    6  C   UNK N   1       5.155   2.491   0.822  0.00  0.00     0.037 A 
ENDROOT
BRANCH   1   7
HETATM    7  C   UNK N   1       4.775  -1.057  -0.488  0.00  0.00     0.058 C 
BRANCH   7   8
HETATM    8  C   UNK N   1       4.112  -1.818   0.654  0.00  0.00     0.127 C 
BRANCH   8   9
HETATM    9  N   UNK N   1       2.729  -1.417   0.762  0.00  0.00    -0.357 N 
HETATM   10  C   UNK N   1       1.642  -2.218   0.592  0.00  0.00     0.251 C 
HETATM   11  O   UNK N   1       0.537  -1.708   0.677  0.00  0.00    -0.268 OA
HETATM   12  H   UNK N   1       2.556  -0.472   0.979  0.00  0.00     0.162 HD
BRANCH  10  13
HETATM   13  C   UNK N   1       1.728  -3.683   0.306  0.00  0.00     0.032 A 
HETATM   14  C   UNK N   1       2.950  -4.370   0.238  0.00  0.00     0.018 A 
HETATM   15  C   UNK N   1       2.982  -5.745  -0.014  0.00  0.00     0.025 A 
HETATM   16  C   UNK N   1       1.791  -6.448  -0.203  0.00  0.00     0.034 A 
HETATM   17 Cl   UNK N   1       1.828  -8.170  -0.511  0.00  0.00    -0.084 Cl
HETATM   18  C   UNK N   1       0.569  -5.778  -0.141  0.00  0.00     0.025 A 
HETATM   19  C   UNK N   1       0.537  -4.405   0.113  0.00  0.00     0.018 A 
ENDBRANCH  10  13
ENDBRANCH   8   9
ENDBRANCH   7   8
ENDBRANCH   1   7
BRANCH   2  20
HETATM   20  O   UNK N   1       3.964   4.487   0.210  0.00  0.00    -0.330 OA
BRANCH  20  21
HETATM   21  C   UNK N   1       4.707   5.497  -0.387  0.00  0.00     0.145 C 
HETATM   22  C   UNK N   1       3.903   6.781  -0.268  0.00  0.00     0.058 C 
HETATM   23  C   UNK N   1       4.889   5.224  -1.876  0.00  0.00     0.058 C 
BRANCH  21  24
HETATM   24  C   UNK N   1       6.062   5.671   0.270  0.00  0.00     0.175 C 
HETATM   25  O   UNK N   1       6.872   4.758   0.261  0.00  0.00    -0.648 OA
BRANCH  24  26
HETATM   26  O   UNK N   1       6.397   6.842   0.850  0.00  0.00    -0.774 OA
HETATM   27  H   UNK N   1       7.218   7.047   1.253  0.00  0.00     0.167 HD
ENDBRANCH  24  26
ENDBRANCH  21  24
ENDBRANCH  20  21
ENDBRANCH   2  20
TORSDOF 8
