MODEL 1
REMARK VINA RESULT:      -8.3      0.000      0.000
REMARK  0 active torsions:
REMARK  status: ('A' for Active; 'I' for Inactive)
ROOT
HETATM    1  O   UNK N   1      22.058  18.048   4.601  0.00  0.00    -0.309 OA
HETATM    2  O   UNK N   1      20.705  19.831   4.639  0.00  0.00    -0.265 OA
HETATM    3  O   UNK N   1      22.624  11.654  12.314  0.00  0.00    -0.293 OA
HETATM    4  C   UNK N   1      23.298  15.551   5.569  0.00  0.00     0.006 C 
HETATM    5  C   UNK N   1      24.367  15.767   4.479  0.00  0.00    -0.002 A 
HETATM    6  C   UNK N   1      23.695  16.708   3.489  0.00  0.00     0.027 A 
HETATM    7  C   UNK N   1      21.940  15.675   4.857  0.00  0.00    -0.007 C 
HETATM    8  C   UNK N   1      23.339  14.284   6.461  0.00  0.00     0.001 C 
HETATM    9  C   UNK N   1      22.212  16.866   3.914  0.00  0.00     0.083 C 
HETATM   10  C   UNK N   1      24.116  15.305   3.049  0.00  0.00     0.013 A 
HETATM   11  C   UNK N   1      24.738  14.089   7.088  0.00  0.00    -0.001 A 
HETATM   12  C   UNK N   1      22.243  14.487   7.557  0.00  0.00     0.003 C 
HETATM   13  C   UNK N   1      24.839  13.454   8.487  0.00  0.00     0.020 A 
HETATM   14  C   UNK N   1      20.839  15.873   5.902  0.00  0.00     0.013 C 
HETATM   15  C   UNK N   1      24.930  12.583   7.281  0.00  0.00     0.015 A 
HETATM   16  C   UNK N   1      22.193  13.340   8.596  0.00  0.00    -0.016 C 
HETATM   17  C   UNK N   1      20.850  14.713   6.911  0.00  0.00     0.007 C 
HETATM   18  C   UNK N   1      21.238  16.963   2.715  0.00  0.00     0.050 C 
HETATM   19  C   UNK N   1      23.568  13.131   9.231  0.00  0.00    -0.063 C 
HETATM   20  C   UNK N   1      21.591  14.414   4.038  0.00  0.00     0.019 C 
HETATM   21  C   UNK N   1      21.182  13.725   9.695  0.00  0.00     0.022 C 
HETATM   22  C   UNK N   1      20.380  18.202   2.948  0.00  0.00     0.114 C 
HETATM   23  C   UNK N   1      21.742  12.033   7.941  0.00  0.00     0.020 C 
HETATM   24  C   UNK N   1      21.057  18.784   4.117  0.00  0.00     0.259 C 
HETATM   25  C   UNK N   1      23.679  12.606  10.464  0.00  0.00     0.054 C 
HETATM   26  C   UNK N   1      21.119  12.711  10.840  0.00  0.00     0.084 C 
HETATM   27  C   UNK N   1      22.490  12.281  11.276  0.00  0.00     0.149 C 
ENDROOT
TORSDOF 0
ENDMDL
MODEL 2
REMARK VINA RESULT:      -8.2      6.119      8.143
REMARK  0 active torsions:
REMARK  status: ('A' for Active; 'I' for Inactive)
ROOT
HETATM    1  O   UNK N   1      25.556  17.411   4.133  0.00  0.00    -0.309 OA
HETATM    2  O   UNK N   1      23.869  18.634   4.953  0.00  0.00    -0.265 OA
HETATM    3  O   UNK N   1      34.905  18.216   7.688  0.00  0.00    -0.293 OA
HETATM    4  C   UNK N   1      28.308  16.368   3.919  0.00  0.00     0.006 C 
HETATM    5  C   UNK N   1      27.899  15.831   2.533  0.00  0.00    -0.002 A 
HETATM    6  C   UNK N   1      26.379  15.778   2.595  0.00  0.00     0.027 A 
HETATM    7  C   UNK N   1      27.225  15.880   4.895  0.00  0.00    -0.007 C 
HETATM    8  C   UNK N   1      29.724  16.082   4.479  0.00  0.00     0.001 C 
HETATM    9  C   UNK N   1      25.951  16.096   4.051  0.00  0.00     0.083 C 
HETATM   10  C   UNK N   1      27.184  14.492   2.403  0.00  0.00     0.013 A 
HETATM   11  C   UNK N   1      30.817  16.462   3.454  0.00  0.00    -0.001 A 
HETATM   12  C   UNK N   1      29.853  16.922   5.792  0.00  0.00     0.003 C 
HETATM   13  C   UNK N   1      32.169  16.984   3.975  0.00  0.00     0.020 A 
HETATM   14  C   UNK N   1      27.320  16.681   6.197  0.00  0.00     0.013 C 
HETATM   15  C   UNK N   1      32.003  15.527   3.704  0.00  0.00     0.015 A 
HETATM   16  C   UNK N   1      31.248  16.817   6.454  0.00  0.00    -0.016 C 
HETATM   17  C   UNK N   1      28.730  16.550   6.797  0.00  0.00     0.007 C 
HETATM   18  C   UNK N   1      24.727  15.274   4.523  0.00  0.00     0.050 C 
HETATM   19  C   UNK N   1      32.345  17.192   5.457  0.00  0.00    -0.063 C 
HETATM   20  C   UNK N   1      27.384  14.386   5.248  0.00  0.00     0.019 C 
HETATM   21  C   UNK N   1      31.292  17.795   7.646  0.00  0.00     0.022 C 
HETATM   22  C   UNK N   1      23.720  16.272   5.085  0.00  0.00     0.114 C 
HETATM   23  C   UNK N   1      31.502  15.398   6.966  0.00  0.00     0.020 C 
HETATM   24  C   UNK N   1      24.361  17.542   4.711  0.00  0.00     0.259 C 
HETATM   25  C   UNK N   1      33.522  17.678   5.887  0.00  0.00     0.054 C 
HETATM   26  C   UNK N   1      32.664  17.858   8.323  0.00  0.00     0.084 C 
HETATM   27  C   UNK N   1      33.776  17.937   7.317  0.00  0.00     0.149 C 
ENDROOT
TORSDOF 0
ENDMDL
MODEL 3
REMARK VINA RESULT:      -8.2     12.177     15.082
REMARK  0 active torsions:
REMARK  status: ('A' for Active; 'I' for Inactive)
ROOT
HETATM    1  O   UNK N   1      33.177  10.981  10.186  0.00  0.00    -0.309 OA
HETATM    2  O   UNK N   1      31.548   9.713   9.320  0.00  0.00    -0.265 OA
HETATM    3  O   UNK N   1      35.225  10.998  20.010  0.00  0.00    -0.293 OA
HETATM    4  C   UNK N   1      34.961  12.071  12.269  0.00  0.00     0.006 C 
HETATM    5  C   UNK N   1      35.309  13.183  11.260  0.00  0.00    -0.002 A 
HETATM    6  C   UNK N   1      34.924  12.588   9.912  0.00  0.00     0.027 A 
HETATM    7  C   UNK N   1      35.149  10.744  11.515  0.00  0.00    -0.007 C 
HETATM    8  C   UNK N   1      35.663  12.024  13.650  0.00  0.00     0.001 C 
HETATM    9  C   UNK N   1      34.546  11.102  10.140  0.00  0.00     0.083 C 
HETATM   10  C   UNK N   1      36.380  12.957  10.200  0.00  0.00     0.013 A 
HETATM   11  C   UNK N   1      35.579  13.391  14.366  0.00  0.00    -0.001 A 
HETATM   12  C   UNK N   1      34.941  10.903  14.468  0.00  0.00     0.003 C 
HETATM   13  C   UNK N   1      35.487  13.417  15.902  0.00  0.00     0.020 A 
HETATM   14  C   UNK N   1      34.455   9.620  12.289  0.00  0.00     0.013 C 
HETATM   15  C   UNK N   1      36.824  13.506  15.248  0.00  0.00     0.015 A 
HETATM   16  C   UNK N   1      35.466  10.766  15.918  0.00  0.00    -0.016 C 
HETATM   17  C   UNK N   1      35.008   9.544  13.722  0.00  0.00     0.007 C 
HETATM   18  C   UNK N   1      34.997  10.172   8.986  0.00  0.00     0.050 C 
HETATM   19  C   UNK N   1      35.390  12.109  16.646  0.00  0.00    -0.063 C 
HETATM   20  C   UNK N   1      36.637  10.363  11.362  0.00  0.00     0.019 C 
HETATM   21  C   UNK N   1      34.584   9.740  16.658  0.00  0.00     0.022 C 
HETATM   22  C   UNK N   1      33.770   9.366   8.570  0.00  0.00     0.114 C 
HETATM   23  C   UNK N   1      36.915  10.276  15.927  0.00  0.00     0.020 C 
HETATM   24  C   UNK N   1      32.726  10.032   9.365  0.00  0.00     0.259 C 
HETATM   25  C   UNK N   1      35.279  12.156  17.985  0.00  0.00     0.054 C 
HETATM   26  C   UNK N   1      34.943   9.593  18.139  0.00  0.00     0.084 C 
HETATM   27  C   UNK N   1      35.154  10.928  18.794  0.00  0.00     0.149 C 
ENDROOT
TORSDOF 0
ENDMDL
MODEL 4
REMARK VINA RESULT:      -8.1     14.874     16.893
REMARK  0 active torsions:
REMARK  status: ('A' for Active; 'I' for Inactive)
ROOT
HETATM    1  O   UNK N   1      26.001  23.916  -7.279  0.00  0.00    -0.309 OA
HETATM    2  O   UNK N   1      25.257  23.487  -9.347  0.00  0.00    -0.265 OA
HETATM    3  O   UNK N   1      34.867  20.523  -4.026  0.00  0.00    -0.293 OA
HETATM    4  C   UNK N   1      27.887  23.907  -5.009  0.00  0.00     0.006 C 
HETATM    5  C   UNK N   1      26.691  24.329  -4.133  0.00  0.00    -0.002 A 
HETATM    6  C   UNK N   1      25.695  24.909  -5.128  0.00  0.00     0.027 A 
HETATM    7  C   UNK N   1      27.901  24.882  -6.198  0.00  0.00    -0.007 C 
HETATM    8  C   UNK N   1      29.301  23.775  -4.388  0.00  0.00     0.001 C 
HETATM    9  C   UNK N   1      26.393  24.986  -6.509  0.00  0.00     0.083 C 
HETATM   10  C   UNK N   1      26.287  25.795  -4.031  0.00  0.00     0.013 A 
HETATM   11  C   UNK N   1      29.273  22.889  -3.122  0.00  0.00    -0.001 A 
HETATM   12  C   UNK N   1      30.210  23.157  -5.500  0.00  0.00     0.003 C 
HETATM   13  C   UNK N   1      30.504  22.024  -2.798  0.00  0.00     0.020 A 
HETATM   14  C   UNK N   1      28.786  24.309  -7.310  0.00  0.00     0.013 C 
HETATM   15  C   UNK N   1      30.395  23.388  -2.208  0.00  0.00     0.015 A 
HETATM   16  C   UNK N   1      31.657  22.879  -5.026  0.00  0.00    -0.016 C 
HETATM   17  C   UNK N   1      30.202  24.042  -6.775  0.00  0.00     0.007 C 
HETATM   18  C   UNK N   1      25.997  26.241  -7.326  0.00  0.00     0.050 C 
HETATM   19  C   UNK N   1      31.653  22.001  -3.773  0.00  0.00    -0.063 C 
HETATM   20  C   UNK N   1      28.465  26.267  -5.814  0.00  0.00     0.019 C 
HETATM   21  C   UNK N   1      32.404  22.143  -6.157  0.00  0.00     0.022 C 
HETATM   22  C   UNK N   1      25.568  25.748  -8.704  0.00  0.00     0.114 C 
HETATM   23  C   UNK N   1      32.388  24.187  -4.716  0.00  0.00     0.020 C 
HETATM   24  C   UNK N   1      25.572  24.293  -8.484  0.00  0.00     0.259 C 
HETATM   25  C   UNK N   1      32.705  21.215  -3.487  0.00  0.00     0.054 C 
HETATM   26  C   UNK N   1      33.823  21.720  -5.767  0.00  0.00     0.084 C 
HETATM   27  C   UNK N   1      33.863  21.110  -4.395  0.00  0.00     0.149 C 
ENDROOT
TORSDOF 0
ENDMDL
MODEL 5
REMARK VINA RESULT:      -8.1     11.674     13.702
REMARK  0 active torsions:
REMARK  status: ('A' for Active; 'I' for Inactive)
ROOT
HETATM    1  O   UNK N   1      35.284  17.132   8.158  0.00  0.00    -0.309 OA
HETATM    2  O   UNK N   1      35.348  19.331   8.571  0.00  0.00    -0.265 OA
HETATM    3  O   UNK N   1      38.203  10.370  14.974  0.00  0.00    -0.293 OA
HETATM    4  C   UNK N   1      35.550  14.247   8.724  0.00  0.00     0.006 C 
HETATM    5  C   UNK N   1      35.471  14.034   7.199  0.00  0.00    -0.002 A 
HETATM    6  C   UNK N   1      34.817  15.309   6.685  0.00  0.00     0.027 A 
HETATM    7  C   UNK N   1      34.350  15.138   9.087  0.00  0.00    -0.007 C 
HETATM    8  C   UNK N   1      35.641  13.029   9.678  0.00  0.00     0.001 C 
HETATM    9  C   UNK N   1      34.364  16.139   7.913  0.00  0.00     0.083 C 
HETATM   10  C   UNK N   1      34.120  13.961   6.498  0.00  0.00     0.013 A 
HETATM   11  C   UNK N   1      36.773  12.068   9.249  0.00  0.00    -0.001 A 
HETATM   12  C   UNK N   1      35.894  13.612  11.107  0.00  0.00     0.003 C 
HETATM   13  C   UNK N   1      37.534  11.289  10.338  0.00  0.00     0.020 A 
HETATM   14  C   UNK N   1      34.562  15.726  10.485  0.00  0.00     0.013 C 
HETATM   15  C   UNK N   1      36.349  10.663   9.683  0.00  0.00     0.015 A 
HETATM   16  C   UNK N   1      36.091  12.522  12.188  0.00  0.00    -0.016 C 
HETATM   17  C   UNK N   1      34.766  14.598  11.509  0.00  0.00     0.007 C 
HETATM   18  C   UNK N   1      33.020  16.877   7.691  0.00  0.00     0.050 C 
HETATM   19  C   UNK N   1      37.209  11.560  11.784  0.00  0.00    -0.063 C 
HETATM   20  C   UNK N   1      33.021  14.352   9.103  0.00  0.00     0.019 C 
HETATM   21  C   UNK N   1      36.474  13.216  13.511  0.00  0.00     0.022 C 
HETATM   22  C   UNK N   1      33.256  18.337   8.067  0.00  0.00     0.114 C 
HETATM   23  C   UNK N   1      34.801  11.727  12.399  0.00  0.00     0.020 C 
HETATM   24  C   UNK N   1      34.713  18.332   8.271  0.00  0.00     0.259 C 
HETATM   25  C   UNK N   1      37.907  10.892  12.719  0.00  0.00     0.054 C 
HETATM   26  C   UNK N   1      36.797  12.231  14.638  0.00  0.00     0.084 C 
HETATM   27  C   UNK N   1      37.676  11.111  14.161  0.00  0.00     0.149 C 
ENDROOT
TORSDOF 0
ENDMDL
MODEL 6
REMARK VINA RESULT:      -8.0     15.762     17.981
REMARK  0 active torsions:
REMARK  status: ('A' for Active; 'I' for Inactive)
ROOT
HETATM    1  O   UNK N   1      30.865  22.262  -3.747  0.00  0.00    -0.309 OA
HETATM    2  O   UNK N   1      32.342  21.650  -2.180  0.00  0.00    -0.265 OA
HETATM    3  O   UNK N   1      26.022  31.041  -3.323  0.00  0.00    -0.293 OA
HETATM    4  C   UNK N   1      28.941  24.017  -5.136  0.00  0.00     0.006 C 
HETATM    5  C   UNK N   1      28.493  22.761  -5.908  0.00  0.00    -0.002 A 
HETATM    6  C   UNK N   1      29.667  21.803  -5.762  0.00  0.00     0.027 A 
HETATM    7  C   UNK N   1      30.473  24.066  -5.265  0.00  0.00    -0.007 C 
HETATM    8  C   UNK N   1      28.317  25.398  -5.462  0.00  0.00     0.001 C 
HETATM    9  C   UNK N   1      30.829  22.574  -5.086  0.00  0.00     0.083 C 
HETATM   10  C   UNK N   1      29.252  22.303  -7.147  0.00  0.00     0.013 A 
HETATM   11  C   UNK N   1      26.774  25.329  -5.449  0.00  0.00    -0.001 A 
HETATM   12  C   UNK N   1      28.856  26.388  -4.379  0.00  0.00     0.003 C 
HETATM   13  C   UNK N   1      25.982  26.568  -4.993  0.00  0.00     0.020 A 
HETATM   14  C   UNK N   1      31.039  25.029  -4.217  0.00  0.00     0.013 C 
HETATM   15  C   UNK N   1      26.275  26.380  -6.443  0.00  0.00     0.015 A 
HETATM   16  C   UNK N   1      28.270  27.815  -4.504  0.00  0.00    -0.016 C 
HETATM   17  C   UNK N   1      30.408  26.422  -4.384  0.00  0.00     0.007 C 
HETATM   18  C   UNK N   1      32.224  22.183  -5.632  0.00  0.00     0.050 C 
HETATM   19  C   UNK N   1      26.741  27.770  -4.491  0.00  0.00    -0.063 C 
HETATM   20  C   UNK N   1      30.929  24.560  -6.655  0.00  0.00     0.019 C 
HETATM   21  C   UNK N   1      28.761  28.648  -3.303  0.00  0.00     0.022 C 
HETATM   22  C   UNK N   1      33.089  21.848  -4.421  0.00  0.00     0.114 C 
HETATM   23  C   UNK N   1      28.738  28.483  -5.798  0.00  0.00     0.020 C 
HETATM   24  C   UNK N   1      32.082  21.888  -3.349  0.00  0.00     0.259 C 
HETATM   25  C   UNK N   1      26.030  28.830  -4.069  0.00  0.00     0.054 C 
HETATM   26  C   UNK N   1      28.162  30.056  -3.260  0.00  0.00     0.084 C 
HETATM   27  C   UNK N   1      26.687  30.040  -3.537  0.00  0.00     0.149 C 
ENDROOT
TORSDOF 0
ENDMDL
MODEL 7
REMARK VINA RESULT:      -7.5     14.193     17.205
REMARK  0 active torsions:
REMARK  status: ('A' for Active; 'I' for Inactive)
ROOT
HETATM    1  O   UNK N   1      34.277  11.182  13.377  0.00  0.00    -0.309 OA
HETATM    2  O   UNK N   1      33.256  10.063  11.730  0.00  0.00    -0.265 OA
HETATM    3  O   UNK N   1      33.881   8.099  22.919  0.00  0.00    -0.293 OA
HETATM    4  C   UNK N   1      35.202  11.737  16.125  0.00  0.00     0.006 C 
HETATM    5  C   UNK N   1      35.500  13.168  15.637  0.00  0.00    -0.002 A 
HETATM    6  C   UNK N   1      35.599  13.027  14.125  0.00  0.00     0.027 A 
HETATM    7  C   UNK N   1      35.877  10.798  15.111  0.00  0.00    -0.007 C 
HETATM    8  C   UNK N   1      35.547  11.320  17.577  0.00  0.00     0.001 C 
HETATM    9  C   UNK N   1      35.548  11.515  13.784  0.00  0.00     0.083 C 
HETATM   10  C   UNK N   1      36.812  13.488  14.933  0.00  0.00     0.013 A 
HETATM   11  C   UNK N   1      34.969  12.325  18.598  0.00  0.00    -0.001 A 
HETATM   12  C   UNK N   1      34.946   9.890  17.775  0.00  0.00     0.003 C 
HETATM   13  C   UNK N   1      34.514  11.802  19.973  0.00  0.00     0.020 A 
HETATM   14  C   UNK N   1      35.312   9.384  15.277  0.00  0.00     0.013 C 
HETATM   15  C   UNK N   1      35.905  12.312  19.810  0.00  0.00     0.015 A 
HETATM   16  C   UNK N   1      35.130   9.340  19.210  0.00  0.00    -0.016 C 
HETATM   17  C   UNK N   1      35.513   8.901  16.722  0.00  0.00     0.007 C 
HETATM   18  C   UNK N   1      36.469  11.122  12.603  0.00  0.00     0.050 C 
HETATM   19  C   UNK N   1      34.563  10.319  20.238  0.00  0.00    -0.063 C 
HETATM   20  C   UNK N   1      37.406  10.722  15.311  0.00  0.00     0.019 C 
HETATM   21  C   UNK N   1      34.374   8.000  19.316  0.00  0.00     0.022 C 
HETATM   22  C   UNK N   1      35.608  10.336  11.620  0.00  0.00     0.114 C 
HETATM   23  C   UNK N   1      36.611   9.100  19.514  0.00  0.00     0.020 C 
HETATM   24  C   UNK N   1      34.277  10.520  12.219  0.00  0.00     0.259 C 
HETATM   25  C   UNK N   1      34.131   9.881  21.434  0.00  0.00     0.054 C 
HETATM   26  C   UNK N   1      34.396   7.404  20.726  0.00  0.00     0.084 C 
HETATM   27  C   UNK N   1      34.118   8.445  21.773  0.00  0.00     0.149 C 
ENDROOT
TORSDOF 0
ENDMDL
MODEL 8
REMARK VINA RESULT:      -7.5      9.800     11.813
REMARK  0 active torsions:
REMARK  status: ('A' for Active; 'I' for Inactive)
ROOT
HETATM    1  O   UNK N   1      31.150  16.386   7.151  0.00  0.00    -0.309 OA
HETATM    2  O   UNK N   1      29.251  15.944   6.050  0.00  0.00    -0.265 OA
HETATM    3  O   UNK N   1      35.645   9.524  12.931  0.00  0.00    -0.293 OA
HETATM    4  C   UNK N   1      33.496  15.843   8.858  0.00  0.00     0.006 C 
HETATM    5  C   UNK N   1      33.667  17.372   8.951  0.00  0.00    -0.002 A 
HETATM    6  C   UNK N   1      32.899  17.900   7.747  0.00  0.00     0.027 A 
HETATM    7  C   UNK N   1      33.370  15.524   7.358  0.00  0.00    -0.007 C 
HETATM    8  C   UNK N   1      34.522  14.900   9.537  0.00  0.00     0.001 C 
HETATM    9  C   UNK N   1      32.467  16.684   6.888  0.00  0.00     0.083 C 
HETATM   10  C   UNK N   1      34.407  18.135   7.859  0.00  0.00     0.013 A 
HETATM   11  C   UNK N   1      34.741  15.288  11.016  0.00  0.00    -0.001 A 
HETATM   12  C   UNK N   1      33.941  13.454   9.403  0.00  0.00     0.003 C 
HETATM   13  C   UNK N   1      35.050  14.175  12.034  0.00  0.00     0.020 A 
HETATM   14  C   UNK N   1      32.804  14.111   7.188  0.00  0.00     0.013 C 
HETATM   15  C   UNK N   1      36.177  14.890  11.370  0.00  0.00     0.015 A 
HETATM   16  C   UNK N   1      34.807  12.378  10.102  0.00  0.00    -0.016 C 
HETATM   17  C   UNK N   1      33.697  13.092   7.914  0.00  0.00     0.007 C 
HETATM   18  C   UNK N   1      32.525  16.959   5.365  0.00  0.00     0.050 C 
HETATM   19  C   UNK N   1      35.035  12.742  11.569  0.00  0.00    -0.063 C 
HETATM   20  C   UNK N   1      34.730  15.578   6.631  0.00  0.00     0.019 C 
HETATM   21  C   UNK N   1      34.060  11.031  10.025  0.00  0.00     0.022 C 
HETATM   22  C   UNK N   1      31.168  16.555   4.796  0.00  0.00     0.114 C 
HETATM   23  C   UNK N   1      36.163  12.235   9.406  0.00  0.00     0.020 C 
HETATM   24  C   UNK N   1      30.425  16.284   6.036  0.00  0.00     0.259 C 
HETATM   25  C   UNK N   1      35.276  11.784  12.481  0.00  0.00     0.054 C 
HETATM   26  C   UNK N   1      34.773   9.902  10.775  0.00  0.00     0.084 C 
HETATM   27  C   UNK N   1      35.258  10.352  12.123  0.00  0.00     0.149 C 
ENDROOT
TORSDOF 0
ENDMDL
MODEL 9
REMARK VINA RESULT:      -7.5     14.110     16.904
REMARK  0 active torsions:
REMARK  status: ('A' for Active; 'I' for Inactive)
ROOT
HETATM    1  O   UNK N   1      34.947  12.296  12.440  0.00  0.00    -0.309 OA
HETATM    2  O   UNK N   1      34.266  11.895  10.345  0.00  0.00    -0.265 OA
HETATM    3  O   UNK N   1      34.768   5.191  19.524  0.00  0.00    -0.293 OA
HETATM    4  C   UNK N   1      35.601  11.687  15.253  0.00  0.00     0.006 C 
HETATM    5  C   UNK N   1      35.610  13.211  15.485  0.00  0.00    -0.002 A 
HETATM    6  C   UNK N   1      35.808  13.792  14.092  0.00  0.00     0.027 A 
HETATM    7  C   UNK N   1      36.508  11.442  14.035  0.00  0.00    -0.007 C 
HETATM    8  C   UNK N   1      35.959  10.719  16.409  0.00  0.00     0.001 C 
HETATM    9  C   UNK N   1      36.097  12.617  13.123  0.00  0.00     0.083 C 
HETATM   10  C   UNK N   1      36.856  14.032  15.179  0.00  0.00     0.013 A 
HETATM   11  C   UNK N   1      35.133  11.035  17.676  0.00  0.00    -0.001 A 
HETATM   12  C   UNK N   1      35.667   9.278  15.879  0.00  0.00     0.003 C 
HETATM   13  C   UNK N   1      34.735   9.876  18.608  0.00  0.00     0.020 A 
HETATM   14  C   UNK N   1      36.251  10.035  13.487  0.00  0.00     0.013 C 
HETATM   15  C   UNK N   1      35.991  10.631  18.877  0.00  0.00     0.015 A 
HETATM   16  C   UNK N   1      35.897   8.175  16.941  0.00  0.00    -0.016 C 
HETATM   17  C   UNK N   1      36.481   8.988  14.590  0.00  0.00     0.007 C 
HETATM   18  C   UNK N   1      37.135  12.967  12.028  0.00  0.00     0.050 C 
HETATM   19  C   UNK N   1      35.086   8.467  18.203  0.00  0.00    -0.063 C 
HETATM   20  C   UNK N   1      38.007  11.542  14.391  0.00  0.00     0.019 C 
HETATM   21  C   UNK N   1      35.439   6.827  16.346  0.00  0.00     0.022 C 
HETATM   22  C   UNK N   1      36.508  12.581  10.692  0.00  0.00     0.114 C 
HETATM   23  C   UNK N   1      37.379   8.077  17.311  0.00  0.00     0.020 C 
HETATM   24  C   UNK N   1      35.142  12.244  11.121  0.00  0.00     0.259 C 
HETATM   25  C   UNK N   1      34.702   7.467  19.015  0.00  0.00     0.054 C 
HETATM   26  C   UNK N   1      35.522   5.668  17.343  0.00  0.00     0.084 C 
HETATM   27  C   UNK N   1      34.980   6.055  18.689  0.00  0.00     0.149 C 
ENDROOT
TORSDOF 0
ENDMDL
