REMARK  0 active torsions:
REMARK  status: ('A' for Active; 'I' for Inactive)
ROOT
HETATM    1  O   UNK N   1       2.241  -2.695   1.243  0.00  0.00    -0.309 OA
HETATM    2  O   UNK N   1       2.840  -4.601   2.253  0.00  0.00    -0.265 OA
HETATM    3  O   UNK N   1       8.576   5.032   0.318  0.00  0.00    -0.293 OA
HETATM    4  C   UNK N   1       2.572   0.026   0.149  0.00  0.00     0.006 C 
HETATM    5  C   UNK N   1       1.033   0.093   0.096  0.00  0.00    -0.002 A 
HETATM    6  C   UNK N   1       0.602  -1.367   0.121  0.00  0.00     0.027 A 
HETATM    7  C   UNK N   1       2.960  -1.288  -0.550  0.00  0.00    -0.007 C 
HETATM    8  C   UNK N   1       3.423   1.206  -0.385  0.00  0.00     0.001 C 
HETATM    9  C   UNK N   1       1.876  -2.241  -0.003  0.00  0.00     0.083 C 
HETATM   10  C   UNK N   1       0.274  -0.491  -1.089  0.00  0.00     0.013 A 
HETATM   11  C   UNK N   1       2.961   2.548   0.226  0.00  0.00    -0.001 A 
HETATM   12  C   UNK N   1       4.905   0.883  -0.005  0.00  0.00     0.003 C 
HETATM   13  C   UNK N   1       4.010   3.647   0.475  0.00  0.00     0.020 A 
HETATM   14  C   UNK N   1       4.410  -1.637  -0.201  0.00  0.00     0.013 C 
HETATM   15  C   UNK N   1       3.258   3.633  -0.812  0.00  0.00     0.015 A 
HETATM   16  C   UNK N   1       5.898   2.004  -0.397  0.00  0.00    -0.016 C 
HETATM   17  C   UNK N   1       5.343  -0.482  -0.600  0.00  0.00     0.007 C 
HETATM   18  C   UNK N   1       1.663  -3.517  -0.854  0.00  0.00     0.050 C 
HETATM   19  C   UNK N   1       5.460   3.342   0.200  0.00  0.00    -0.063 C 
HETATM   20  C   UNK N   1       2.856  -1.187  -2.087  0.00  0.00     0.019 C 
HETATM   21  C   UNK N   1       7.289   1.634   0.157  0.00  0.00     0.022 C 
HETATM   22  C   UNK N   1       2.170  -4.689  -0.019  0.00  0.00     0.114 C 
HETATM   23  C   UNK N   1       5.989   2.142  -1.918  0.00  0.00     0.020 C 
HETATM   24  C   UNK N   1       2.432  -4.015   1.262  0.00  0.00     0.259 C 
HETATM   25  C   UNK N   1       6.363   4.305   0.454  0.00  0.00     0.054 C 
HETATM   26  C   UNK N   1       8.341   2.721  -0.079  0.00  0.00     0.084 C 
HETATM   27  C   UNK N   1       7.807   4.088   0.239  0.00  0.00     0.149 C 
ENDROOT
TORSDOF 0
