MODEL 1
REMARK VINA RESULT:      -9.2      0.000      0.000
REMARK  12 active torsions:
REMARK  status: ('A' for Active; 'I' for Inactive)
REMARK    1  A    between atoms: C_14  and  O_1 
REMARK    2  A    between atoms: C_32  and  O_2 
REMARK    3  A    between atoms: C_36  and  O_2 
REMARK    4  A    between atoms: C_39  and  O_6 
REMARK    5  A    between atoms: C_41  and  O_7 
REMARK    6  A    between atoms: C_43  and  O_7 
REMARK    7  A    between atoms: C_47  and  O_9 
REMARK    8  A    between atoms: C_49  and  O_9 
REMARK    9  A    between atoms: C_45  and  O_10 
REMARK   10  A    between atoms: C_51  and  O_12 
REMARK   11  A    between atoms: C_53  and  O_13 
REMARK   12  A    between atoms: C_22  and  C_33 
ROOT
HETATM    1  O   UNK N   1      39.034  12.726   6.345  0.00  0.00    -0.354 OA
HETATM    2  C   UNK N   1      38.460  11.664   7.089  0.00  0.00     0.263 C 
HETATM    3  C   UNK N   1      37.681  10.873   6.070  0.00  0.00     0.095 C 
HETATM    4  C   UNK N   1      36.466  11.713   5.703  0.00  0.00     0.154 C 
HETATM    5  C   UNK N   1      38.082  13.741   6.152  0.00  0.00     0.152 C 
HETATM    6  C   UNK N   1      36.761  13.249   5.548  0.00  0.00     0.182 C 
HETATM    7  C   UNK N   1      38.670  14.844   5.291  0.00  0.00     0.042 C 
ENDROOT
BRANCH   2   8
HETATM    8  O   UNK N   1      37.558  12.093   8.116  0.00  0.00    -0.356 OA
BRANCH   8   9
HETATM    9  C   UNK N   1      38.080  12.118   9.427  0.00  0.00     0.125 C 
HETATM   10  C   UNK N   1      37.714  13.310  10.290  0.00  0.00     0.037 C 
HETATM   11  C   UNK N   1      36.292  13.245  10.845  0.00  0.00    -0.004 C 
HETATM   12  C   UNK N   1      35.855  11.796  11.305  0.00  0.00    -0.036 C 
HETATM   13  C   UNK N   1      36.334  14.287  11.979  0.00  0.00     0.006 C 
HETATM   14  C   UNK N   1      36.220  11.588  12.770  0.00  0.00     0.001 C 
HETATM   15  C   UNK N   1      36.473  10.643  10.493  0.00  0.00     0.012 C 
HETATM   16  C   UNK N   1      34.344  11.646  11.109  0.00  0.00     0.016 C 
HETATM   17  C   UNK N   1      35.395  12.566  13.668  0.00  0.00     0.025 C 
HETATM   18  C   UNK N   1      35.980  10.124  13.196  0.00  0.00     0.007 C 
HETATM   19  C   UNK N   1      35.836  12.332  15.128  0.00  0.00     0.070 C 
HETATM   20  C   UNK N   1      35.472  14.032  13.214  0.00  0.00     0.008 C 
HETATM   21  C   UNK N   1      35.556  10.872  15.507  0.00  0.00    -0.005 C 
HETATM   22  C   UNK N   1      35.118  13.084  16.245  0.00  0.00     0.040 C 
HETATM   23  C   UNK N   1      36.376   9.920  14.646  0.00  0.00     0.013 C 
HETATM   24  C   UNK N   1      35.948  10.882  16.964  0.00  0.00     0.028 C 
HETATM   25  C   UNK N   1      34.055  10.505  15.372  0.00  0.00     0.019 C 
HETATM   26  C   UNK N   1      35.293  12.174  17.489  0.00  0.00     0.013 C 
HETATM   27  C   UNK N   1      37.938  10.820  10.184  0.00  0.00     0.033 C 
BRANCH  19  28
HETATM   28  O   UNK N   1      37.207  12.620  15.239  0.00  0.00    -0.389 OA
HETATM   29  H   UNK N   1      38.162  12.539  15.091  0.00  0.00     0.210 HD
ENDBRANCH  19  28
BRANCH  24  30
HETATM   30  C   UNK N   1      35.620   9.581  17.649  0.00  0.00    -0.045 A 
HETATM   31  C   UNK N   1      36.565   8.394  17.664  0.00  0.00     0.213 A 
HETATM   32  O   UNK N   1      35.829   7.434  18.325  0.00  0.00    -0.314 OA
HETATM   33  C   UNK N   1      34.630   7.921  18.680  0.00  0.00     0.283 A 
HETATM   34  O   UNK N   1      33.790   7.277  19.268  0.00  0.00    -0.260 OA
HETATM   35  C   UNK N   1      34.480   9.289  18.251  0.00  0.00     0.087 A 
ENDBRANCH  24  30
ENDBRANCH   8   9
ENDBRANCH   2   8
BRANCH   4  36
HETATM   36  O   UNK N   1      35.469  11.471   6.651  0.00  0.00    -0.393 OA
HETATM   37  H   UNK N   1      35.272  11.306   7.586  0.00  0.00     0.210 HD
ENDBRANCH   4  36
BRANCH   6  38
HETATM   38  O   UNK N   1      35.742  14.038   6.135  0.00  0.00    -0.351 OA
BRANCH  38  39
HETATM   39  C   UNK N   1      34.851  14.604   5.184  0.00  0.00     0.263 C 
HETATM   40  O   UNK N   1      34.661  15.990   5.372  0.00  0.00    -0.354 OA
HETATM   41  C   UNK N   1      34.001  16.153   6.601  0.00  0.00     0.152 C 
HETATM   42  C   UNK N   1      32.575  15.590   6.596  0.00  0.00     0.182 C 
HETATM   43  C   UNK N   1      34.103  17.581   7.103  0.00  0.00     0.042 C 
HETATM   44  C   UNK N   1      32.556  14.127   6.051  0.00  0.00     0.154 C 
HETATM   45  C   UNK N   1      33.524  13.881   4.893  0.00  0.00     0.095 C 
BRANCH  42  46
HETATM   46  O   UNK N   1      31.661  16.562   6.131  0.00  0.00    -0.351 OA
BRANCH  46  47
HETATM   47  C   UNK N   1      30.517  16.683   6.919  0.00  0.00     0.263 C 
HETATM   48  O   UNK N   1      30.938  17.008   8.234  0.00  0.00    -0.354 OA
HETATM   49  C   UNK N   1      29.875  17.385   9.099  0.00  0.00     0.151 C 
HETATM   50  C   UNK N   1      28.475  17.081   8.540  0.00  0.00     0.175 C 
HETATM   51  C   UNK N   1      30.030  18.853   9.471  0.00  0.00     0.042 C 
HETATM   52  C   UNK N   1      28.277  17.787   7.196  0.00  0.00     0.154 C 
HETATM   53  C   UNK N   1      29.554  17.737   6.353  0.00  0.00     0.095 C 
BRANCH  50  54
HETATM   54  O   UNK N   1      27.474  17.432   9.445  0.00  0.00    -0.390 OA
HETATM   55  H   UNK N   1      27.434  17.044  10.333  0.00  0.00     0.210 HD
ENDBRANCH  50  54
BRANCH  52  56
HETATM   56  O   UNK N   1      27.223  17.184   6.508  0.00  0.00    -0.393 OA
HETATM   57  H   UNK N   1      26.833  16.354   6.820  0.00  0.00     0.210 HD
ENDBRANCH  52  56
ENDBRANCH  46  47
ENDBRANCH  42  46
BRANCH  44  58
HETATM   58  O   UNK N   1      31.281  13.637   5.773  0.00  0.00    -0.393 OA
HETATM   59  H   UNK N   1      30.838  12.774   5.752  0.00  0.00     0.210 HD
ENDBRANCH  44  58
ENDBRANCH  38  39
ENDBRANCH   6  38
TORSDOF 12
ENDMDL
MODEL 2
REMARK VINA RESULT:      -9.1      4.419     12.963
REMARK  12 active torsions:
REMARK  status: ('A' for Active; 'I' for Inactive)
REMARK    1  A    between atoms: C_14  and  O_1 
REMARK    2  A    between atoms: C_32  and  O_2 
REMARK    3  A    between atoms: C_36  and  O_2 
REMARK    4  A    between atoms: C_39  and  O_6 
REMARK    5  A    between atoms: C_41  and  O_7 
REMARK    6  A    between atoms: C_43  and  O_7 
REMARK    7  A    between atoms: C_47  and  O_9 
REMARK    8  A    between atoms: C_49  and  O_9 
REMARK    9  A    between atoms: C_45  and  O_10 
REMARK   10  A    between atoms: C_51  and  O_12 
REMARK   11  A    between atoms: C_53  and  O_13 
REMARK   12  A    between atoms: C_22  and  C_33 
ROOT
HETATM    1  O   UNK N   1      30.858  15.504   4.881  0.00  0.00    -0.354 OA
HETATM    2  C   UNK N   1      30.663  16.859   5.248  0.00  0.00     0.263 C 
HETATM    3  C   UNK N   1      31.953  17.539   4.867  0.00  0.00     0.095 C 
HETATM    4  C   UNK N   1      33.001  17.074   5.869  0.00  0.00     0.154 C 
HETATM    5  C   UNK N   1      31.602  14.844   5.874  0.00  0.00     0.152 C 
HETATM    6  C   UNK N   1      32.915  15.549   6.239  0.00  0.00     0.182 C 
HETATM    7  C   UNK N   1      31.879  13.414   5.448  0.00  0.00     0.042 C 
ENDROOT
BRANCH   2   8
HETATM    8  O   UNK N   1      30.441  17.058   6.648  0.00  0.00    -0.356 OA
BRANCH   8   9
HETATM    9  C   UNK N   1      29.184  17.590   7.007  0.00  0.00     0.125 C 
HETATM   10  C   UNK N   1      28.598  18.648   6.092  0.00  0.00     0.037 C 
HETATM   11  C   UNK N   1      28.004  18.079   4.805  0.00  0.00    -0.004 C 
HETATM   12  C   UNK N   1      27.220  16.721   5.014  0.00  0.00    -0.036 C 
HETATM   13  C   UNK N   1      27.132  19.246   4.302  0.00  0.00     0.006 C 
HETATM   14  C   UNK N   1      25.757  17.012   5.322  0.00  0.00     0.001 C 
HETATM   15  C   UNK N   1      27.772  15.818   6.132  0.00  0.00     0.012 C 
HETATM   16  C   UNK N   1      27.336  15.879   3.740  0.00  0.00     0.016 C 
HETATM   17  C   UNK N   1      25.076  17.689   4.088  0.00  0.00     0.025 C 
HETATM   18  C   UNK N   1      25.008  15.721   5.716  0.00  0.00     0.007 C 
HETATM   19  C   UNK N   1      23.614  17.990   4.477  0.00  0.00     0.070 C 
HETATM   20  C   UNK N   1      25.848  18.903   3.549  0.00  0.00     0.008 C 
HETATM   21  C   UNK N   1      22.911  16.674   4.837  0.00  0.00    -0.005 C 
HETATM   22  C   UNK N   1      22.674  18.563   3.420  0.00  0.00     0.040 C 
HETATM   23  C   UNK N   1      23.560  16.025   6.052  0.00  0.00     0.013 C 
HETATM   24  C   UNK N   1      21.505  17.165   5.074  0.00  0.00     0.028 C 
HETATM   25  C   UNK N   1      22.920  15.660   3.662  0.00  0.00     0.019 C 
HETATM   26  C   UNK N   1      21.263  18.111   3.883  0.00  0.00     0.013 C 
HETATM   27  C   UNK N   1      28.152  16.556   7.391  0.00  0.00     0.033 C 
BRANCH  19  28
HETATM   28  O   UNK N   1      23.608  18.871   5.571  0.00  0.00    -0.389 OA
HETATM   29  H   UNK N   1      23.433  19.197   6.468  0.00  0.00     0.210 HD
ENDBRANCH  19  28
BRANCH  24  30
HETATM   30  C   UNK N   1      20.538  16.032   5.298  0.00  0.00    -0.045 A 
HETATM   31  C   UNK N   1      20.585  15.135   6.522  0.00  0.00     0.213 A 
HETATM   32  O   UNK N   1      19.585  14.223   6.263  0.00  0.00    -0.314 OA
HETATM   33  C   UNK N   1      18.994  14.492   5.088  0.00  0.00     0.283 A 
HETATM   34  O   UNK N   1      18.088  13.836   4.626  0.00  0.00    -0.260 OA
HETATM   35  C   UNK N   1      19.595  15.642   4.459  0.00  0.00     0.087 A 
ENDBRANCH  24  30
ENDBRANCH   8   9
ENDBRANCH   2   8
BRANCH   4  36
HETATM   36  O   UNK N   1      32.908  17.886   7.002  0.00  0.00    -0.393 OA
HETATM   37  H   UNK N   1      33.202  18.705   7.431  0.00  0.00     0.210 HD
ENDBRANCH   4  36
BRANCH   6  38
HETATM   38  O   UNK N   1      33.103  15.335   7.626  0.00  0.00    -0.351 OA
BRANCH  38  39
HETATM   39  C   UNK N   1      34.468  15.194   7.993  0.00  0.00     0.263 C 
HETATM   40  O   UNK N   1      34.826  13.854   8.255  0.00  0.00    -0.354 OA
HETATM   41  C   UNK N   1      34.118  13.454   9.401  0.00  0.00     0.152 C 
HETATM   42  C   UNK N   1      34.556  14.198  10.667  0.00  0.00     0.182 C 
HETATM   43  C   UNK N   1      34.099  11.943   9.544  0.00  0.00     0.042 C 
HETATM   44  C   UNK N   1      34.566  15.742  10.430  0.00  0.00     0.154 C 
HETATM   45  C   UNK N   1      35.055  16.155   9.042  0.00  0.00     0.095 C 
BRANCH  42  46
HETATM   46  O   UNK N   1      35.647  13.539  11.277  0.00  0.00    -0.351 OA
BRANCH  46  47
HETATM   47  C   UNK N   1      35.555  13.464  12.666  0.00  0.00     0.263 C 
HETATM   48  O   UNK N   1      34.465  12.610  12.975  0.00  0.00    -0.354 OA
HETATM   49  C   UNK N   1      34.387  12.257  14.350  0.00  0.00     0.151 C 
HETATM   50  C   UNK N   1      35.298  13.092  15.265  0.00  0.00     0.175 C 
HETATM   51  C   UNK N   1      34.651  10.765  14.498  0.00  0.00     0.042 C 
HETATM   52  C   UNK N   1      36.756  12.967  14.816  0.00  0.00     0.154 C 
HETATM   53  C   UNK N   1      36.865  12.961  13.289  0.00  0.00     0.095 C 
BRANCH  50  54
HETATM   54  O   UNK N   1      35.151  12.732  16.604  0.00  0.00    -0.390 OA
HETATM   55  H   UNK N   1      35.798  13.000  17.275  0.00  0.00     0.210 HD
ENDBRANCH  50  54
BRANCH  52  56
HETATM   56  O   UNK N   1      37.497  14.024  15.347  0.00  0.00    -0.393 OA
HETATM   57  H   UNK N   1      38.187  13.867  16.010  0.00  0.00     0.210 HD
ENDBRANCH  52  56
ENDBRANCH  46  47
ENDBRANCH  42  46
BRANCH  44  58
HETATM   58  O   UNK N   1      35.193  16.471  11.439  0.00  0.00    -0.393 OA
HETATM   59  H   UNK N   1      36.096  16.747  11.663  0.00  0.00     0.210 HD
ENDBRANCH  44  58
ENDBRANCH  38  39
ENDBRANCH   6  38
TORSDOF 12
ENDMDL
MODEL 3
REMARK VINA RESULT:      -9.1      1.893      3.571
REMARK  12 active torsions:
REMARK  status: ('A' for Active; 'I' for Inactive)
REMARK    1  A    between atoms: C_14  and  O_1 
REMARK    2  A    between atoms: C_32  and  O_2 
REMARK    3  A    between atoms: C_36  and  O_2 
REMARK    4  A    between atoms: C_39  and  O_6 
REMARK    5  A    between atoms: C_41  and  O_7 
REMARK    6  A    between atoms: C_43  and  O_7 
REMARK    7  A    between atoms: C_47  and  O_9 
REMARK    8  A    between atoms: C_49  and  O_9 
REMARK    9  A    between atoms: C_45  and  O_10 
REMARK   10  A    between atoms: C_51  and  O_12 
REMARK   11  A    between atoms: C_53  and  O_13 
REMARK   12  A    between atoms: C_22  and  C_33 
ROOT
HETATM    1  O   UNK N   1      37.592  12.900  10.880  0.00  0.00    -0.354 OA
HETATM    2  C   UNK N   1      37.462  11.528  10.546  0.00  0.00     0.263 C 
HETATM    3  C   UNK N   1      38.080  11.417   9.176  0.00  0.00     0.095 C 
HETATM    4  C   UNK N   1      37.114  12.086   8.208  0.00  0.00     0.154 C 
HETATM    5  C   UNK N   1      36.571  13.640  10.262  0.00  0.00     0.152 C 
HETATM    6  C   UNK N   1      36.466  13.412   8.748  0.00  0.00     0.182 C 
HETATM    7  C   UNK N   1      36.753  15.118  10.555  0.00  0.00     0.042 C 
ENDROOT
BRANCH   2   8
HETATM    8  O   UNK N   1      36.106  11.073  10.470  0.00  0.00    -0.356 OA
BRANCH   8   9
HETATM    9  C   UNK N   1      35.750  10.038  11.361  0.00  0.00     0.125 C 
HETATM   10  C   UNK N   1      36.883   9.315  12.064  0.00  0.00     0.037 C 
HETATM   11  C   UNK N   1      37.491  10.113  13.216  0.00  0.00    -0.004 C 
HETATM   12  C   UNK N   1      36.424  10.897  14.080  0.00  0.00    -0.036 C 
HETATM   13  C   UNK N   1      38.266   9.030  13.991  0.00  0.00     0.006 C 
HETATM   14  C   UNK N   1      35.932  10.013  15.219  0.00  0.00     0.001 C 
HETATM   15  C   UNK N   1      35.194  11.394  13.298  0.00  0.00     0.012 C 
HETATM   16  C   UNK N   1      37.071  12.168  14.636  0.00  0.00     0.016 C 
HETATM   17  C   UNK N   1      37.107   9.709  16.204  0.00  0.00     0.025 C 
HETATM   18  C   UNK N   1      34.756  10.678  15.965  0.00  0.00     0.007 C 
HETATM   19  C   UNK N   1      36.555   8.784  17.308  0.00  0.00     0.070 C 
HETATM   20  C   UNK N   1      38.370   9.176  15.509  0.00  0.00     0.008 C 
HETATM   21  C   UNK N   1      35.406   9.499  18.031  0.00  0.00    -0.005 C 
HETATM   22  C   UNK N   1      37.464   8.404  18.474  0.00  0.00     0.040 C 
HETATM   23  C   UNK N   1      34.252   9.776  17.077  0.00  0.00     0.013 C 
HETATM   24  C   UNK N   1      35.089   8.496  19.112  0.00  0.00     0.028 C 
HETATM   25  C   UNK N   1      35.857  10.837  18.676  0.00  0.00     0.019 C 
HETATM   26  C   UNK N   1      36.483   8.101  19.637  0.00  0.00     0.013 C 
HETATM   27  C   UNK N   1      34.637  10.391  12.320  0.00  0.00     0.033 C 
BRANCH  19  28
HETATM   28  O   UNK N   1      36.104   7.592  16.717  0.00  0.00    -0.389 OA
HETATM   29  H   UNK N   1      35.593   6.774  16.608  0.00  0.00     0.210 HD
ENDBRANCH  19  28
BRANCH  24  30
HETATM   30  C   UNK N   1      34.074   9.020  20.094  0.00  0.00    -0.045 A 
HETATM   31  C   UNK N   1      32.605   8.639  20.046  0.00  0.00     0.213 A 
HETATM   32  O   UNK N   1      32.067   9.398  21.064  0.00  0.00    -0.314 OA
HETATM   33  C   UNK N   1      33.022  10.127  21.663  0.00  0.00     0.283 A 
HETATM   34  O   UNK N   1      32.810  10.883  22.585  0.00  0.00    -0.260 OA
HETATM   35  C   UNK N   1      34.307   9.899  21.052  0.00  0.00     0.087 A 
ENDBRANCH  24  30
ENDBRANCH   8   9
ENDBRANCH   2   8
BRANCH   4  36
HETATM   36  O   UNK N   1      36.144  11.148   7.846  0.00  0.00    -0.393 OA
HETATM   37  H   UNK N   1      35.872  10.483   7.194  0.00  0.00     0.210 HD
ENDBRANCH   4  36
BRANCH   6  38
HETATM   38  O   UNK N   1      35.088  13.487   8.434  0.00  0.00    -0.351 OA
BRANCH  38  39
HETATM   39  C   UNK N   1      34.818  14.237   7.259  0.00  0.00     0.263 C 
HETATM   40  O   UNK N   1      34.983  15.626   7.448  0.00  0.00    -0.354 OA
HETATM   41  C   UNK N   1      33.992  16.039   8.354  0.00  0.00     0.152 C 
HETATM   42  C   UNK N   1      32.573  15.918   7.788  0.00  0.00     0.182 C 
HETATM   43  C   UNK N   1      34.311  17.400   8.945  0.00  0.00     0.042 C 
HETATM   44  C   UNK N   1      32.333  14.498   7.185  0.00  0.00     0.154 C 
HETATM   45  C   UNK N   1      33.545  13.919   6.454  0.00  0.00     0.095 C 
BRANCH  42  46
HETATM   46  O   UNK N   1      32.221  17.089   7.078  0.00  0.00    -0.351 OA
BRANCH  46  47
HETATM   47  C   UNK N   1      31.047  17.690   7.530  0.00  0.00     0.263 C 
HETATM   48  O   UNK N   1      30.060  17.503   6.528  0.00  0.00    -0.354 OA
HETATM   49  C   UNK N   1      28.749  17.864   6.941  0.00  0.00     0.151 C 
HETATM   50  C   UNK N   1      28.702  18.653   8.261  0.00  0.00     0.175 C 
HETATM   51  C   UNK N   1      27.881  16.614   6.999  0.00  0.00     0.042 C 
HETATM   52  C   UNK N   1      29.358  17.845   9.384  0.00  0.00     0.154 C 
HETATM   53  C   UNK N   1      30.603  17.110   8.880  0.00  0.00     0.095 C 
BRANCH  50  54
HETATM   54  O   UNK N   1      27.399  19.016   8.596  0.00  0.00    -0.390 OA
HETATM   55  H   UNK N   1      26.640  18.462   8.355  0.00  0.00     0.210 HD
ENDBRANCH  50  54
BRANCH  52  56
HETATM   56  O   UNK N   1      29.697  18.701  10.432  0.00  0.00    -0.393 OA
HETATM   57  H   UNK N   1      29.574  18.432  11.356  0.00  0.00     0.210 HD
ENDBRANCH  52  56
ENDBRANCH  46  47
ENDBRANCH  42  46
BRANCH  44  58
HETATM   58  O   UNK N   1      31.169  14.387   6.426  0.00  0.00    -0.393 OA
HETATM   59  H   UNK N   1      30.926  14.403   5.487  0.00  0.00     0.210 HD
ENDBRANCH  44  58
ENDBRANCH  38  39
ENDBRANCH   6  38
TORSDOF 12
ENDMDL
MODEL 4
REMARK VINA RESULT:      -8.7      4.513     12.261
REMARK  12 active torsions:
REMARK  status: ('A' for Active; 'I' for Inactive)
REMARK    1  A    between atoms: C_14  and  O_1 
REMARK    2  A    between atoms: C_32  and  O_2 
REMARK    3  A    between atoms: C_36  and  O_2 
REMARK    4  A    between atoms: C_39  and  O_6 
REMARK    5  A    between atoms: C_41  and  O_7 
REMARK    6  A    between atoms: C_43  and  O_7 
REMARK    7  A    between atoms: C_47  and  O_9 
REMARK    8  A    between atoms: C_49  and  O_9 
REMARK    9  A    between atoms: C_45  and  O_10 
REMARK   10  A    between atoms: C_51  and  O_12 
REMARK   11  A    between atoms: C_53  and  O_13 
REMARK   12  A    between atoms: C_22  and  C_33 
ROOT
HETATM    1  O   UNK N   1      32.865  14.854   3.171  0.00  0.00    -0.354 OA
HETATM    2  C   UNK N   1      32.032  15.997   3.268  0.00  0.00     0.263 C 
HETATM    3  C   UNK N   1      32.992  17.141   3.474  0.00  0.00     0.095 C 
HETATM    4  C   UNK N   1      33.533  17.005   4.891  0.00  0.00     0.154 C 
HETATM    5  C   UNK N   1      33.239  14.425   4.456  0.00  0.00     0.152 C 
HETATM    6  C   UNK N   1      33.857  15.529   5.324  0.00  0.00     0.182 C 
HETATM    7  C   UNK N   1      34.191  13.249   4.352  0.00  0.00     0.042 C 
ENDROOT
BRANCH   2   8
HETATM    8  O   UNK N   1      31.123  15.963   4.374  0.00  0.00    -0.356 OA
BRANCH   8   9
HETATM    9  C   UNK N   1      29.907  16.659   4.197  0.00  0.00     0.125 C 
HETATM   10  C   UNK N   1      29.091  16.316   2.966  0.00  0.00     0.037 C 
HETATM   11  C   UNK N   1      28.331  14.997   3.088  0.00  0.00    -0.004 C 
HETATM   12  C   UNK N   1      27.706  14.754   4.520  0.00  0.00    -0.036 C 
HETATM   13  C   UNK N   1      27.296  15.108   1.951  0.00  0.00     0.006 C 
HETATM   14  C   UNK N   1      26.299  15.336   4.574  0.00  0.00     0.001 C 
HETATM   15  C   UNK N   1      28.512  15.348   5.690  0.00  0.00     0.012 C 
HETATM   16  C   UNK N   1      27.668  13.249   4.797  0.00  0.00     0.016 C 
HETATM   17  C   UNK N   1      25.364  14.565   3.586  0.00  0.00     0.025 C 
HETATM   18  C   UNK N   1      25.734  15.284   6.009  0.00  0.00     0.007 C 
HETATM   19  C   UNK N   1      23.972  15.224   3.660  0.00  0.00     0.070 C 
HETATM   20  C   UNK N   1      25.932  14.452   2.163  0.00  0.00     0.008 C 
HETATM   21  C   UNK N   1      23.448  15.125   5.099  0.00  0.00    -0.005 C 
HETATM   22  C   UNK N   1      22.821  14.607   2.871  0.00  0.00     0.040 C 
HETATM   23  C   UNK N   1      24.346  15.895   6.059  0.00  0.00     0.013 C 
HETATM   24  C   UNK N   1      22.069  15.714   4.935  0.00  0.00     0.028 C 
HETATM   25  C   UNK N   1      23.335  13.656   5.586  0.00  0.00     0.019 C 
HETATM   26  C   UNK N   1      21.551  15.031   3.655  0.00  0.00     0.013 C 
HETATM   27  C   UNK N   1      29.043  16.735   5.433  0.00  0.00     0.033 C 
BRANCH  19  28
HETATM   28  O   UNK N   1      24.084  16.567   3.264  0.00  0.00    -0.389 OA
HETATM   29  H   UNK N   1      23.804  17.459   3.004  0.00  0.00     0.210 HD
ENDBRANCH  19  28
BRANCH  24  30
HETATM   30  C   UNK N   1      21.248  15.597   6.193  0.00  0.00    -0.045 A 
HETATM   31  C   UNK N   1      20.419  14.370   6.528  0.00  0.00     0.213 A 
HETATM   32  O   UNK N   1      19.802  14.739   7.704  0.00  0.00    -0.314 OA
HETATM   33  C   UNK N   1      20.175  15.977   8.065  0.00  0.00     0.283 A 
HETATM   34  O   UNK N   1      19.771  16.538   9.058  0.00  0.00    -0.260 OA
HETATM   35  C   UNK N   1      21.095  16.539   7.108  0.00  0.00     0.087 A 
ENDBRANCH  24  30
ENDBRANCH   8   9
ENDBRANCH   2   8
BRANCH   4  36
HETATM   36  O   UNK N   1      32.624  17.611   5.762  0.00  0.00    -0.393 OA
HETATM   37  H   UNK N   1      32.463  17.924   6.665  0.00  0.00     0.210 HD
ENDBRANCH   4  36
BRANCH   6  38
HETATM   38  O   UNK N   1      33.435  15.269   6.650  0.00  0.00    -0.351 OA
BRANCH  38  39
HETATM   39  C   UNK N   1      34.443  15.513   7.620  0.00  0.00     0.263 C 
HETATM   40  O   UNK N   1      35.406  14.483   7.677  0.00  0.00    -0.354 OA
HETATM   41  C   UNK N   1      34.752  13.332   8.144  0.00  0.00     0.152 C 
HETATM   42  C   UNK N   1      34.275  13.460   9.595  0.00  0.00     0.182 C 
HETATM   43  C   UNK N   1      35.562  12.079   7.866  0.00  0.00     0.042 C 
HETATM   44  C   UNK N   1      33.467  14.781   9.801  0.00  0.00     0.154 C 
HETATM   45  C   UNK N   1      34.021  15.976   9.026  0.00  0.00     0.095 C 
BRANCH  42  46
HETATM   46  O   UNK N   1      35.300  13.076  10.490  0.00  0.00    -0.351 OA
BRANCH  46  47
HETATM   47  C   UNK N   1      34.831  12.487  11.664  0.00  0.00     0.263 C 
HETATM   48  O   UNK N   1      34.728  11.091  11.427  0.00  0.00    -0.354 OA
HETATM   49  C   UNK N   1      34.479  10.329  12.601  0.00  0.00     0.151 C 
HETATM   50  C   UNK N   1      34.078  11.172  13.823  0.00  0.00     0.175 C 
HETATM   51  C   UNK N   1      35.688   9.450  12.891  0.00  0.00     0.042 C 
HETATM   52  C   UNK N   1      35.168  12.200  14.137  0.00  0.00     0.154 C 
HETATM   53  C   UNK N   1      35.753  12.795  12.852  0.00  0.00     0.095 C 
BRANCH  50  54
HETATM   54  O   UNK N   1      33.807  10.372  14.932  0.00  0.00    -0.390 OA
HETATM   55  H   UNK N   1      34.373  10.388  15.719  0.00  0.00     0.210 HD
ENDBRANCH  50  54
BRANCH  52  56
HETATM   56  O   UNK N   1      34.635  13.212  14.935  0.00  0.00    -0.393 OA
HETATM   57  H   UNK N   1      34.874  13.288  15.872  0.00  0.00     0.210 HD
ENDBRANCH  52  56
ENDBRANCH  46  47
ENDBRANCH  42  46
BRANCH  44  58
HETATM   58  O   UNK N   1      33.220  15.099  11.136  0.00  0.00    -0.393 OA
HETATM   59  H   UNK N   1      32.854  14.656  11.918  0.00  0.00     0.210 HD
ENDBRANCH  44  58
ENDBRANCH  38  39
ENDBRANCH   6  38
TORSDOF 12
ENDMDL
MODEL 5
REMARK VINA RESULT:      -8.7      3.399      5.388
REMARK  12 active torsions:
REMARK  status: ('A' for Active; 'I' for Inactive)
REMARK    1  A    between atoms: C_14  and  O_1 
REMARK    2  A    between atoms: C_32  and  O_2 
REMARK    3  A    between atoms: C_36  and  O_2 
REMARK    4  A    between atoms: C_39  and  O_6 
REMARK    5  A    between atoms: C_41  and  O_7 
REMARK    6  A    between atoms: C_43  and  O_7 
REMARK    7  A    between atoms: C_47  and  O_9 
REMARK    8  A    between atoms: C_49  and  O_9 
REMARK    9  A    between atoms: C_45  and  O_10 
REMARK   10  A    between atoms: C_51  and  O_12 
REMARK   11  A    between atoms: C_53  and  O_13 
REMARK   12  A    between atoms: C_22  and  C_33 
ROOT
HETATM    1  O   UNK N   1      32.206  17.688   8.580  0.00  0.00    -0.354 OA
HETATM    2  C   UNK N   1      33.554  17.251   8.618  0.00  0.00     0.263 C 
HETATM    3  C   UNK N   1      34.243  18.071   7.558  0.00  0.00     0.095 C 
HETATM    4  C   UNK N   1      33.762  17.538   6.215  0.00  0.00     0.154 C 
HETATM    5  C   UNK N   1      31.530  17.054   7.523  0.00  0.00     0.152 C 
HETATM    6  C   UNK N   1      32.230  17.189   6.165  0.00  0.00     0.182 C 
HETATM    7  C   UNK N   1      30.109  17.577   7.432  0.00  0.00     0.042 C 
ENDROOT
BRANCH   2   8
HETATM    8  O   UNK N   1      33.727  15.865   8.304  0.00  0.00    -0.356 OA
BRANCH   8   9
HETATM    9  C   UNK N   1      33.149  14.948   9.208  0.00  0.00     0.125 C 
HETATM   10  C   UNK N   1      33.371  13.474   8.929  0.00  0.00     0.037 C 
HETATM   11  C   UNK N   1      34.768  12.986   9.308  0.00  0.00    -0.004 C 
HETATM   12  C   UNK N   1      35.312  13.605  10.657  0.00  0.00    -0.036 C 
HETATM   13  C   UNK N   1      34.584  11.456   9.338  0.00  0.00     0.006 C 
HETATM   14  C   UNK N   1      34.906  12.723  11.831  0.00  0.00     0.001 C 
HETATM   15  C   UNK N   1      34.836  15.039  10.953  0.00  0.00     0.012 C 
HETATM   16  C   UNK N   1      36.838  13.710  10.577  0.00  0.00     0.016 C 
HETATM   17  C   UNK N   1      35.601  11.327  11.714  0.00  0.00     0.025 C 
HETATM   18  C   UNK N   1      35.258  13.395  13.175  0.00  0.00     0.007 C 
HETATM   19  C   UNK N   1      35.121  10.473  12.906  0.00  0.00     0.070 C 
HETATM   20  C   UNK N   1      35.412  10.659  10.344  0.00  0.00     0.008 C 
HETATM   21  C   UNK N   1      35.514  11.173  14.213  0.00  0.00    -0.005 C 
HETATM   22  C   UNK N   1      35.721   9.085  13.107  0.00  0.00     0.040 C 
HETATM   23  C   UNK N   1      34.820  12.523  14.338  0.00  0.00     0.013 C 
HETATM   24  C   UNK N   1      35.061  10.149  15.225  0.00  0.00     0.028 C 
HETATM   25  C   UNK N   1      37.047  11.383  14.332  0.00  0.00     0.019 C 
HETATM   26  C   UNK N   1      35.575   8.825  14.630  0.00  0.00     0.013 C 
HETATM   27  C   UNK N   1      33.375  15.277  10.665  0.00  0.00     0.033 C 
BRANCH  19  28
HETATM   28  O   UNK N   1      33.726  10.323  12.824  0.00  0.00    -0.389 OA
HETATM   29  H   UNK N   1      32.866  10.052  12.466  0.00  0.00     0.210 HD
ENDBRANCH  19  28
BRANCH  24  30
HETATM   30  C   UNK N   1      35.475  10.515  16.627  0.00  0.00    -0.045 A 
HETATM   31  C   UNK N   1      36.419   9.664  17.458  0.00  0.00     0.213 A 
HETATM   32  O   UNK N   1      36.445  10.336  18.661  0.00  0.00    -0.314 OA
HETATM   33  C   UNK N   1      35.665  11.427  18.609  0.00  0.00     0.283 A 
HETATM   34  O   UNK N   1      35.510  12.188  19.538  0.00  0.00    -0.260 OA
HETATM   35  C   UNK N   1      35.036  11.552  17.318  0.00  0.00     0.087 A 
ENDBRANCH  24  30
ENDBRANCH   8   9
ENDBRANCH   2   8
BRANCH   4  36
HETATM   36  O   UNK N   1      34.554  16.437   5.878  0.00  0.00    -0.393 OA
HETATM   37  H   UNK N   1      34.603  15.471   5.817  0.00  0.00     0.210 HD
ENDBRANCH   4  36
BRANCH   6  38
HETATM   38  O   UNK N   1      31.993  15.975   5.477  0.00  0.00    -0.351 OA
BRANCH  38  39
HETATM   39  C   UNK N   1      31.838  16.144   4.076  0.00  0.00     0.263 C 
HETATM   40  O   UNK N   1      30.737  16.962   3.743  0.00  0.00    -0.354 OA
HETATM   41  C   UNK N   1      29.577  16.275   4.137  0.00  0.00     0.152 C 
HETATM   42  C   UNK N   1      29.333  14.997   3.327  0.00  0.00     0.182 C 
HETATM   43  C   UNK N   1      28.378  17.202   4.210  0.00  0.00     0.042 C 
HETATM   44  C   UNK N   1      30.618  14.110   3.287  0.00  0.00     0.154 C 
HETATM   45  C   UNK N   1      31.919  14.903   3.168  0.00  0.00     0.095 C 
BRANCH  42  46
HETATM   46  O   UNK N   1      28.600  15.286   2.154  0.00  0.00    -0.351 OA
BRANCH  46  47
HETATM   47  C   UNK N   1      27.468  14.489   1.987  0.00  0.00     0.263 C 
HETATM   48  O   UNK N   1      27.476  13.515   3.019  0.00  0.00    -0.354 OA
HETATM   49  C   UNK N   1      26.268  12.772   3.114  0.00  0.00     0.151 C 
HETATM   50  C   UNK N   1      25.323  12.955   1.915  0.00  0.00     0.175 C 
HETATM   51  C   UNK N   1      25.581  13.103   4.432  0.00  0.00     0.042 C 
HETATM   52  C   UNK N   1      24.968  14.434   1.742  0.00  0.00     0.154 C 
HETATM   53  C   UNK N   1      26.183  15.328   2.007  0.00  0.00     0.095 C 
BRANCH  50  54
HETATM   54  O   UNK N   1      24.176  12.174   2.041  0.00  0.00    -0.390 OA
HETATM   55  H   UNK N   1      23.475  12.190   1.371  0.00  0.00     0.210 HD
ENDBRANCH  50  54
BRANCH  52  56
HETATM   56  O   UNK N   1      24.488  14.647   0.449  0.00  0.00    -0.393 OA
HETATM   57  H   UNK N   1      24.054  15.481   0.208  0.00  0.00     0.210 HD
ENDBRANCH  52  56
ENDBRANCH  46  47
ENDBRANCH  42  46
BRANCH  44  58
HETATM   58  O   UNK N   1      30.563  13.064   2.366  0.00  0.00    -0.393 OA
HETATM   59  H   UNK N   1      29.941  12.360   2.123  0.00  0.00     0.210 HD
ENDBRANCH  44  58
ENDBRANCH  38  39
ENDBRANCH   6  38
TORSDOF 12
ENDMDL
MODEL 6
REMARK VINA RESULT:      -8.5      3.096      6.514
REMARK  12 active torsions:
REMARK  status: ('A' for Active; 'I' for Inactive)
REMARK    1  A    between atoms: C_14  and  O_1 
REMARK    2  A    between atoms: C_32  and  O_2 
REMARK    3  A    between atoms: C_36  and  O_2 
REMARK    4  A    between atoms: C_39  and  O_6 
REMARK    5  A    between atoms: C_41  and  O_7 
REMARK    6  A    between atoms: C_43  and  O_7 
REMARK    7  A    between atoms: C_47  and  O_9 
REMARK    8  A    between atoms: C_49  and  O_9 
REMARK    9  A    between atoms: C_45  and  O_10 
REMARK   10  A    between atoms: C_51  and  O_12 
REMARK   11  A    between atoms: C_53  and  O_13 
REMARK   12  A    between atoms: C_22  and  C_33 
ROOT
HETATM    1  O   UNK N   1      32.122  17.548   8.537  0.00  0.00    -0.354 OA
HETATM    2  C   UNK N   1      33.493  17.251   8.736  0.00  0.00     0.263 C 
HETATM    3  C   UNK N   1      34.212  18.110   7.728  0.00  0.00     0.095 C 
HETATM    4  C   UNK N   1      33.937  17.501   6.361  0.00  0.00     0.154 C 
HETATM    5  C   UNK N   1      31.632  16.825   7.436  0.00  0.00     0.152 C 
HETATM    6  C   UNK N   1      32.461  16.999   6.158  0.00  0.00     0.182 C 
HETATM    7  C   UNK N   1      30.185  17.200   7.174  0.00  0.00     0.042 C 
ENDROOT
BRANCH   2   8
HETATM    8  O   UNK N   1      33.834  15.882   8.489  0.00  0.00    -0.356 OA
BRANCH   8   9
HETATM    9  C   UNK N   1      33.256  14.933   9.360  0.00  0.00     0.125 C 
HETATM   10  C   UNK N   1      33.511  13.471   9.051  0.00  0.00     0.037 C 
HETATM   11  C   UNK N   1      34.910  13.000   9.448  0.00  0.00    -0.004 C 
HETATM   12  C   UNK N   1      35.415  13.597  10.822  0.00  0.00    -0.036 C 
HETATM   13  C   UNK N   1      34.754  11.467   9.438  0.00  0.00     0.006 C 
HETATM   14  C   UNK N   1      35.002  12.680  11.966  0.00  0.00     0.001 C 
HETATM   15  C   UNK N   1      34.905  15.015  11.141  0.00  0.00     0.012 C 
HETATM   16  C   UNK N   1      36.939  13.732  10.775  0.00  0.00     0.016 C 
HETATM   17  C   UNK N   1      35.725  11.301  11.832  0.00  0.00     0.025 C 
HETATM   18  C   UNK N   1      35.313  13.327  13.333  0.00  0.00     0.007 C 
HETATM   19  C   UNK N   1      35.237  10.410  12.993  0.00  0.00     0.070 C 
HETATM   20  C   UNK N   1      35.577  10.661  10.443  0.00  0.00     0.008 C 
HETATM   21  C   UNK N   1      35.590  11.086  14.324  0.00  0.00    -0.005 C 
HETATM   22  C   UNK N   1      35.860   9.028  13.174  0.00  0.00     0.040 C 
HETATM   23  C   UNK N   1      34.869  12.420  14.465  0.00  0.00     0.013 C 
HETATM   24  C   UNK N   1      35.137  10.030  15.302  0.00  0.00     0.028 C 
HETATM   25  C   UNK N   1      37.117  11.322  14.479  0.00  0.00     0.019 C 
HETATM   26  C   UNK N   1      35.688   8.730  14.687  0.00  0.00     0.013 C 
HETATM   27  C   UNK N   1      33.446  15.232  10.828  0.00  0.00     0.033 C 
BRANCH  19  28
HETATM   28  O   UNK N   1      33.848  10.236  12.878  0.00  0.00    -0.389 OA
HETATM   29  H   UNK N   1      32.958  10.292  12.495  0.00  0.00     0.210 HD
ENDBRANCH  19  28
BRANCH  24  30
HETATM   30  C   UNK N   1      35.516  10.370  16.720  0.00  0.00    -0.045 A 
HETATM   31  C   UNK N   1      35.048  11.634  17.420  0.00  0.00     0.213 A 
HETATM   32  O   UNK N   1      35.687  11.553  18.639  0.00  0.00    -0.314 OA
HETATM   33  C   UNK N   1      36.424  10.434  18.712  0.00  0.00     0.283 A 
HETATM   34  O   UNK N   1      37.088  10.128  19.678  0.00  0.00    -0.260 OA
HETATM   35  C   UNK N   1      36.327   9.671  17.493  0.00  0.00     0.087 A 
ENDBRANCH  24  30
ENDBRANCH   8   9
ENDBRANCH   2   8
BRANCH   4  36
HETATM   36  O   UNK N   1      34.864  16.478   6.148  0.00  0.00    -0.393 OA
HETATM   37  H   UNK N   1      35.568  16.136   5.574  0.00  0.00     0.210 HD
ENDBRANCH   4  36
BRANCH   6  38
HETATM   38  O   UNK N   1      32.421  15.751   5.490  0.00  0.00    -0.351 OA
BRANCH  38  39
HETATM   39  C   UNK N   1      31.918  15.838   4.165  0.00  0.00     0.263 C 
HETATM   40  O   UNK N   1      31.134  14.722   3.804  0.00  0.00    -0.354 OA
HETATM   41  C   UNK N   1      31.989  13.608   3.775  0.00  0.00     0.152 C 
HETATM   42  C   UNK N   1      33.038  13.687   2.660  0.00  0.00     0.182 C 
HETATM   43  C   UNK N   1      31.209  12.307   3.803  0.00  0.00     0.042 C 
HETATM   44  C   UNK N   1      33.780  15.060   2.690  0.00  0.00     0.154 C 
HETATM   45  C   UNK N   1      32.881  16.246   3.035  0.00  0.00     0.095 C 
BRANCH  42  46
HETATM   46  O   UNK N   1      32.523  13.153   1.457  0.00  0.00    -0.351 OA
BRANCH  46  47
HETATM   47  C   UNK N   1      33.408  12.302   0.794  0.00  0.00     0.263 C 
HETATM   48  O   UNK N   1      34.055  13.063  -0.214  0.00  0.00    -0.354 OA
HETATM   49  C   UNK N   1      35.148  12.390  -0.825  0.00  0.00     0.151 C 
HETATM   50  C   UNK N   1      35.225  10.890  -0.494  0.00  0.00     0.175 C 
HETATM   51  C   UNK N   1      36.440  13.115  -0.473  0.00  0.00     0.042 C 
HETATM   52  C   UNK N   1      35.318  10.686   1.020  0.00  0.00     0.154 C 
HETATM   53  C   UNK N   1      34.415  11.673   1.766  0.00  0.00     0.095 C 
BRANCH  50  54
HETATM   54  O   UNK N   1      36.289  10.273  -1.151  0.00  0.00    -0.390 OA
HETATM   55  H   UNK N   1      36.162   9.467  -1.676  0.00  0.00     0.210 HD
ENDBRANCH  50  54
BRANCH  52  56
HETATM   56  O   UNK N   1      34.959   9.375   1.334  0.00  0.00    -0.393 OA
HETATM   57  H   UNK N   1      34.344   9.185   2.060  0.00  0.00     0.210 HD
ENDBRANCH  52  56
ENDBRANCH  46  47
ENDBRANCH  42  46
BRANCH  44  58
HETATM   58  O   UNK N   1      34.562  15.312   1.563  0.00  0.00    -0.393 OA
HETATM   59  H   UNK N   1      35.083  14.797   0.927  0.00  0.00     0.210 HD
ENDBRANCH  44  58
ENDBRANCH  38  39
ENDBRANCH   6  38
TORSDOF 12
ENDMDL
MODEL 7
REMARK VINA RESULT:      -8.5      2.458      4.407
REMARK  12 active torsions:
REMARK  status: ('A' for Active; 'I' for Inactive)
REMARK    1  A    between atoms: C_14  and  O_1 
REMARK    2  A    between atoms: C_32  and  O_2 
REMARK    3  A    between atoms: C_36  and  O_2 
REMARK    4  A    between atoms: C_39  and  O_6 
REMARK    5  A    between atoms: C_41  and  O_7 
REMARK    6  A    between atoms: C_43  and  O_7 
REMARK    7  A    between atoms: C_47  and  O_9 
REMARK    8  A    between atoms: C_49  and  O_9 
REMARK    9  A    between atoms: C_45  and  O_10 
REMARK   10  A    between atoms: C_51  and  O_12 
REMARK   11  A    between atoms: C_53  and  O_13 
REMARK   12  A    between atoms: C_22  and  C_33 
ROOT
HETATM    1  O   UNK N   1      38.687  10.191  10.315  0.00  0.00    -0.354 OA
HETATM    2  C   UNK N   1      37.827   9.798  11.372  0.00  0.00     0.263 C 
HETATM    3  C   UNK N   1      36.562   9.361  10.680  0.00  0.00     0.095 C 
HETATM    4  C   UNK N   1      35.890  10.625  10.161  0.00  0.00     0.154 C 
HETATM    5  C   UNK N   1      38.361  11.491   9.894  0.00  0.00     0.152 C 
HETATM    6  C   UNK N   1      36.879  11.680   9.545  0.00  0.00     0.182 C 
HETATM    7  C   UNK N   1      39.229  11.884   8.712  0.00  0.00     0.042 C 
ENDROOT
BRANCH   2   8
HETATM    8  O   UNK N   1      37.504  10.854  12.283  0.00  0.00    -0.356 OA
BRANCH   8   9
HETATM    9  C   UNK N   1      37.930  10.673  13.617  0.00  0.00     0.125 C 
HETATM   10  C   UNK N   1      37.628  11.794  14.593  0.00  0.00     0.037 C 
HETATM   11  C   UNK N   1      36.171  11.826  15.051  0.00  0.00    -0.004 C 
HETATM   12  C   UNK N   1      35.554  10.394  15.307  0.00  0.00    -0.036 C 
HETATM   13  C   UNK N   1      36.241  12.723  16.302  0.00  0.00     0.006 C 
HETATM   14  C   UNK N   1      35.787   9.982  16.755  0.00  0.00     0.001 C 
HETATM   15  C   UNK N   1      36.104   9.277  14.400  0.00  0.00     0.012 C 
HETATM   16  C   UNK N   1      34.053  10.438  15.004  0.00  0.00     0.016 C 
HETATM   17  C   UNK N   1      35.007  10.939  17.714  0.00  0.00     0.025 C 
HETATM   18  C   UNK N   1      35.366   8.516  16.987  0.00  0.00     0.007 C 
HETATM   19  C   UNK N   1      35.315  10.494  19.158  0.00  0.00     0.070 C 
HETATM   20  C   UNK N   1      35.269  12.429  17.444  0.00  0.00     0.008 C 
HETATM   21  C   UNK N   1      34.857   9.041  19.343  0.00  0.00    -0.005 C 
HETATM   22  C   UNK N   1      34.600  11.191  20.313  0.00  0.00     0.040 C 
HETATM   23  C   UNK N   1      35.632   8.106  18.424  0.00  0.00     0.013 C 
HETATM   24  C   UNK N   1      35.141   8.843  20.811  0.00  0.00     0.028 C 
HETATM   25  C   UNK N   1      33.339   8.863  19.075  0.00  0.00     0.019 C 
HETATM   26  C   UNK N   1      34.589  10.132  21.447  0.00  0.00     0.013 C 
HETATM   27  C   UNK N   1      37.598   9.322  14.203  0.00  0.00     0.033 C 
BRANCH  19  28
HETATM   28  O   UNK N   1      36.697  10.611  19.385  0.00  0.00    -0.389 OA
HETATM   29  H   UNK N   1      37.607  10.337  19.579  0.00  0.00     0.210 HD
ENDBRANCH  19  28
BRANCH  24  30
HETATM   30  C   UNK N   1      34.630   7.518  21.314  0.00  0.00    -0.045 A 
HETATM   31  C   UNK N   1      33.379   7.383  22.163  0.00  0.00     0.213 A 
HETATM   32  O   UNK N   1      33.349   6.033  22.440  0.00  0.00    -0.314 OA
HETATM   33  C   UNK N   1      34.389   5.411  21.863  0.00  0.00     0.283 A 
HETATM   34  O   UNK N   1      34.597   4.222  21.956  0.00  0.00    -0.260 OA
HETATM   35  C   UNK N   1      35.218   6.347  21.145  0.00  0.00     0.087 A 
ENDBRANCH  24  30
ENDBRANCH   8   9
ENDBRANCH   2   8
BRANCH   4  36
HETATM   36  O   UNK N   1      35.133  11.171  11.200  0.00  0.00    -0.393 OA
HETATM   37  H   UNK N   1      35.094  11.372  12.148  0.00  0.00     0.210 HD
ENDBRANCH   4  36
BRANCH   6  38
HETATM   38  O   UNK N   1      36.548  12.999   9.939  0.00  0.00    -0.351 OA
BRANCH  38  39
HETATM   39  C   UNK N   1      35.862  13.730   8.932  0.00  0.00     0.263 C 
HETATM   40  O   UNK N   1      35.845  15.119   9.184  0.00  0.00    -0.354 OA
HETATM   41  C   UNK N   1      35.074  15.320  10.340  0.00  0.00     0.152 C 
HETATM   42  C   UNK N   1      33.594  14.970  10.143  0.00  0.00     0.182 C 
HETATM   43  C   UNK N   1      35.313  16.694  10.938  0.00  0.00     0.042 C 
HETATM   44  C   UNK N   1      33.437  13.552   9.509  0.00  0.00     0.154 C 
HETATM   45  C   UNK N   1      34.491  13.222   8.453  0.00  0.00     0.095 C 
BRANCH  42  46
HETATM   46  O   UNK N   1      32.885  16.085   9.641  0.00  0.00    -0.351 OA
BRANCH  46  47
HETATM   47  C   UNK N   1      32.823  16.133   8.248  0.00  0.00     0.263 C 
HETATM   48  O   UNK N   1      31.491  15.821   7.871  0.00  0.00    -0.354 OA
HETATM   49  C   UNK N   1      31.218  16.051   6.495  0.00  0.00     0.151 C 
HETATM   50  C   UNK N   1      32.472  16.299   5.639  0.00  0.00     0.175 C 
HETATM   51  C   UNK N   1      30.212  17.187   6.369  0.00  0.00     0.042 C 
HETATM   52  C   UNK N   1      33.255  17.497   6.183  0.00  0.00     0.154 C 
HETATM   53  C   UNK N   1      33.259  17.505   7.714  0.00  0.00     0.095 C 
BRANCH  50  54
HETATM   54  O   UNK N   1      32.149  16.477   4.295  0.00  0.00    -0.390 OA
HETATM   55  H   UNK N   1      31.517  15.895   3.844  0.00  0.00     0.210 HD
ENDBRANCH  50  54
BRANCH  52  56
HETATM   56  O   UNK N   1      34.562  17.453   5.700  0.00  0.00    -0.393 OA
HETATM   57  H   UNK N   1      34.781  17.791   4.817  0.00  0.00     0.210 HD
ENDBRANCH  52  56
ENDBRANCH  46  47
ENDBRANCH  42  46
BRANCH  44  58
HETATM   58  O   UNK N   1      32.148  13.265   9.062  0.00  0.00    -0.393 OA
HETATM   59  H   UNK N   1      31.364  13.762   8.781  0.00  0.00     0.210 HD
ENDBRANCH  44  58
ENDBRANCH  38  39
ENDBRANCH   6  38
TORSDOF 12
ENDMDL
MODEL 8
REMARK VINA RESULT:      -8.5      1.978      2.706
REMARK  12 active torsions:
REMARK  status: ('A' for Active; 'I' for Inactive)
REMARK    1  A    between atoms: C_14  and  O_1 
REMARK    2  A    between atoms: C_32  and  O_2 
REMARK    3  A    between atoms: C_36  and  O_2 
REMARK    4  A    between atoms: C_39  and  O_6 
REMARK    5  A    between atoms: C_41  and  O_7 
REMARK    6  A    between atoms: C_43  and  O_7 
REMARK    7  A    between atoms: C_47  and  O_9 
REMARK    8  A    between atoms: C_49  and  O_9 
REMARK    9  A    between atoms: C_45  and  O_10 
REMARK   10  A    between atoms: C_51  and  O_12 
REMARK   11  A    between atoms: C_53  and  O_13 
REMARK   12  A    between atoms: C_22  and  C_33 
ROOT
HETATM    1  O   UNK N   1      36.085  11.185   3.339  0.00  0.00    -0.354 OA
HETATM    2  C   UNK N   1      35.849  10.859   4.698  0.00  0.00     0.263 C 
HETATM    3  C   UNK N   1      34.483  10.223   4.698  0.00  0.00     0.095 C 
HETATM    4  C   UNK N   1      33.481  11.342   4.448  0.00  0.00     0.154 C 
HETATM    5  C   UNK N   1      35.428  12.385   3.015  0.00  0.00     0.152 C 
HETATM    6  C   UNK N   1      33.936  12.392   3.370  0.00  0.00     0.182 C 
HETATM    7  C   UNK N   1      35.615  12.695   1.542  0.00  0.00     0.042 C 
ENDROOT
BRANCH   2   8
HETATM    8  O   UNK N   1      35.821  11.992   5.573  0.00  0.00    -0.356 OA
BRANCH   8   9
HETATM    9  C   UNK N   1      36.721  11.957   6.660  0.00  0.00     0.125 C 
HETATM   10  C   UNK N   1      36.930  13.252   7.421  0.00  0.00     0.037 C 
HETATM   11  C   UNK N   1      35.781  13.595   8.368  0.00  0.00    -0.004 C 
HETATM   12  C   UNK N   1      35.190  12.341   9.128  0.00  0.00    -0.036 C 
HETATM   13  C   UNK N   1      36.419  14.655   9.287  0.00  0.00     0.006 C 
HETATM   14  C   UNK N   1      35.938  12.132  10.438  0.00  0.00     0.001 C 
HETATM   15  C   UNK N   1      35.235  11.021   8.337  0.00  0.00     0.012 C 
HETATM   16  C   UNK N   1      33.702  12.581   9.400  0.00  0.00     0.016 C 
HETATM   17  C   UNK N   1      35.689  13.343  11.395  0.00  0.00     0.025 C 
HETATM   18  C   UNK N   1      35.513  10.810  11.112  0.00  0.00     0.007 C 
HETATM   19  C   UNK N   1      36.501  13.088  12.681  0.00  0.00     0.070 C 
HETATM   20  C   UNK N   1      35.956  14.708  10.742  0.00  0.00     0.008 C 
HETATM   21  C   UNK N   1      36.025  11.777  13.322  0.00  0.00    -0.005 C 
HETATM   22  C   UNK N   1      36.365  14.066  13.845  0.00  0.00     0.040 C 
HETATM   23  C   UNK N   1      36.288  10.594  12.399  0.00  0.00     0.013 C 
HETATM   24  C   UNK N   1      36.846  11.770  14.587  0.00  0.00     0.028 C 
HETATM   25  C   UNK N   1      34.515  11.809  13.679  0.00  0.00     0.019 C 
HETATM   26  C   UNK N   1      36.708  13.217  15.097  0.00  0.00     0.013 C 
HETATM   27  C   UNK N   1      36.528  10.788   7.597  0.00  0.00     0.033 C 
BRANCH  19  28
HETATM   28  O   UNK N   1      37.864  13.012  12.350  0.00  0.00    -0.389 OA
HETATM   29  H   UNK N   1      38.656  12.895  11.802  0.00  0.00     0.210 HD
ENDBRANCH  19  28
BRANCH  24  30
HETATM   30  C   UNK N   1      36.460  10.644  15.509  0.00  0.00    -0.045 A 
HETATM   31  C   UNK N   1      36.906   9.209  15.294  0.00  0.00     0.213 A 
HETATM   32  O   UNK N   1      36.266   8.540  16.315  0.00  0.00    -0.314 OA
HETATM   33  C   UNK N   1      35.546   9.394  17.059  0.00  0.00     0.283 A 
HETATM   34  O   UNK N   1      34.884   9.059  18.015  0.00  0.00    -0.260 OA
HETATM   35  C   UNK N   1      35.656  10.740  16.554  0.00  0.00     0.087 A 
ENDBRANCH  24  30
ENDBRANCH   8   9
ENDBRANCH   2   8
BRANCH   4  36
HETATM   36  O   UNK N   1      33.197  11.950   5.673  0.00  0.00    -0.393 OA
HETATM   37  H   UNK N   1      33.181  11.847   6.638  0.00  0.00     0.210 HD
ENDBRANCH   4  36
BRANCH   6  38
HETATM   38  O   UNK N   1      33.633  13.716   3.770  0.00  0.00    -0.351 OA
BRANCH  38  39
HETATM   39  C   UNK N   1      32.512  14.266   3.092  0.00  0.00     0.263 C 
HETATM   40  O   UNK N   1      32.496  15.676   3.121  0.00  0.00    -0.354 OA
HETATM   41  C   UNK N   1      32.311  16.060   4.460  0.00  0.00     0.152 C 
HETATM   42  C   UNK N   1      30.933  15.672   5.009  0.00  0.00     0.182 C 
HETATM   43  C   UNK N   1      32.678  17.516   4.678  0.00  0.00     0.042 C 
HETATM   44  C   UNK N   1      30.625  14.167   4.728  0.00  0.00     0.154 C 
HETATM   45  C   UNK N   1      31.118  13.675   3.368  0.00  0.00     0.095 C 
BRANCH  42  46
HETATM   46  O   UNK N   1      29.986  16.683   4.730  0.00  0.00    -0.351 OA
BRANCH  46  47
HETATM   47  C   UNK N   1      29.233  17.071   5.838  0.00  0.00     0.263 C 
HETATM   48  O   UNK N   1      29.986  16.753   6.997  0.00  0.00    -0.354 OA
HETATM   49  C   UNK N   1      29.447  17.294   8.196  0.00  0.00     0.151 C 
HETATM   50  C   UNK N   1      28.022  17.852   8.047  0.00  0.00     0.175 C 
HETATM   51  C   UNK N   1      30.409  18.338   8.748  0.00  0.00     0.042 C 
HETATM   52  C   UNK N   1      27.988  18.938   6.969  0.00  0.00     0.154 C 
HETATM   53  C   UNK N   1      28.880  18.564   5.781  0.00  0.00     0.095 C 
BRANCH  50  54
HETATM   54  O   UNK N   1      27.529  18.331   9.260  0.00  0.00    -0.390 OA
HETATM   55  H   UNK N   1      27.012  17.767   9.856  0.00  0.00     0.210 HD
ENDBRANCH  50  54
BRANCH  52  56
HETATM   56  O   UNK N   1      26.673  19.125   6.541  0.00  0.00    -0.393 OA
HETATM   57  H   UNK N   1      26.466  19.731   5.813  0.00  0.00     0.210 HD
ENDBRANCH  52  56
ENDBRANCH  46  47
ENDBRANCH  42  46
BRANCH  44  58
HETATM   58  O   UNK N   1      29.301  13.801   4.963  0.00  0.00    -0.393 OA
HETATM   59  H   UNK N   1      28.573  13.400   4.463  0.00  0.00     0.210 HD
ENDBRANCH  44  58
ENDBRANCH  38  39
ENDBRANCH   6  38
TORSDOF 12
ENDMDL
MODEL 9
REMARK VINA RESULT:      -8.4      2.874     11.903
REMARK  12 active torsions:
REMARK  status: ('A' for Active; 'I' for Inactive)
REMARK    1  A    between atoms: C_14  and  O_1 
REMARK    2  A    between atoms: C_32  and  O_2 
REMARK    3  A    between atoms: C_36  and  O_2 
REMARK    4  A    between atoms: C_39  and  O_6 
REMARK    5  A    between atoms: C_41  and  O_7 
REMARK    6  A    between atoms: C_43  and  O_7 
REMARK    7  A    between atoms: C_47  and  O_9 
REMARK    8  A    between atoms: C_49  and  O_9 
REMARK    9  A    between atoms: C_45  and  O_10 
REMARK   10  A    between atoms: C_51  and  O_12 
REMARK   11  A    between atoms: C_53  and  O_13 
REMARK   12  A    between atoms: C_22  and  C_33 
ROOT
HETATM    1  O   UNK N   1      33.379  11.148   4.398  0.00  0.00    -0.354 OA
HETATM    2  C   UNK N   1      33.318  12.437   3.811  0.00  0.00     0.263 C 
HETATM    3  C   UNK N   1      34.685  12.638   3.210  0.00  0.00     0.095 C 
HETATM    4  C   UNK N   1      35.645  12.850   4.373  0.00  0.00     0.154 C 
HETATM    5  C   UNK N   1      34.015  11.224   5.649  0.00  0.00     0.152 C 
HETATM    6  C   UNK N   1      35.384  11.916   5.610  0.00  0.00     0.182 C 
HETATM    7  C   UNK N   1      34.150   9.835   6.245  0.00  0.00     0.042 C 
ENDROOT
BRANCH   2   8
HETATM    8  O   UNK N   1      33.074  13.493   4.746  0.00  0.00    -0.356 OA
BRANCH   8   9
HETATM    9  C   UNK N   1      31.729  13.681   5.131  0.00  0.00     0.125 C 
HETATM   10  C   UNK N   1      31.481  14.466   6.404  0.00  0.00     0.037 C 
HETATM   11  C   UNK N   1      31.655  15.974   6.234  0.00  0.00    -0.004 C 
HETATM   12  C   UNK N   1      31.090  16.527   4.865  0.00  0.00    -0.036 C 
HETATM   13  C   UNK N   1      30.949  16.529   7.486  0.00  0.00     0.006 C 
HETATM   14  C   UNK N   1      29.627  16.920   5.031  0.00  0.00     0.001 C 
HETATM   15  C   UNK N   1      31.189  15.551   3.678  0.00  0.00     0.012 C 
HETATM   16  C   UNK N   1      31.919  17.742   4.439  0.00  0.00     0.016 C 
HETATM   17  C   UNK N   1      29.506  18.113   6.034  0.00  0.00     0.025 C 
HETATM   18  C   UNK N   1      28.995  17.285   3.671  0.00  0.00     0.007 C 
HETATM   19  C   UNK N   1      28.005  18.435   6.187  0.00  0.00     0.070 C 
HETATM   20  C   UNK N   1      30.238  17.876   7.364  0.00  0.00     0.008 C 
HETATM   21  C   UNK N   1      27.432  18.812   4.814  0.00  0.00    -0.005 C 
HETATM   22  C   UNK N   1      27.591  19.635   7.034  0.00  0.00     0.040 C 
HETATM   23  C   UNK N   1      27.531  17.643   3.843  0.00  0.00     0.013 C 
HETATM   24  C   UNK N   1      26.021  19.185   5.194  0.00  0.00     0.028 C 
HETATM   25  C   UNK N   1      28.149  20.041   4.194  0.00  0.00     0.019 C 
HETATM   26  C   UNK N   1      26.219  20.059   6.447  0.00  0.00     0.013 C 
HETATM   27  C   UNK N   1      30.815  14.130   4.016  0.00  0.00     0.033 C 
BRANCH  19  28
HETATM   28  O   UNK N   1      27.349  17.305   6.704  0.00  0.00    -0.389 OA
HETATM   29  H   UNK N   1      27.239  16.434   7.117  0.00  0.00     0.210 HD
ENDBRANCH  19  28
BRANCH  24  30
HETATM   30  C   UNK N   1      25.253  19.760   4.032  0.00  0.00    -0.045 A 
HETATM   31  C   UNK N   1      25.902  20.600   2.947  0.00  0.00     0.213 A 
HETATM   32  O   UNK N   1      24.827  20.955   2.161  0.00  0.00    -0.314 OA
HETATM   33  C   UNK N   1      23.692  20.428   2.648  0.00  0.00     0.283 A 
HETATM   34  O   UNK N   1      22.604  20.594   2.144  0.00  0.00    -0.260 OA
HETATM   35  C   UNK N   1      23.948  19.666   3.844  0.00  0.00     0.087 A 
ENDBRANCH  24  30
ENDBRANCH   8   9
ENDBRANCH   2   8
BRANCH   4  36
HETATM   36  O   UNK N   1      35.603  14.200   4.728  0.00  0.00    -0.393 OA
HETATM   37  H   UNK N   1      35.318  15.091   4.471  0.00  0.00     0.210 HD
ENDBRANCH   4  36
BRANCH   6  38
HETATM   38  O   UNK N   1      35.503  12.620   6.831  0.00  0.00    -0.351 OA
BRANCH  38  39
HETATM   39  C   UNK N   1      36.623  12.217   7.607  0.00  0.00     0.263 C 
HETATM   40  O   UNK N   1      36.347  11.100   8.423  0.00  0.00    -0.354 OA
HETATM   41  C   UNK N   1      35.399  11.508   9.375  0.00  0.00     0.152 C 
HETATM   42  C   UNK N   1      35.947  12.547  10.360  0.00  0.00     0.182 C 
HETATM   43  C   UNK N   1      34.727  10.319  10.037  0.00  0.00     0.042 C 
HETATM   44  C   UNK N   1      36.636  13.725   9.600  0.00  0.00     0.154 C 
HETATM   45  C   UNK N   1      37.423  13.291   8.364  0.00  0.00     0.095 C 
BRANCH  42  46
HETATM   46  O   UNK N   1      36.572  11.910  11.455  0.00  0.00    -0.351 OA
BRANCH  46  47
HETATM   47  C   UNK N   1      36.163  12.393  12.698  0.00  0.00     0.263 C 
HETATM   48  O   UNK N   1      34.940  11.750  13.022  0.00  0.00    -0.354 OA
HETATM   49  C   UNK N   1      34.515  11.971  14.361  0.00  0.00     0.151 C 
HETATM   50  C   UNK N   1      35.287  13.085  15.088  0.00  0.00     0.175 C 
HETATM   51  C   UNK N   1      34.566  10.655  15.125  0.00  0.00     0.042 C 
HETATM   52  C   UNK N   1      36.784  12.768  15.103  0.00  0.00     0.154 C 
HETATM   53  C   UNK N   1      37.233  12.156  13.773  0.00  0.00     0.095 C 
BRANCH  50  54
HETATM   54  O   UNK N   1      34.802  13.287  16.379  0.00  0.00    -0.390 OA
HETATM   55  H   UNK N   1      34.008  13.820  16.545  0.00  0.00     0.210 HD
ENDBRANCH  50  54
BRANCH  52  56
HETATM   56  O   UNK N   1      37.503  13.936  15.360  0.00  0.00    -0.393 OA
HETATM   57  H   UNK N   1      38.408  14.049  15.032  0.00  0.00     0.210 HD
ENDBRANCH  52  56
ENDBRANCH  46  47
ENDBRANCH  42  46
BRANCH  44  58
HETATM   58  O   UNK N   1      37.379  14.575  10.417  0.00  0.00    -0.393 OA
HETATM   59  H   UNK N   1      37.321  15.490  10.734  0.00  0.00     0.210 HD
ENDBRANCH  44  58
ENDBRANCH  38  39
ENDBRANCH   6  38
TORSDOF 12
ENDMDL
