MODEL 1
REMARK VINA RESULT:      -7.1      0.000      0.000
REMARK  6 active torsions:
REMARK  status: ('A' for Active; 'I' for Inactive)
REMARK    1  A    between atoms: O_1  and  C_6 
REMARK    2  A    between atoms: O_1  and  C_11 
REMARK    3  A    between atoms: O_2  and  C_9 
REMARK    4  A    between atoms: O_4  and  C_19 
REMARK    5  A    between atoms: C_7  and  C_11 
REMARK    6  A    between atoms: C_8  and  C_19 
ROOT
HETATM    1  O   UNK N   1      28.636  24.298  -3.842  0.00  0.00    -0.274 OA
ENDROOT
BRANCH   1   2
HETATM    2  C   UNK N   1      29.123  23.219  -4.515  0.00  0.00     0.096 A 
HETATM    3  C   UNK N   1      30.047  22.348  -3.879  0.00  0.00     0.071 A 
HETATM    4  C   UNK N   1      30.541  21.241  -4.586  0.00  0.00     0.021 A 
HETATM    5  C   UNK N   1      30.131  20.984  -5.893  0.00  0.00     0.001 A 
HETATM    6  C   UNK N   1      29.219  21.834  -6.517  0.00  0.00     0.003 A 
HETATM    7  C   UNK N   1      28.722  22.943  -5.835  0.00  0.00     0.038 A 
BRANCH   3   8
HETATM    8  C   UNK N   1      30.525  22.559  -2.488  0.00  0.00     0.178 C 
HETATM    9  O   UNK N   1      31.654  22.241  -2.155  0.00  0.00    -0.646 OA
BRANCH   8  10
HETATM   10  O   UNK N   1      29.705  23.109  -1.572  0.00  0.00    -0.773 OA
HETATM   11  H   UNK N   1      29.287  22.569  -0.930  0.00  0.00     0.167 HD
ENDBRANCH   8  10
ENDBRANCH   3   8
ENDBRANCH   1   2
BRANCH   1  12
HETATM   12  C   UNK N   1      27.349  24.517  -3.437  0.00  0.00     0.301 C 
HETATM   13  O   UNK N   1      26.824  23.793  -2.603  0.00  0.00    -0.259 OA
BRANCH  12  14
HETATM   14  C   UNK N   1      26.561  25.620  -4.046  0.00  0.00     0.072 A 
HETATM   15  C   UNK N   1      25.633  25.392  -5.087  0.00  0.00     0.082 A 
HETATM   16  C   UNK N   1      24.908  26.457  -5.626  0.00  0.00     0.037 A 
HETATM   17  C   UNK N   1      25.096  27.753  -5.145  0.00  0.00     0.003 A 
HETATM   18  C   UNK N   1      26.016  27.991  -4.123  0.00  0.00     0.001 A 
HETATM   19  C   UNK N   1      26.745  26.932  -3.577  0.00  0.00     0.020 A 
BRANCH  15  20
HETATM   20  O   UNK N   1      25.433  24.162  -5.582  0.00  0.00    -0.360 OA
HETATM   21  H   UNK N   1      25.228  23.434  -5.028  0.00  0.00     0.217 HD
ENDBRANCH  15  20
ENDBRANCH  12  14
ENDBRANCH   1  12
TORSDOF 6
ENDMDL
MODEL 2
REMARK VINA RESULT:      -6.6     11.183     13.890
REMARK  6 active torsions:
REMARK  status: ('A' for Active; 'I' for Inactive)
REMARK    1  A    between atoms: O_1  and  C_6 
REMARK    2  A    between atoms: O_1  and  C_11 
REMARK    3  A    between atoms: O_2  and  C_9 
REMARK    4  A    between atoms: O_4  and  C_19 
REMARK    5  A    between atoms: C_7  and  C_11 
REMARK    6  A    between atoms: C_8  and  C_19 
ROOT
HETATM    1  O   UNK N   1      28.790  16.716   6.564  0.00  0.00    -0.274 OA
ENDROOT
BRANCH   1   2
HETATM    2  C   UNK N   1      28.402  17.984   6.254  0.00  0.00     0.096 A 
HETATM    3  C   UNK N   1      28.167  18.926   7.291  0.00  0.00     0.071 A 
HETATM    4  C   UNK N   1      27.768  20.227   6.955  0.00  0.00     0.021 A 
HETATM    5  C   UNK N   1      27.609  20.608   5.623  0.00  0.00     0.001 A 
HETATM    6  C   UNK N   1      27.846  19.688   4.603  0.00  0.00     0.003 A 
HETATM    7  C   UNK N   1      28.237  18.387   4.916  0.00  0.00     0.038 A 
BRANCH   3   8
HETATM    8  C   UNK N   1      28.320  18.591   8.731  0.00  0.00     0.178 C 
HETATM    9  O   UNK N   1      29.293  18.962   9.364  0.00  0.00    -0.646 OA
BRANCH   8  10
HETATM   10  O   UNK N   1      27.372  17.865   9.356  0.00  0.00    -0.773 OA
HETATM   11  H   UNK N   1      26.479  18.149   9.344  0.00  0.00     0.167 HD
ENDBRANCH   8  10
ENDBRANCH   3   8
ENDBRANCH   1   2
BRANCH   1  12
HETATM   12  C   UNK N   1      29.913  16.061   6.145  0.00  0.00     0.301 C 
HETATM   13  O   UNK N   1      29.832  14.981   5.576  0.00  0.00    -0.259 OA
BRANCH  12  14
HETATM   14  C   UNK N   1      31.253  16.643   6.421  0.00  0.00     0.072 A 
HETATM   15  C   UNK N   1      31.712  16.875   7.737  0.00  0.00     0.082 A 
HETATM   16  C   UNK N   1      32.981  17.417   7.951  0.00  0.00     0.037 A 
HETATM   17  C   UNK N   1      33.803  17.737   6.870  0.00  0.00     0.003 A 
HETATM   18  C   UNK N   1      33.357  17.519   5.566  0.00  0.00     0.001 A 
HETATM   19  C   UNK N   1      32.089  16.976   5.342  0.00  0.00     0.020 A 
BRANCH  15  20
HETATM   20  O   UNK N   1      30.947  16.591   8.801  0.00  0.00    -0.360 OA
HETATM   21  H   UNK N   1      30.850  17.192   9.513  0.00  0.00     0.217 HD
ENDBRANCH  15  20
ENDBRANCH  12  14
ENDBRANCH   1  12
TORSDOF 6
ENDMDL
MODEL 3
REMARK VINA RESULT:      -6.5      1.647      5.886
REMARK  6 active torsions:
REMARK  status: ('A' for Active; 'I' for Inactive)
REMARK    1  A    between atoms: O_1  and  C_6 
REMARK    2  A    between atoms: O_1  and  C_11 
REMARK    3  A    between atoms: O_2  and  C_9 
REMARK    4  A    between atoms: O_4  and  C_19 
REMARK    5  A    between atoms: C_7  and  C_11 
REMARK    6  A    between atoms: C_8  and  C_19 
ROOT
HETATM    1  O   UNK N   1      28.013  25.324  -3.880  0.00  0.00    -0.274 OA
ENDROOT
BRANCH   1   2
HETATM    2  C   UNK N   1      27.104  25.754  -4.799  0.00  0.00     0.096 A 
HETATM    3  C   UNK N   1      26.193  26.790  -4.461  0.00  0.00     0.071 A 
HETATM    4  C   UNK N   1      25.261  27.220  -5.417  0.00  0.00     0.021 A 
HETATM    5  C   UNK N   1      25.226  26.652  -6.690  0.00  0.00     0.001 A 
HETATM    6  C   UNK N   1      26.123  25.640  -7.026  0.00  0.00     0.003 A 
HETATM    7  C   UNK N   1      27.052  25.193  -6.088  0.00  0.00     0.038 A 
BRANCH   3   8
HETATM    8  C   UNK N   1      26.176  27.443  -3.126  0.00  0.00     0.178 C 
HETATM    9  O   UNK N   1      26.239  28.655  -3.017  0.00  0.00    -0.646 OA
BRANCH   8  10
HETATM   10  O   UNK N   1      26.090  26.690  -2.012  0.00  0.00    -0.773 OA
HETATM   11  H   UNK N   1      26.436  27.009  -1.202  0.00  0.00     0.167 HD
ENDBRANCH   8  10
ENDBRANCH   3   8
ENDBRANCH   1   2
BRANCH   1  12
HETATM   12  C   UNK N   1      28.069  24.104  -3.269  0.00  0.00     0.301 C 
HETATM   13  O   UNK N   1      27.241  23.789  -2.425  0.00  0.00    -0.259 OA
BRANCH  12  14
HETATM   14  C   UNK N   1      29.170  23.162  -3.599  0.00  0.00     0.072 A 
HETATM   15  C   UNK N   1      30.099  22.726  -2.627  0.00  0.00     0.082 A 
HETATM   16  C   UNK N   1      31.115  21.834  -2.978  0.00  0.00     0.037 A 
HETATM   17  C   UNK N   1      31.224  21.371  -4.290  0.00  0.00     0.003 A 
HETATM   18  C   UNK N   1      30.318  21.802  -5.259  0.00  0.00     0.001 A 
HETATM   19  C   UNK N   1      29.297  22.692  -4.917  0.00  0.00     0.020 A 
BRANCH  15  20
HETATM   20  O   UNK N   1      30.033  23.157  -1.359  0.00  0.00    -0.360 OA
HETATM   21  H   UNK N   1      29.260  23.561  -1.015  0.00  0.00     0.217 HD
ENDBRANCH  15  20
ENDBRANCH  12  14
ENDBRANCH   1  12
TORSDOF 6
ENDMDL
MODEL 4
REMARK VINA RESULT:      -6.5      9.252     11.370
REMARK  6 active torsions:
REMARK  status: ('A' for Active; 'I' for Inactive)
REMARK    1  A    between atoms: O_1  and  C_6 
REMARK    2  A    between atoms: O_1  and  C_11 
REMARK    3  A    between atoms: O_2  and  C_9 
REMARK    4  A    between atoms: O_4  and  C_19 
REMARK    5  A    between atoms: C_7  and  C_11 
REMARK    6  A    between atoms: C_8  and  C_19 
ROOT
HETATM    1  O   UNK N   1      23.133  20.389   3.446  0.00  0.00    -0.274 OA
ENDROOT
BRANCH   1   2
HETATM    2  C   UNK N   1      22.211  19.398   3.297  0.00  0.00     0.096 A 
HETATM    3  C   UNK N   1      21.216  19.503   2.289  0.00  0.00     0.071 A 
HETATM    4  C   UNK N   1      20.273  18.474   2.148  0.00  0.00     0.021 A 
HETATM    5  C   UNK N   1      20.307  17.352   2.976  0.00  0.00     0.001 A 
HETATM    6  C   UNK N   1      21.287  17.244   3.961  0.00  0.00     0.003 A 
HETATM    7  C   UNK N   1      22.229  18.258   4.122  0.00  0.00     0.038 A 
BRANCH   3   8
HETATM    8  C   UNK N   1      21.122  20.667   1.369  0.00  0.00     0.178 C 
HETATM    9  O   UNK N   1      21.095  20.514   0.161  0.00  0.00    -0.646 OA
BRANCH   8  10
HETATM   10  O   UNK N   1      21.066  21.916   1.872  0.00  0.00    -0.773 OA
HETATM   11  H   UNK N   1      20.884  22.641   1.307  0.00  0.00     0.167 HD
ENDBRANCH   8  10
ENDBRANCH   3   8
ENDBRANCH   1   2
BRANCH   1  12
HETATM   12  C   UNK N   1      24.439  20.381   3.046  0.00  0.00     0.301 C 
HETATM   13  O   UNK N   1      24.745  20.695   1.904  0.00  0.00    -0.259 OA
BRANCH  12  14
HETATM   14  C   UNK N   1      25.498  19.945   3.992  0.00  0.00     0.072 A 
HETATM   15  C   UNK N   1      26.037  18.638   3.963  0.00  0.00     0.082 A 
HETATM   16  C   UNK N   1      27.037  18.272   4.867  0.00  0.00     0.037 A 
HETATM   17  C   UNK N   1      27.509  19.189   5.806  0.00  0.00     0.003 A 
HETATM   18  C   UNK N   1      26.979  20.479   5.849  0.00  0.00     0.001 A 
HETATM   19  C   UNK N   1      25.979  20.855   4.948  0.00  0.00     0.020 A 
BRANCH  15  20
HETATM   20  O   UNK N   1      25.601  17.725   3.082  0.00  0.00    -0.360 OA
HETATM   21  H   UNK N   1      24.953  17.089   3.312  0.00  0.00     0.217 HD
ENDBRANCH  15  20
ENDBRANCH  12  14
ENDBRANCH   1  12
TORSDOF 6
ENDMDL
MODEL 5
REMARK VINA RESULT:      -6.3     10.073     12.193
REMARK  6 active torsions:
REMARK  status: ('A' for Active; 'I' for Inactive)
REMARK    1  A    between atoms: O_1  and  C_6 
REMARK    2  A    between atoms: O_1  and  C_11 
REMARK    3  A    between atoms: O_2  and  C_9 
REMARK    4  A    between atoms: O_4  and  C_19 
REMARK    5  A    between atoms: C_7  and  C_11 
REMARK    6  A    between atoms: C_8  and  C_19 
ROOT
HETATM    1  O   UNK N   1      30.015  16.944   6.017  0.00  0.00    -0.274 OA
ENDROOT
BRANCH   1   2
HETATM    2  C   UNK N   1      31.264  17.224   6.482  0.00  0.00     0.096 A 
HETATM    3  C   UNK N   1      32.357  17.295   5.577  0.00  0.00     0.071 A 
HETATM    4  C   UNK N   1      33.637  17.583   6.072  0.00  0.00     0.021 A 
HETATM    5  C   UNK N   1      33.846  17.808   7.432  0.00  0.00     0.001 A 
HETATM    6  C   UNK N   1      32.775  17.746   8.321  0.00  0.00     0.003 A 
HETATM    7  C   UNK N   1      31.496  17.454   7.850  0.00  0.00     0.038 A 
BRANCH   3   8
HETATM    8  C   UNK N   1      32.207  17.069   4.116  0.00  0.00     0.178 C 
HETATM    9  O   UNK N   1      33.080  16.515   3.471  0.00  0.00    -0.646 OA
BRANCH   8  10
HETATM   10  O   UNK N   1      31.090  17.481   3.484  0.00  0.00    -0.773 OA
HETATM   11  H   UNK N   1      31.150  17.900   2.648  0.00  0.00     0.167 HD
ENDBRANCH   8  10
ENDBRANCH   3   8
ENDBRANCH   1   2
BRANCH   1  12
HETATM   12  C   UNK N   1      28.820  17.354   6.537  0.00  0.00     0.301 C 
HETATM   13  O   UNK N   1      28.222  16.664   7.351  0.00  0.00    -0.259 OA
BRANCH  12  14
HETATM   14  C   UNK N   1      28.216  18.632   6.078  0.00  0.00     0.072 A 
HETATM   15  C   UNK N   1      28.031  18.924   4.707  0.00  0.00     0.082 A 
HETATM   16  C   UNK N   1      27.452  20.134   4.320  0.00  0.00     0.037 A 
HETATM   17  C   UNK N   1      27.055  21.065   5.280  0.00  0.00     0.003 A 
HETATM   18  C   UNK N   1      27.240  20.791   6.636  0.00  0.00     0.001 A 
HETATM   19  C   UNK N   1      27.817  19.582   7.033  0.00  0.00     0.020 A 
BRANCH  15  20
HETATM   20  O   UNK N   1      28.410  18.058   3.755  0.00  0.00    -0.360 OA
HETATM   21  H   UNK N   1      29.179  18.199   3.239  0.00  0.00     0.217 HD
ENDBRANCH  15  20
ENDBRANCH  12  14
ENDBRANCH   1  12
TORSDOF 6
ENDMDL
MODEL 6
REMARK VINA RESULT:      -6.3     10.940     12.510
REMARK  6 active torsions:
REMARK  status: ('A' for Active; 'I' for Inactive)
REMARK    1  A    between atoms: O_1  and  C_6 
REMARK    2  A    between atoms: O_1  and  C_11 
REMARK    3  A    between atoms: O_2  and  C_9 
REMARK    4  A    between atoms: O_4  and  C_19 
REMARK    5  A    between atoms: C_7  and  C_11 
REMARK    6  A    between atoms: C_8  and  C_19 
ROOT
HETATM    1  O   UNK N   1      29.812  17.000   6.850  0.00  0.00    -0.274 OA
ENDROOT
BRANCH   1   2
HETATM    2  C   UNK N   1      30.984  17.166   6.176  0.00  0.00     0.096 A 
HETATM    3  C   UNK N   1      32.196  17.335   6.897  0.00  0.00     0.071 A 
HETATM    4  C   UNK N   1      33.395  17.506   6.190  0.00  0.00     0.021 A 
HETATM    5  C   UNK N   1      33.411  17.501   4.796  0.00  0.00     0.001 A 
HETATM    6  C   UNK N   1      32.225  17.328   4.086  0.00  0.00     0.003 A 
HETATM    7  C   UNK N   1      31.022  17.164   4.770  0.00  0.00     0.038 A 
BRANCH   3   8
HETATM    8  C   UNK N   1      32.254  17.348   8.383  0.00  0.00     0.178 C 
HETATM    9  O   UNK N   1      33.200  16.864   8.980  0.00  0.00    -0.646 OA
BRANCH   8  10
HETATM   10  O   UNK N   1      31.248  17.899   9.089  0.00  0.00    -0.773 OA
HETATM   11  H   UNK N   1      31.419  18.294   9.921  0.00  0.00     0.167 HD
ENDBRANCH   8  10
ENDBRANCH   3   8
ENDBRANCH   1   2
BRANCH   1  12
HETATM   12  C   UNK N   1      28.544  17.163   6.368  0.00  0.00     0.301 C 
HETATM   13  O   UNK N   1      27.843  16.194   6.110  0.00  0.00    -0.259 OA
BRANCH  12  14
HETATM   14  C   UNK N   1      28.021  18.531   6.114  0.00  0.00     0.072 A 
HETATM   15  C   UNK N   1      27.660  19.402   7.167  0.00  0.00     0.082 A 
HETATM   16  C   UNK N   1      27.179  20.682   6.884  0.00  0.00     0.037 A 
HETATM   17  C   UNK N   1      27.048  21.110   5.562  0.00  0.00     0.003 A 
HETATM   18  C   UNK N   1      27.393  20.255   4.515  0.00  0.00     0.001 A 
HETATM   19  C   UNK N   1      27.877  18.973   4.789  0.00  0.00     0.020 A 
BRANCH  15  20
HETATM   20  O   UNK N   1      27.762  19.023   8.450  0.00  0.00    -0.360 OA
HETATM   21  H   UNK N   1      27.311  18.269   8.778  0.00  0.00     0.217 HD
ENDBRANCH  15  20
ENDBRANCH  12  14
ENDBRANCH   1  12
TORSDOF 6
ENDMDL
MODEL 7
REMARK VINA RESULT:      -6.2     25.789     28.715
REMARK  6 active torsions:
REMARK  status: ('A' for Active; 'I' for Inactive)
REMARK    1  A    between atoms: O_1  and  C_6 
REMARK    2  A    between atoms: O_1  and  C_11 
REMARK    3  A    between atoms: O_2  and  C_9 
REMARK    4  A    between atoms: O_4  and  C_19 
REMARK    5  A    between atoms: C_7  and  C_11 
REMARK    6  A    between atoms: C_8  and  C_19 
ROOT
HETATM    1  O   UNK N   1      34.586  10.284  20.748  0.00  0.00    -0.274 OA
ENDROOT
BRANCH   1   2
HETATM    2  C   UNK N   1      33.608   9.340  20.661  0.00  0.00     0.096 A 
HETATM    3  C   UNK N   1      32.578   9.297  21.637  0.00  0.00     0.071 A 
HETATM    4  C   UNK N   1      31.579   8.318  21.535  0.00  0.00     0.021 A 
HETATM    5  C   UNK N   1      31.581   7.398  20.487  0.00  0.00     0.001 A 
HETATM    6  C   UNK N   1      32.587   7.443  19.524  0.00  0.00     0.003 A 
HETATM    7  C   UNK N   1      33.593   8.403  19.611  0.00  0.00     0.038 A 
BRANCH   3   8
HETATM    8  C   UNK N   1      32.511  10.246  22.779  0.00  0.00     0.178 C 
HETATM    9  O   UNK N   1      32.101   9.891  23.870  0.00  0.00    -0.646 OA
BRANCH   8  10
HETATM   10  O   UNK N   1      32.909  11.523  22.614  0.00  0.00    -0.773 OA
HETATM   11  H   UNK N   1      32.336  12.146  22.213  0.00  0.00     0.167 HD
ENDBRANCH   8  10
ENDBRANCH   3   8
ENDBRANCH   1   2
BRANCH   1  12
HETATM   12  C   UNK N   1      35.634  10.480  19.893  0.00  0.00     0.301 C 
HETATM   13  O   UNK N   1      36.678   9.858  20.030  0.00  0.00    -0.259 OA
BRANCH  12  14
HETATM   14  C   UNK N   1      35.523  11.492  18.810  0.00  0.00     0.072 A 
HETATM   15  C   UNK N   1      35.200  12.842  19.076  0.00  0.00     0.082 A 
HETATM   16  C   UNK N   1      35.113  13.762  18.029  0.00  0.00     0.037 A 
HETATM   17  C   UNK N   1      35.341  13.357  16.714  0.00  0.00     0.003 A 
HETATM   18  C   UNK N   1      35.653  12.025  16.439  0.00  0.00     0.001 A 
HETATM   19  C   UNK N   1      35.743  11.097  17.480  0.00  0.00     0.020 A 
BRANCH  15  20
HETATM   20  O   UNK N   1      34.963  13.267  20.327  0.00  0.00    -0.360 OA
HETATM   21  H   UNK N   1      35.618  13.218  20.996  0.00  0.00     0.217 HD
ENDBRANCH  15  20
ENDBRANCH  12  14
ENDBRANCH   1  12
TORSDOF 6
ENDMDL
MODEL 8
REMARK VINA RESULT:      -6.2     13.362     16.388
REMARK  6 active torsions:
REMARK  status: ('A' for Active; 'I' for Inactive)
REMARK    1  A    between atoms: O_1  and  C_6 
REMARK    2  A    between atoms: O_1  and  C_11 
REMARK    3  A    between atoms: O_2  and  C_9 
REMARK    4  A    between atoms: O_4  and  C_19 
REMARK    5  A    between atoms: C_7  and  C_11 
REMARK    6  A    between atoms: C_8  and  C_19 
ROOT
HETATM    1  O   UNK N   1      34.236  17.137   9.715  0.00  0.00    -0.274 OA
ENDROOT
BRANCH   1   2
HETATM    2  C   UNK N   1      34.840  15.941   9.961  0.00  0.00     0.096 A 
HETATM    3  C   UNK N   1      34.094  14.737   9.854  0.00  0.00     0.071 A 
HETATM    4  C   UNK N   1      34.730  13.514  10.111  0.00  0.00     0.021 A 
HETATM    5  C   UNK N   1      36.080  13.467  10.459  0.00  0.00     0.001 A 
HETATM    6  C   UNK N   1      36.815  14.646  10.557  0.00  0.00     0.003 A 
HETATM    7  C   UNK N   1      36.200  15.873  10.313  0.00  0.00     0.038 A 
BRANCH   3   8
HETATM    8  C   UNK N   1      32.655  14.713   9.485  0.00  0.00     0.178 C 
HETATM    9  O   UNK N   1      32.277  14.175   8.459  0.00  0.00    -0.646 OA
BRANCH   8  10
HETATM   10  O   UNK N   1      31.745  15.292  10.293  0.00  0.00    -0.773 OA
HETATM   11  H   UNK N   1      31.449  16.164  10.118  0.00  0.00     0.167 HD
ENDBRANCH   8  10
ENDBRANCH   3   8
ENDBRANCH   1   2
BRANCH   1  12
HETATM   12  C   UNK N   1      34.309  17.891   8.578  0.00  0.00     0.301 C 
HETATM   13  O   UNK N   1      35.126  18.796   8.479  0.00  0.00    -0.259 OA
BRANCH  12  14
HETATM   14  C   UNK N   1      33.360  17.639   7.463  0.00  0.00     0.072 A 
HETATM   15  C   UNK N   1      31.961  17.622   7.661  0.00  0.00     0.082 A 
HETATM   16  C   UNK N   1      31.103  17.389   6.583  0.00  0.00     0.037 A 
HETATM   17  C   UNK N   1      31.619  17.168   5.306  0.00  0.00     0.003 A 
HETATM   18  C   UNK N   1      33.000  17.174   5.101  0.00  0.00     0.001 A 
HETATM   19  C   UNK N   1      33.865  17.408   6.173  0.00  0.00     0.020 A 
BRANCH  15  20
HETATM   20  O   UNK N   1      31.427  17.821   8.875  0.00  0.00    -0.360 OA
HETATM   21  H   UNK N   1      31.765  18.468   9.462  0.00  0.00     0.217 HD
ENDBRANCH  15  20
ENDBRANCH  12  14
ENDBRANCH   1  12
TORSDOF 6
ENDMDL
MODEL 9
REMARK VINA RESULT:      -6.2     24.754     27.827
REMARK  6 active torsions:
REMARK  status: ('A' for Active; 'I' for Inactive)
REMARK    1  A    between atoms: O_1  and  C_6 
REMARK    2  A    between atoms: O_1  and  C_11 
REMARK    3  A    between atoms: O_2  and  C_9 
REMARK    4  A    between atoms: O_4  and  C_19 
REMARK    5  A    between atoms: C_7  and  C_11 
REMARK    6  A    between atoms: C_8  and  C_19 
ROOT
HETATM    1  O   UNK N   1      35.764  10.609  18.937  0.00  0.00    -0.274 OA
ENDROOT
BRANCH   1   2
HETATM    2  C   UNK N   1      35.329  11.122  17.753  0.00  0.00     0.096 A 
HETATM    3  C   UNK N   1      35.073  12.514  17.636  0.00  0.00     0.071 A 
HETATM    4  C   UNK N   1      34.624  13.026  16.410  0.00  0.00     0.021 A 
HETATM    5  C   UNK N   1      34.437  12.191  15.309  0.00  0.00     0.001 A 
HETATM    6  C   UNK N   1      34.694  10.826  15.420  0.00  0.00     0.003 A 
HETATM    7  C   UNK N   1      35.134  10.295  16.631  0.00  0.00     0.038 A 
BRANCH   3   8
HETATM    8  C   UNK N   1      35.254  13.462  18.766  0.00  0.00     0.178 C 
HETATM    9  O   UNK N   1      35.469  14.645  18.566  0.00  0.00    -0.646 OA
BRANCH   8  10
HETATM   10  O   UNK N   1      35.181  13.017  20.035  0.00  0.00    -0.773 OA
HETATM   11  H   UNK N   1      34.945  13.604  20.726  0.00  0.00     0.167 HD
ENDBRANCH   8  10
ENDBRANCH   3   8
ENDBRANCH   1   2
BRANCH   1  12
HETATM   12  C   UNK N   1      35.457   9.395  19.484  0.00  0.00     0.301 C 
HETATM   13  O   UNK N   1      36.291   8.500  19.528  0.00  0.00    -0.259 OA
BRANCH  12  14
HETATM   14  C   UNK N   1      34.084   9.140  19.992  0.00  0.00     0.072 A 
HETATM   15  C   UNK N   1      33.540   9.866  21.076  0.00  0.00     0.082 A 
HETATM   16  C   UNK N   1      32.243   9.599  21.518  0.00  0.00     0.037 A 
HETATM   17  C   UNK N   1      31.475   8.614  20.897  0.00  0.00     0.003 A 
HETATM   18  C   UNK N   1      32.005   7.885  19.831  0.00  0.00     0.001 A 
HETATM   19  C   UNK N   1      33.302   8.146  19.382  0.00  0.00     0.020 A 
BRANCH  15  20
HETATM   20  O   UNK N   1      34.251  10.814  21.706  0.00  0.00    -0.360 OA
HETATM   21  H   UNK N   1      33.892  11.660  21.888  0.00  0.00     0.217 HD
ENDBRANCH  15  20
ENDBRANCH  12  14
ENDBRANCH   1  12
TORSDOF 6
ENDMDL
