MODEL 1
REMARK VINA RESULT:      -5.3      0.000      0.000
REMARK  3 active torsions:
REMARK  status: ('A' for Active; 'I' for Inactive)
REMARK    1  A    between atoms: C_1  and  O_4 
REMARK    2  A    between atoms: O_4  and  C_7 
REMARK    3  A    between atoms: C_5  and  N_9 
REMARK       I    between atoms: C_7  and  N_10 
ROOT
HETATM    1  C   UNK N   1      33.322  17.475   5.655  0.00  0.00     0.083 A 
HETATM    2  C   UNK N   1      32.097  17.367   6.312  0.00  0.00     0.074 A 
HETATM    3  C   UNK N   1      33.353  17.451   4.251  0.00  0.00     0.037 A 
HETATM    4  C   UNK N   1      30.887  17.242   5.601  0.00  0.00     0.138 A 
HETATM    5  C   UNK N   1      32.167  17.319   3.524  0.00  0.00     0.005 A 
HETATM    6  C   UNK N   1      30.944  17.204   4.191  0.00  0.00     0.037 A 
ENDROOT
BRANCH   1   7
HETATM    7  O   UNK N   1      34.444  17.553   6.415  0.00  0.00    -0.261 OA
BRANCH   7   8
HETATM    8  C   UNK N   1      34.542  17.727   7.763  0.00  0.00     0.367 C 
HETATM    9  N   UNK N   1      34.729  16.639   8.558  0.00  0.00    -0.336 N 
HETATM   10  C   UNK N   1      34.866  16.777   9.986  0.00  0.00     0.154 C 
HETATM   11  C   UNK N   1      34.825  15.324   7.978  0.00  0.00     0.154 C 
HETATM   12  O   UNK N   1      34.474  18.845   8.257  0.00  0.00    -0.238 OA
ENDBRANCH   7   8
ENDBRANCH   1   7
BRANCH   4  13
HETATM   13  N   UNK N   1      29.640  17.078   6.308  0.00  0.00    -0.049 N 
HETATM   14  C   UNK N   1      29.083  15.799   5.953  0.00  0.00     0.278 C 
HETATM   15  C   UNK N   1      29.837  17.087   7.738  0.00  0.00     0.278 C 
HETATM   16  C   UNK N   1      28.679  18.095   5.952  0.00  0.00     0.278 C 
ENDBRANCH   4  13
TORSDOF 3
ENDMDL
MODEL 2
REMARK VINA RESULT:      -5.3      8.916     12.427
REMARK  3 active torsions:
REMARK  status: ('A' for Active; 'I' for Inactive)
REMARK    1  A    between atoms: C_1  and  O_4 
REMARK    2  A    between atoms: O_4  and  C_7 
REMARK    3  A    between atoms: C_5  and  N_9 
REMARK       I    between atoms: C_7  and  N_10 
ROOT
HETATM    1  C   UNK N   1      35.047  12.851  16.421  0.00  0.00     0.083 A 
HETATM    2  C   UNK N   1      35.178  11.473  16.591  0.00  0.00     0.074 A 
HETATM    3  C   UNK N   1      35.063  13.686  17.550  0.00  0.00     0.037 A 
HETATM    4  C   UNK N   1      35.332  10.898  17.867  0.00  0.00     0.138 A 
HETATM    5  C   UNK N   1      35.206  13.139  18.828  0.00  0.00     0.005 A 
HETATM    6  C   UNK N   1      35.329  11.756  18.988  0.00  0.00     0.037 A 
ENDROOT
BRANCH   1   7
HETATM    7  O   UNK N   1      34.864  13.319  15.160  0.00  0.00    -0.261 OA
BRANCH   7   8
HETATM    8  C   UNK N   1      35.807  13.631  14.228  0.00  0.00     0.367 C 
HETATM    9  N   UNK N   1      35.828  12.944  13.053  0.00  0.00    -0.336 N 
HETATM   10  C   UNK N   1      36.790  13.256  12.027  0.00  0.00     0.154 C 
HETATM   11  C   UNK N   1      34.862  11.905  12.803  0.00  0.00     0.154 C 
HETATM   12  O   UNK N   1      36.621  14.521  14.433  0.00  0.00    -0.238 OA
ENDBRANCH   7   8
ENDBRANCH   1   7
BRANCH   4  13
HETATM   13  N   UNK N   1      35.410   9.465  18.018  0.00  0.00    -0.049 N 
HETATM   14  C   UNK N   1      35.469   8.874  16.706  0.00  0.00     0.278 C 
HETATM   15  C   UNK N   1      36.605   9.072  18.727  0.00  0.00     0.278 C 
HETATM   16  C   UNK N   1      34.254   8.929  18.696  0.00  0.00     0.278 C 
ENDBRANCH   4  13
TORSDOF 3
ENDMDL
MODEL 3
REMARK VINA RESULT:      -5.2      1.433      2.095
REMARK  3 active torsions:
REMARK  status: ('A' for Active; 'I' for Inactive)
REMARK    1  A    between atoms: C_1  and  O_4 
REMARK    2  A    between atoms: O_4  and  C_7 
REMARK    3  A    between atoms: C_5  and  N_9 
REMARK       I    between atoms: C_7  and  N_10 
ROOT
HETATM    1  C   UNK N   1      33.040  17.213   7.809  0.00  0.00     0.083 A 
HETATM    2  C   UNK N   1      31.683  17.082   7.515  0.00  0.00     0.074 A 
HETATM    3  C   UNK N   1      33.955  17.402   6.761  0.00  0.00     0.037 A 
HETATM    4  C   UNK N   1      31.206  17.142   6.191  0.00  0.00     0.138 A 
HETATM    5  C   UNK N   1      33.508  17.455   5.438  0.00  0.00     0.005 A 
HETATM    6  C   UNK N   1      32.147  17.316   5.152  0.00  0.00     0.037 A 
ENDROOT
BRANCH   1   7
HETATM    7  O   UNK N   1      33.419  17.104   9.108  0.00  0.00    -0.261 OA
BRANCH   7   8
HETATM    8  C   UNK N   1      34.665  16.875   9.610  0.00  0.00     0.367 C 
HETATM    9  N   UNK N   1      35.040  15.596   9.887  0.00  0.00    -0.336 N 
HETATM   10  C   UNK N   1      36.357  15.303  10.393  0.00  0.00     0.154 C 
HETATM   11  C   UNK N   1      34.132  14.504   9.648  0.00  0.00     0.154 C 
HETATM   12  O   UNK N   1      35.443  17.799   9.802  0.00  0.00    -0.238 OA
ENDBRANCH   7   8
ENDBRANCH   1   7
BRANCH   4  13
HETATM   13  N   UNK N   1      29.804  16.949   5.910  0.00  0.00    -0.049 N 
HETATM   14  C   UNK N   1      29.052  17.336   7.075  0.00  0.00     0.278 C 
HETATM   15  C   UNK N   1      29.365  17.778   4.812  0.00  0.00     0.278 C 
HETATM   16  C   UNK N   1      29.496  15.569   5.620  0.00  0.00     0.278 C 
ENDBRANCH   4  13
TORSDOF 3
ENDMDL
MODEL 4
REMARK VINA RESULT:      -5.2      4.347      8.169
REMARK  3 active torsions:
REMARK  status: ('A' for Active; 'I' for Inactive)
REMARK    1  A    between atoms: C_1  and  O_4 
REMARK    2  A    between atoms: O_4  and  C_7 
REMARK    3  A    between atoms: C_5  and  N_9 
REMARK       I    between atoms: C_7  and  N_10 
ROOT
HETATM    1  C   UNK N   1      35.477  14.664  11.109  0.00  0.00     0.083 A 
HETATM    2  C   UNK N   1      35.487  14.299  12.455  0.00  0.00     0.074 A 
HETATM    3  C   UNK N   1      36.391  14.064  10.227  0.00  0.00     0.037 A 
HETATM    4  C   UNK N   1      36.388  13.337  12.951  0.00  0.00     0.138 A 
HETATM    5  C   UNK N   1      37.300  13.113  10.698  0.00  0.00     0.005 A 
HETATM    6  C   UNK N   1      37.308  12.758  12.050  0.00  0.00     0.037 A 
ENDROOT
BRANCH   1   7
HETATM    7  O   UNK N   1      34.603  15.628  10.720  0.00  0.00    -0.261 OA
BRANCH   7   8
HETATM    8  C   UNK N   1      34.851  16.751   9.989  0.00  0.00     0.367 C 
HETATM    9  N   UNK N   1      34.127  16.977   8.860  0.00  0.00    -0.336 N 
HETATM   10  C   UNK N   1      34.335  18.164   8.069  0.00  0.00     0.154 C 
HETATM   11  C   UNK N   1      33.111  16.041   8.449  0.00  0.00     0.154 C 
HETATM   12  O   UNK N   1      35.704  17.553  10.343  0.00  0.00    -0.238 OA
ENDBRANCH   7   8
ENDBRANCH   1   7
BRANCH   4  13
HETATM   13  N   UNK N   1      36.413  13.018  14.358  0.00  0.00    -0.049 N 
HETATM   14  C   UNK N   1      35.082  12.650  14.763  0.00  0.00     0.278 C 
HETATM   15  C   UNK N   1      37.278  11.894  14.631  0.00  0.00     0.278 C 
HETATM   16  C   UNK N   1      36.827  14.145  15.160  0.00  0.00     0.278 C 
ENDBRANCH   4  13
TORSDOF 3
ENDMDL
MODEL 5
REMARK VINA RESULT:      -5.1      9.818     11.719
REMARK  3 active torsions:
REMARK  status: ('A' for Active; 'I' for Inactive)
REMARK    1  A    between atoms: C_1  and  O_4 
REMARK    2  A    between atoms: O_4  and  C_7 
REMARK    3  A    between atoms: C_5  and  N_9 
REMARK       I    between atoms: C_7  and  N_10 
ROOT
HETATM    1  C   UNK N   1      21.212  13.689   8.984  0.00  0.00     0.083 A 
HETATM    2  C   UNK N   1      21.961  14.076   7.873  0.00  0.00     0.074 A 
HETATM    3  C   UNK N   1      20.212  14.546   9.471  0.00  0.00     0.037 A 
HETATM    4  C   UNK N   1      21.735  15.305   7.222  0.00  0.00     0.138 A 
HETATM    5  C   UNK N   1      19.975  15.775   8.848  0.00  0.00     0.005 A 
HETATM    6  C   UNK N   1      20.736  16.158   7.740  0.00  0.00     0.037 A 
ENDROOT
BRANCH   1   7
HETATM    7  O   UNK N   1      21.521  12.506   9.574  0.00  0.00    -0.261 OA
BRANCH   7   8
HETATM    8  C   UNK N   1      21.667  12.236  10.902  0.00  0.00     0.367 C 
HETATM    9  N   UNK N   1      22.921  12.117  11.418  0.00  0.00    -0.336 N 
HETATM   10  C   UNK N   1      23.125  11.859  12.821  0.00  0.00     0.154 C 
HETATM   11  C   UNK N   1      24.074  12.280  10.570  0.00  0.00     0.154 C 
HETATM   12  O   UNK N   1      20.690  12.110  11.627  0.00  0.00    -0.238 OA
ENDBRANCH   7   8
ENDBRANCH   1   7
BRANCH   4  13
HETATM   13  N   UNK N   1      22.561  15.704   6.109  0.00  0.00    -0.049 N 
HETATM   14  C   UNK N   1      23.930  15.392   6.426  0.00  0.00     0.278 C 
HETATM   15  C   UNK N   1      22.215  14.982   4.908  0.00  0.00     0.278 C 
HETATM   16  C   UNK N   1      22.476  17.122   5.855  0.00  0.00     0.278 C 
ENDBRANCH   4  13
TORSDOF 3
ENDMDL
MODEL 6
REMARK VINA RESULT:      -5.1     13.597     15.303
REMARK  3 active torsions:
REMARK  status: ('A' for Active; 'I' for Inactive)
REMARK    1  A    between atoms: C_1  and  O_4 
REMARK    2  A    between atoms: O_4  and  C_7 
REMARK    3  A    between atoms: C_5  and  N_9 
REMARK       I    between atoms: C_7  and  N_10 
ROOT
HETATM    1  C   UNK N   1      26.784  25.629  -4.809  0.00  0.00     0.083 A 
HETATM    2  C   UNK N   1      27.390  26.816  -4.400  0.00  0.00     0.074 A 
HETATM    3  C   UNK N   1      25.504  25.674  -5.386  0.00  0.00     0.037 A 
HETATM    4  C   UNK N   1      26.753  28.062  -4.557  0.00  0.00     0.138 A 
HETATM    5  C   UNK N   1      24.848  26.897  -5.544  0.00  0.00     0.005 A 
HETATM    6  C   UNK N   1      25.460  28.081  -5.124  0.00  0.00     0.037 A 
ENDROOT
BRANCH   1   7
HETATM    7  O   UNK N   1      27.451  24.467  -4.585  0.00  0.00    -0.261 OA
BRANCH   7   8
HETATM    8  C   UNK N   1      27.842  23.931  -3.395  0.00  0.00     0.367 C 
HETATM    9  N   UNK N   1      29.126  23.503  -3.253  0.00  0.00    -0.336 N 
HETATM   10  C   UNK N   1      29.591  22.954  -2.004  0.00  0.00     0.154 C 
HETATM   11  C   UNK N   1      30.056  23.620  -4.347  0.00  0.00     0.154 C 
HETATM   12  O   UNK N   1      27.057  23.843  -2.460  0.00  0.00    -0.238 OA
ENDBRANCH   7   8
ENDBRANCH   1   7
BRANCH   4  13
HETATM   13  N   UNK N   1      27.380  29.269  -4.075  0.00  0.00    -0.049 N 
HETATM   14  C   UNK N   1      28.116  28.951  -2.880  0.00  0.00     0.278 C 
HETATM   15  C   UNK N   1      28.317  29.798  -5.037  0.00  0.00     0.278 C 
HETATM   16  C   UNK N   1      26.411  30.286  -3.743  0.00  0.00     0.278 C 
ENDBRANCH   4  13
TORSDOF 3
ENDMDL
MODEL 7
REMARK VINA RESULT:      -5.0      2.503      5.261
REMARK  3 active torsions:
REMARK  status: ('A' for Active; 'I' for Inactive)
REMARK    1  A    between atoms: C_1  and  O_4 
REMARK    2  A    between atoms: O_4  and  C_7 
REMARK    3  A    between atoms: C_5  and  N_9 
REMARK       I    between atoms: C_7  and  N_10 
ROOT
HETATM    1  C   UNK N   1      30.693  17.338   5.568  0.00  0.00     0.083 A 
HETATM    2  C   UNK N   1      31.521  17.120   6.669  0.00  0.00     0.074 A 
HETATM    3  C   UNK N   1      31.270  17.541   4.304  0.00  0.00     0.037 A 
HETATM    4  C   UNK N   1      32.924  17.092   6.543  0.00  0.00     0.138 A 
HETATM    5  C   UNK N   1      32.660  17.527   4.156  0.00  0.00     0.005 A 
HETATM    6  C   UNK N   1      33.482  17.315   5.266  0.00  0.00     0.037 A 
ENDROOT
BRANCH   1   7
HETATM    7  O   UNK N   1      29.354  17.388   5.784  0.00  0.00    -0.261 OA
BRANCH   7   8
HETATM    8  C   UNK N   1      28.504  18.436   5.592  0.00  0.00     0.367 C 
HETATM    9  N   UNK N   1      28.041  19.118   6.676  0.00  0.00    -0.336 N 
HETATM   10  C   UNK N   1      27.162  20.249   6.521  0.00  0.00     0.154 C 
HETATM   11  C   UNK N   1      28.448  18.734   8.003  0.00  0.00     0.154 C 
HETATM   12  O   UNK N   1      28.167  18.772   4.465  0.00  0.00    -0.238 OA
ENDBRANCH   7   8
ENDBRANCH   1   7
BRANCH   4  13
HETATM   13  N   UNK N   1      33.758  16.919   7.708  0.00  0.00    -0.049 N 
HETATM   14  C   UNK N   1      32.927  16.485   8.800  0.00  0.00     0.278 C 
HETATM   15  C   UNK N   1      34.762  15.904   7.494  0.00  0.00     0.278 C 
HETATM   16  C   UNK N   1      34.400  18.151   8.100  0.00  0.00     0.278 C 
ENDBRANCH   4  13
TORSDOF 3
ENDMDL
MODEL 8
REMARK VINA RESULT:      -5.0      2.335      3.541
REMARK  3 active torsions:
REMARK  status: ('A' for Active; 'I' for Inactive)
REMARK    1  A    between atoms: C_1  and  O_4 
REMARK    2  A    between atoms: O_4  and  C_7 
REMARK    3  A    between atoms: C_5  and  N_9 
REMARK       I    between atoms: C_7  and  N_10 
ROOT
HETATM    1  C   UNK N   1      30.848  17.369   7.966  0.00  0.00     0.083 A 
HETATM    2  C   UNK N   1      29.976  17.364   6.877  0.00  0.00     0.074 A 
HETATM    3  C   UNK N   1      30.445  17.977   9.166  0.00  0.00     0.037 A 
HETATM    4  C   UNK N   1      28.697  17.948   6.954  0.00  0.00     0.138 A 
HETATM    5  C   UNK N   1      29.183  18.571   9.263  0.00  0.00     0.005 A 
HETATM    6  C   UNK N   1      28.319  18.567   8.165  0.00  0.00     0.037 A 
ENDROOT
BRANCH   1   7
HETATM    7  O   UNK N   1      32.077  16.819   7.795  0.00  0.00    -0.261 OA
BRANCH   7   8
HETATM    8  C   UNK N   1      32.956  16.398   8.748  0.00  0.00     0.367 C 
HETATM    9  N   UNK N   1      34.098  17.109   8.955  0.00  0.00    -0.336 N 
HETATM   10  C   UNK N   1      35.043  16.717   9.969  0.00  0.00     0.154 C 
HETATM   11  C   UNK N   1      34.368  18.291   8.177  0.00  0.00     0.154 C 
HETATM   12  O   UNK N   1      32.723  15.401   9.418  0.00  0.00    -0.238 OA
ENDBRANCH   7   8
ENDBRANCH   1   7
BRANCH   4  13
HETATM   13  N   UNK N   1      27.837  17.976   5.795  0.00  0.00    -0.049 N 
HETATM   14  C   UNK N   1      27.144  19.237   5.776  0.00  0.00     0.278 C 
HETATM   15  C   UNK N   1      28.595  17.876   4.571  0.00  0.00     0.278 C 
HETATM   16  C   UNK N   1      26.848  16.925   5.831  0.00  0.00     0.278 C 
ENDBRANCH   4  13
TORSDOF 3
ENDMDL
MODEL 9
REMARK VINA RESULT:      -4.8      3.425      6.404
REMARK  3 active torsions:
REMARK  status: ('A' for Active; 'I' for Inactive)
REMARK    1  A    between atoms: C_1  and  O_4 
REMARK    2  A    between atoms: O_4  and  C_7 
REMARK    3  A    between atoms: C_5  and  N_9 
REMARK       I    between atoms: C_7  and  N_10 
ROOT
HETATM    1  C   UNK N   1      28.553  18.184   7.361  0.00  0.00     0.083 A 
HETATM    2  C   UNK N   1      29.705  17.580   6.858  0.00  0.00     0.074 A 
HETATM    3  C   UNK N   1      28.543  18.647   8.687  0.00  0.00     0.037 A 
HETATM    4  C   UNK N   1      30.862  17.427   7.647  0.00  0.00     0.138 A 
HETATM    5  C   UNK N   1      29.676  18.499   9.492  0.00  0.00     0.005 A 
HETATM    6  C   UNK N   1      30.823  17.885   8.982  0.00  0.00     0.037 A 
ENDROOT
BRANCH   1   7
HETATM    7  O   UNK N   1      27.469  18.257   6.546  0.00  0.00    -0.261 OA
BRANCH   7   8
HETATM    8  C   UNK N   1      27.079  19.289   5.748  0.00  0.00     0.367 C 
HETATM    9  N   UNK N   1      27.092  19.121   4.397  0.00  0.00    -0.336 N 
HETATM   10  C   UNK N   1      26.662  20.175   3.513  0.00  0.00     0.154 C 
HETATM   11  C   UNK N   1      27.510  17.867   3.825  0.00  0.00     0.154 C 
HETATM   12  O   UNK N   1      26.711  20.352   6.231  0.00  0.00    -0.238 OA
ENDBRANCH   7   8
ENDBRANCH   1   7
BRANCH   4  13
HETATM   13  N   UNK N   1      32.021  16.748   7.119  0.00  0.00    -0.049 N 
HETATM   14  C   UNK N   1      32.266  15.579   7.921  0.00  0.00     0.278 C 
HETATM   15  C   UNK N   1      31.802  16.307   5.761  0.00  0.00     0.278 C 
HETATM   16  C   UNK N   1      33.201  17.577   7.167  0.00  0.00     0.278 C 
ENDBRANCH   4  13
TORSDOF 3
ENDMDL
