MODEL 1
REMARK VINA RESULT:      -6.2      0.000      0.000
REMARK  5 active torsions:
REMARK  status: ('A' for Active; 'I' for Inactive)
REMARK    1  A    between atoms: N_8  and  C_15 
REMARK    2  A    between atoms: C_13  and  O_22 
REMARK    3  A    between atoms: C_15  and  C_16 
REMARK    4  A    between atoms: C_16  and  C_17 
REMARK    5  A    between atoms: C_17  and  N_19 
ROOT
HETATM    1  C   UNK N   1      29.071  21.335  -7.099  0.00  0.00     0.002 A 
HETATM    2  C   UNK N   1      28.230  21.403  -8.204  0.00  0.00     0.002 A 
HETATM    3  C   UNK N   1      27.267  22.405  -8.278  0.00  0.00     0.021 A 
HETATM    4  C   UNK N   1      28.943  22.269  -6.068  0.00  0.00     0.031 A 
HETATM    5  C   UNK N   1      27.975  23.296  -6.126  0.00  0.00     0.052 A 
HETATM    6  C   UNK N   1      27.132  23.355  -7.256  0.00  0.00     0.032 A 
HETATM    7  S   UNK N   1      25.833  24.554  -7.484  0.00  0.00    -0.086 SA
HETATM    8  N   UNK N   1      27.890  24.227  -5.031  0.00  0.00    -0.344 N 
HETATM    9  C   UNK N   1      26.980  25.344  -5.024  0.00  0.00     0.054 A 
HETATM   10  C   UNK N   1      26.049  25.593  -6.050  0.00  0.00     0.032 A 
HETATM   11  C   UNK N   1      25.198  26.702  -5.966  0.00  0.00     0.024 A 
HETATM   12  C   UNK N   1      25.269  27.584  -4.889  0.00  0.00     0.038 A 
HETATM   13  C   UNK N   1      26.187  27.362  -3.870  0.00  0.00     0.070 A 
HETATM   14  C   UNK N   1      27.020  26.240  -3.935  0.00  0.00     0.067 A 
ENDROOT
BRANCH   8  15
HETATM   15  C   UNK N   1      28.624  23.928  -3.807  0.00  0.00     0.135 C 
BRANCH  15  16
HETATM   16  C   UNK N   1      30.133  24.214  -3.817  0.00  0.00     0.028 C 
HETATM   17  C   UNK N   1      30.484  25.685  -3.621  0.00  0.00     0.013 C 
BRANCH  16  18
HETATM   18  C   UNK N   1      30.716  23.310  -2.718  0.00  0.00     0.277 C 
BRANCH  18  19
HETATM   19  N   UNK N   1      31.764  22.408  -3.176  0.00  0.00     0.080 N 
HETATM   20  C   UNK N   1      32.234  22.918  -4.450  0.00  0.00     0.309 C 
HETATM   21  C   UNK N   1      31.125  21.133  -3.464  0.00  0.00     0.309 C 
ENDBRANCH  18  19
ENDBRANCH  16  18
ENDBRANCH  15  16
ENDBRANCH   8  15
BRANCH  13  22
HETATM   22  O   UNK N   1      26.268  28.246  -2.846  0.00  0.00    -0.356 OA
HETATM   23  C   UNK N   1      27.148  29.305  -2.834  0.00  0.00     0.210 C 
ENDBRANCH  13  22
TORSDOF 5
ENDMDL
MODEL 2
REMARK VINA RESULT:      -5.9     12.948     15.707
REMARK  5 active torsions:
REMARK  status: ('A' for Active; 'I' for Inactive)
REMARK    1  A    between atoms: N_8  and  C_15 
REMARK    2  A    between atoms: C_13  and  O_22 
REMARK    3  A    between atoms: C_15  and  C_16 
REMARK    4  A    between atoms: C_16  and  C_17 
REMARK    5  A    between atoms: C_17  and  N_19 
ROOT
HETATM    1  C   UNK N   1      29.097  17.866   9.547  0.00  0.00     0.002 A 
HETATM    2  C   UNK N   1      28.203  18.488   8.683  0.00  0.00     0.002 A 
HETATM    3  C   UNK N   1      28.422  18.439   7.310  0.00  0.00     0.021 A 
HETATM    4  C   UNK N   1      30.211  17.198   9.033  0.00  0.00     0.031 A 
HETATM    5  C   UNK N   1      30.450  17.133   7.643  0.00  0.00     0.052 A 
HETATM    6  C   UNK N   1      29.530  17.766   6.778  0.00  0.00     0.032 A 
HETATM    7  S   UNK N   1      29.688  17.819   5.003  0.00  0.00    -0.086 SA
HETATM    8  N   UNK N   1      31.617  16.432   7.174  0.00  0.00    -0.344 N 
HETATM    9  C   UNK N   1      31.915  16.258   5.775  0.00  0.00     0.054 A 
HETATM   10  C   UNK N   1      31.132  16.805   4.742  0.00  0.00     0.032 A 
HETATM   11  C   UNK N   1      31.492  16.589   3.405  0.00  0.00     0.024 A 
HETATM   12  C   UNK N   1      32.605  15.818   3.075  0.00  0.00     0.038 A 
HETATM   13  C   UNK N   1      33.385  15.260   4.079  0.00  0.00     0.070 A 
HETATM   14  C   UNK N   1      33.047  15.496   5.416  0.00  0.00     0.067 A 
ENDROOT
BRANCH   8  15
HETATM   15  C   UNK N   1      32.628  16.040   8.148  0.00  0.00     0.135 C 
BRANCH  15  16
HETATM   16  C   UNK N   1      33.910  16.886   8.194  0.00  0.00     0.028 C 
HETATM   17  C   UNK N   1      33.670  18.380   8.006  0.00  0.00     0.013 C 
BRANCH  16  18
HETATM   18  C   UNK N   1      34.558  16.553   9.548  0.00  0.00     0.277 C 
BRANCH  18  19
HETATM   19  N   UNK N   1      34.709  15.127   9.805  0.00  0.00     0.080 N 
HETATM   20  C   UNK N   1      34.575  14.940  11.238  0.00  0.00     0.309 C 
HETATM   21  C   UNK N   1      36.085  14.783   9.481  0.00  0.00     0.309 C 
ENDBRANCH  18  19
ENDBRANCH  16  18
ENDBRANCH  15  16
ENDBRANCH   8  15
BRANCH  13  22
HETATM   22  O   UNK N   1      34.444  14.485   3.743  0.00  0.00    -0.356 OA
HETATM   23  C   UNK N   1      34.639  13.985   2.474  0.00  0.00     0.210 C 
ENDBRANCH  13  22
TORSDOF 5
ENDMDL
MODEL 3
REMARK VINA RESULT:      -5.8     12.190     13.718
REMARK  5 active torsions:
REMARK  status: ('A' for Active; 'I' for Inactive)
REMARK    1  A    between atoms: N_8  and  C_15 
REMARK    2  A    between atoms: C_13  and  O_22 
REMARK    3  A    between atoms: C_15  and  C_16 
REMARK    4  A    between atoms: C_16  and  C_17 
REMARK    5  A    between atoms: C_17  and  N_19 
ROOT
HETATM    1  C   UNK N   1      24.149  14.135   7.159  0.00  0.00     0.002 A 
HETATM    2  C   UNK N   1      25.537  14.168   7.089  0.00  0.00     0.002 A 
HETATM    3  C   UNK N   1      26.168  15.168   6.354  0.00  0.00     0.021 A 
HETATM    4  C   UNK N   1      23.395  15.103   6.492  0.00  0.00     0.031 A 
HETATM    5  C   UNK N   1      24.015  16.128   5.745  0.00  0.00     0.052 A 
HETATM    6  C   UNK N   1      25.426  16.151   5.686  0.00  0.00     0.032 A 
HETATM    7  S   UNK N   1      26.377  17.344   4.764  0.00  0.00    -0.086 SA
HETATM    8  N   UNK N   1      23.183  17.096   5.077  0.00  0.00    -0.344 N 
HETATM    9  C   UNK N   1      23.720  18.213   4.342  0.00  0.00     0.054 A 
HETATM   10  C   UNK N   1      25.099  18.429   4.157  0.00  0.00     0.032 A 
HETATM   11  C   UNK N   1      25.538  19.541   3.428  0.00  0.00     0.024 A 
HETATM   12  C   UNK N   1      24.632  20.458   2.897  0.00  0.00     0.038 A 
HETATM   13  C   UNK N   1      23.268  20.269   3.077  0.00  0.00     0.070 A 
HETATM   14  C   UNK N   1      22.822  19.144   3.780  0.00  0.00     0.067 A 
ENDROOT
BRANCH   8  15
HETATM   15  C   UNK N   1      21.752  16.836   4.988  0.00  0.00     0.135 C 
BRANCH  15  16
HETATM   16  C   UNK N   1      21.305  15.748   4.000  0.00  0.00     0.028 C 
HETATM   17  C   UNK N   1      20.249  14.802   4.561  0.00  0.00     0.013 C 
BRANCH  16  18
HETATM   18  C   UNK N   1      20.819  16.513   2.758  0.00  0.00     0.277 C 
BRANCH  18  19
HETATM   19  N   UNK N   1      20.372  15.661   1.665  0.00  0.00     0.080 N 
HETATM   20  C   UNK N   1      21.548  14.987   1.147  0.00  0.00     0.309 C 
HETATM   21  C   UNK N   1      19.912  16.543   0.603  0.00  0.00     0.309 C 
ENDBRANCH  18  19
ENDBRANCH  16  18
ENDBRANCH  15  16
ENDBRANCH   8  15
BRANCH  13  22
HETATM   22  O   UNK N   1      22.401  21.186   2.585  0.00  0.00    -0.356 OA
HETATM   23  C   UNK N   1      21.078  20.906   2.323  0.00  0.00     0.210 C 
ENDBRANCH  13  22
TORSDOF 5
ENDMDL
MODEL 4
REMARK VINA RESULT:      -5.7      2.088      5.071
REMARK  5 active torsions:
REMARK  status: ('A' for Active; 'I' for Inactive)
REMARK    1  A    between atoms: N_8  and  C_15 
REMARK    2  A    between atoms: C_13  and  O_22 
REMARK    3  A    between atoms: C_15  and  C_16 
REMARK    4  A    between atoms: C_16  and  C_17 
REMARK    5  A    between atoms: C_17  and  N_19 
ROOT
HETATM    1  C   UNK N   1      26.014  27.421  -3.426  0.00  0.00     0.002 A 
HETATM    2  C   UNK N   1      25.249  27.878  -4.494  0.00  0.00     0.002 A 
HETATM    3  C   UNK N   1      25.284  27.199  -5.708  0.00  0.00     0.021 A 
HETATM    4  C   UNK N   1      26.814  26.286  -3.578  0.00  0.00     0.031 A 
HETATM    5  C   UNK N   1      26.860  25.580  -4.800  0.00  0.00     0.052 A 
HETATM    6  C   UNK N   1      26.076  26.054  -5.874  0.00  0.00     0.032 A 
HETATM    7  S   UNK N   1      26.036  25.316  -7.496  0.00  0.00    -0.086 SA
HETATM    8  N   UNK N   1      27.707  24.419  -4.896  0.00  0.00    -0.344 N 
HETATM    9  C   UNK N   1      27.776  23.598  -6.077  0.00  0.00     0.054 A 
HETATM   10  C   UNK N   1      27.076  23.886  -7.264  0.00  0.00     0.032 A 
HETATM   11  C   UNK N   1      27.199  23.035  -8.370  0.00  0.00     0.024 A 
HETATM   12  C   UNK N   1      27.988  21.888  -8.312  0.00  0.00     0.038 A 
HETATM   13  C   UNK N   1      28.680  21.580  -7.147  0.00  0.00     0.070 A 
HETATM   14  C   UNK N   1      28.583  22.442  -6.049  0.00  0.00     0.067 A 
ENDROOT
BRANCH   8  15
HETATM   15  C   UNK N   1      28.662  24.167  -3.825  0.00  0.00     0.135 C 
BRANCH  15  16
HETATM   16  C   UNK N   1      30.122  24.564  -4.092  0.00  0.00     0.028 C 
HETATM   17  C   UNK N   1      30.469  25.980  -3.644  0.00  0.00     0.013 C 
BRANCH  16  18
HETATM   18  C   UNK N   1      30.962  23.492  -3.378  0.00  0.00     0.277 C 
BRANCH  18  19
HETATM   19  N   UNK N   1      31.415  22.410  -4.243  0.00  0.00     0.080 N 
HETATM   20  C   UNK N   1      31.175  21.170  -3.529  0.00  0.00     0.309 C 
HETATM   21  C   UNK N   1      32.860  22.538  -4.355  0.00  0.00     0.309 C 
ENDBRANCH  18  19
ENDBRANCH  16  18
ENDBRANCH  15  16
ENDBRANCH   8  15
BRANCH  13  22
HETATM   22  O   UNK N   1      29.416  20.445  -7.094  0.00  0.00    -0.356 OA
HETATM   23  C   UNK N   1      29.242  19.392  -7.965  0.00  0.00     0.210 C 
ENDBRANCH  13  22
TORSDOF 5
ENDMDL
MODEL 5
REMARK VINA RESULT:      -5.7      3.184      5.798
REMARK  5 active torsions:
REMARK  status: ('A' for Active; 'I' for Inactive)
REMARK    1  A    between atoms: N_8  and  C_15 
REMARK    2  A    between atoms: C_13  and  O_22 
REMARK    3  A    between atoms: C_15  and  C_16 
REMARK    4  A    between atoms: C_16  and  C_17 
REMARK    5  A    between atoms: C_17  and  N_19 
ROOT
HETATM    1  C   UNK N   1      28.259  30.245  -5.728  0.00  0.00     0.002 A 
HETATM    2  C   UNK N   1      29.190  30.416  -6.745  0.00  0.00     0.002 A 
HETATM    3  C   UNK N   1      29.279  29.474  -7.766  0.00  0.00     0.021 A 
HETATM    4  C   UNK N   1      27.419  29.129  -5.732  0.00  0.00     0.031 A 
HETATM    5  C   UNK N   1      27.490  28.163  -6.760  0.00  0.00     0.052 A 
HETATM    6  C   UNK N   1      28.438  28.353  -7.789  0.00  0.00     0.032 A 
HETATM    7  S   UNK N   1      28.695  27.223  -9.144  0.00  0.00    -0.086 SA
HETATM    8  N   UNK N   1      26.600  27.033  -6.708  0.00  0.00    -0.344 N 
HETATM    9  C   UNK N   1      26.552  26.028  -7.740  0.00  0.00     0.054 A 
HETATM   10  C   UNK N   1      27.409  26.022  -8.857  0.00  0.00     0.032 A 
HETATM   11  C   UNK N   1      27.297  25.006  -9.815  0.00  0.00     0.024 A 
HETATM   12  C   UNK N   1      26.334  24.006  -9.696  0.00  0.00     0.038 A 
HETATM   13  C   UNK N   1      25.472  23.999  -8.607  0.00  0.00     0.070 A 
HETATM   14  C   UNK N   1      25.598  24.995  -7.632  0.00  0.00     0.067 A 
ENDROOT
BRANCH   8  15
HETATM   15  C   UNK N   1      25.846  26.798  -5.483  0.00  0.00     0.135 C 
BRANCH  15  16
HETATM   16  C   UNK N   1      26.650  26.362  -4.249  0.00  0.00     0.028 C 
HETATM   17  C   UNK N   1      26.255  27.090  -2.967  0.00  0.00     0.013 C 
BRANCH  16  18
HETATM   18  C   UNK N   1      26.444  24.841  -4.157  0.00  0.00     0.277 C 
BRANCH  18  19
HETATM   19  N   UNK N   1      27.677  24.067  -4.184  0.00  0.00     0.080 N 
HETATM   20  C   UNK N   1      28.001  23.741  -2.808  0.00  0.00     0.309 C 
HETATM   21  C   UNK N   1      28.727  24.962  -4.645  0.00  0.00     0.309 C 
ENDBRANCH  18  19
ENDBRANCH  16  18
ENDBRANCH  15  16
ENDBRANCH   8  15
BRANCH  13  22
HETATM   22  O   UNK N   1      24.519  23.041  -8.522  0.00  0.00    -0.356 OA
HETATM   23  C   UNK N   1      24.741  21.805  -7.954  0.00  0.00     0.210 C 
ENDBRANCH  13  22
TORSDOF 5
ENDMDL
MODEL 6
REMARK VINA RESULT:      -5.7     11.577     14.117
REMARK  5 active torsions:
REMARK  status: ('A' for Active; 'I' for Inactive)
REMARK    1  A    between atoms: N_8  and  C_15 
REMARK    2  A    between atoms: C_13  and  O_22 
REMARK    3  A    between atoms: C_15  and  C_16 
REMARK    4  A    between atoms: C_16  and  C_17 
REMARK    5  A    between atoms: C_17  and  N_19 
ROOT
HETATM    1  C   UNK N   1      26.621  20.441   4.330  0.00  0.00     0.002 A 
HETATM    2  C   UNK N   1      26.313  20.942   5.590  0.00  0.00     0.002 A 
HETATM    3  C   UNK N   1      26.948  20.422   6.714  0.00  0.00     0.021 A 
HETATM    4  C   UNK N   1      27.563  19.418   4.198  0.00  0.00     0.031 A 
HETATM    5  C   UNK N   1      28.222  18.879   5.325  0.00  0.00     0.052 A 
HETATM    6  C   UNK N   1      27.902  19.401   6.598  0.00  0.00     0.032 A 
HETATM    7  S   UNK N   1      28.603  18.820   8.131  0.00  0.00    -0.086 SA
HETATM    8  N   UNK N   1      29.181  17.824   5.126  0.00  0.00    -0.344 N 
HETATM    9  C   UNK N   1      29.949  17.252   6.202  0.00  0.00     0.054 A 
HETATM   10  C   UNK N   1      29.791  17.624   7.551  0.00  0.00     0.032 A 
HETATM   11  C   UNK N   1      30.579  17.018   8.538  0.00  0.00     0.024 A 
HETATM   12  C   UNK N   1      31.538  16.062   8.208  0.00  0.00     0.038 A 
HETATM   13  C   UNK N   1      31.717  15.688   6.882  0.00  0.00     0.070 A 
HETATM   14  C   UNK N   1      30.914  16.270   5.895  0.00  0.00     0.067 A 
ENDROOT
BRANCH   8  15
HETATM   15  C   UNK N   1      29.249  17.187   3.817  0.00  0.00     0.135 C 
BRANCH  15  16
HETATM   16  C   UNK N   1      28.441  15.893   3.633  0.00  0.00     0.028 C 
HETATM   17  C   UNK N   1      27.044  16.115   3.060  0.00  0.00     0.013 C 
BRANCH  16  18
HETATM   18  C   UNK N   1      29.316  15.001   2.738  0.00  0.00     0.277 C 
BRANCH  18  19
HETATM   19  N   UNK N   1      29.889  13.847   3.419  0.00  0.00     0.080 N 
HETATM   20  C   UNK N   1      31.291  13.793   3.051  0.00  0.00     0.309 C 
HETATM   21  C   UNK N   1      29.273  12.665   2.836  0.00  0.00     0.309 C 
ENDBRANCH  18  19
ENDBRANCH  16  18
ENDBRANCH  15  16
ENDBRANCH   8  15
BRANCH  13  22
HETATM   22  O   UNK N   1      32.677  14.784   6.572  0.00  0.00    -0.356 OA
HETATM   23  C   UNK N   1      33.684  15.035   5.666  0.00  0.00     0.210 C 
ENDBRANCH  13  22
TORSDOF 5
ENDMDL
MODEL 7
REMARK VINA RESULT:      -5.7      2.425      5.113
REMARK  5 active torsions:
REMARK  status: ('A' for Active; 'I' for Inactive)
REMARK    1  A    between atoms: N_8  and  C_15 
REMARK    2  A    between atoms: C_13  and  O_22 
REMARK    3  A    between atoms: C_15  and  C_16 
REMARK    4  A    between atoms: C_16  and  C_17 
REMARK    5  A    between atoms: C_17  and  N_19 
ROOT
HETATM    1  C   UNK N   1      31.397  28.761  -2.245  0.00  0.00     0.002 A 
HETATM    2  C   UNK N   1      30.689  29.929  -1.982  0.00  0.00     0.002 A 
HETATM    3  C   UNK N   1      29.381  30.060  -2.440  0.00  0.00     0.021 A 
HETATM    4  C   UNK N   1      30.795  27.729  -2.967  0.00  0.00     0.031 A 
HETATM    5  C   UNK N   1      29.468  27.840  -3.437  0.00  0.00     0.052 A 
HETATM    6  C   UNK N   1      28.760  29.030  -3.160  0.00  0.00     0.032 A 
HETATM    7  S   UNK N   1      27.095  29.363  -3.703  0.00  0.00    -0.086 SA
HETATM    8  N   UNK N   1      28.903  26.743  -4.179  0.00  0.00    -0.344 N 
HETATM    9  C   UNK N   1      27.540  26.736  -4.647  0.00  0.00     0.054 A 
HETATM   10  C   UNK N   1      26.657  27.819  -4.479  0.00  0.00     0.032 A 
HETATM   11  C   UNK N   1      25.346  27.730  -4.965  0.00  0.00     0.024 A 
HETATM   12  C   UNK N   1      24.888  26.575  -5.597  0.00  0.00     0.038 A 
HETATM   13  C   UNK N   1      25.741  25.491  -5.763  0.00  0.00     0.070 A 
HETATM   14  C   UNK N   1      27.060  25.584  -5.305  0.00  0.00     0.067 A 
ENDROOT
BRANCH   8  15
HETATM   15  C   UNK N   1      29.792  25.679  -4.629  0.00  0.00     0.135 C 
BRANCH  15  16
HETATM   16  C   UNK N   1      30.239  24.657  -3.572  0.00  0.00     0.028 C 
HETATM   17  C   UNK N   1      29.192  23.592  -3.263  0.00  0.00     0.013 C 
BRANCH  16  18
HETATM   18  C   UNK N   1      31.548  24.065  -4.121  0.00  0.00     0.277 C 
BRANCH  18  19
HETATM   19  N   UNK N   1      31.434  22.689  -4.586  0.00  0.00     0.080 N 
HETATM   20  C   UNK N   1      32.493  21.936  -3.940  0.00  0.00     0.309 C 
HETATM   21  C   UNK N   1      31.754  22.697  -6.006  0.00  0.00     0.309 C 
ENDBRANCH  18  19
ENDBRANCH  16  18
ENDBRANCH  15  16
ENDBRANCH   8  15
BRANCH  13  22
HETATM   22  O   UNK N   1      25.272  24.363  -6.348  0.00  0.00    -0.356 OA
HETATM   23  C   UNK N   1      25.985  23.185  -6.389  0.00  0.00     0.210 C 
ENDBRANCH  13  22
TORSDOF 5
ENDMDL
MODEL 8
REMARK VINA RESULT:      -5.6      3.066      6.850
REMARK  5 active torsions:
REMARK  status: ('A' for Active; 'I' for Inactive)
REMARK    1  A    between atoms: N_8  and  C_15 
REMARK    2  A    between atoms: C_13  and  O_22 
REMARK    3  A    between atoms: C_15  and  C_16 
REMARK    4  A    between atoms: C_16  and  C_17 
REMARK    5  A    between atoms: C_17  and  N_19 
ROOT
HETATM    1  C   UNK N   1      25.159  26.582  -5.992  0.00  0.00     0.002 A 
HETATM    2  C   UNK N   1      25.598  26.959  -4.728  0.00  0.00     0.002 A 
HETATM    3  C   UNK N   1      26.601  26.226  -4.099  0.00  0.00     0.021 A 
HETATM    4  C   UNK N   1      25.722  25.471  -6.623  0.00  0.00     0.031 A 
HETATM    5  C   UNK N   1      26.743  24.716  -6.004  0.00  0.00     0.052 A 
HETATM    6  C   UNK N   1      27.181  25.113  -4.721  0.00  0.00     0.032 A 
HETATM    7  S   UNK N   1      28.429  24.262  -3.775  0.00  0.00    -0.086 SA
HETATM    8  N   UNK N   1      27.282  23.578  -6.703  0.00  0.00    -0.344 N 
HETATM    9  C   UNK N   1      28.365  22.784  -6.183  0.00  0.00     0.054 A 
HETATM   10  C   UNK N   1      28.954  23.003  -4.923  0.00  0.00     0.032 A 
HETATM   11  C   UNK N   1      30.004  22.183  -4.492  0.00  0.00     0.024 A 
HETATM   12  C   UNK N   1      30.498  21.160  -5.300  0.00  0.00     0.038 A 
HETATM   13  C   UNK N   1      29.938  20.932  -6.551  0.00  0.00     0.070 A 
HETATM   14  C   UNK N   1      28.869  21.730  -6.975  0.00  0.00     0.067 A 
ENDROOT
BRANCH   8  15
HETATM   15  C   UNK N   1      26.589  23.105  -7.894  0.00  0.00     0.135 C 
BRANCH  15  16
HETATM   16  C   UNK N   1      26.011  21.682  -7.840  0.00  0.00     0.028 C 
HETATM   17  C   UNK N   1      24.653  21.595  -7.151  0.00  0.00     0.013 C 
BRANCH  16  18
HETATM   18  C   UNK N   1      25.968  21.214  -9.304  0.00  0.00     0.277 C 
BRANCH  18  19
HETATM   19  N   UNK N   1      26.906  21.901 -10.181  0.00  0.00     0.080 N 
HETATM   20  C   UNK N   1      26.207  22.164 -11.425  0.00  0.00     0.309 C 
HETATM   21  C   UNK N   1      27.957  20.948 -10.503  0.00  0.00     0.309 C 
ENDBRANCH  18  19
ENDBRANCH  16  18
ENDBRANCH  15  16
ENDBRANCH   8  15
BRANCH  13  22
HETATM   22  O   UNK N   1      30.449  19.957  -7.339  0.00  0.00    -0.356 OA
HETATM   23  C   UNK N   1      29.684  18.945  -7.877  0.00  0.00     0.210 C 
ENDBRANCH  13  22
TORSDOF 5
ENDMDL
MODEL 9
REMARK VINA RESULT:      -5.5     12.514     13.964
REMARK  5 active torsions:
REMARK  status: ('A' for Active; 'I' for Inactive)
REMARK    1  A    between atoms: N_8  and  C_15 
REMARK    2  A    between atoms: C_13  and  O_22 
REMARK    3  A    between atoms: C_15  and  C_16 
REMARK    4  A    between atoms: C_16  and  C_17 
REMARK    5  A    between atoms: C_17  and  N_19 
ROOT
HETATM    1  C   UNK N   1      19.765  18.994   2.699  0.00  0.00     0.002 A 
HETATM    2  C   UNK N   1      20.144  20.226   2.178  0.00  0.00     0.002 A 
HETATM    3  C   UNK N   1      21.462  20.655   2.307  0.00  0.00     0.021 A 
HETATM    4  C   UNK N   1      20.707  18.195   3.350  0.00  0.00     0.031 A 
HETATM    5  C   UNK N   1      22.050  18.609   3.489  0.00  0.00     0.052 A 
HETATM    6  C   UNK N   1      22.420  19.861   2.951  0.00  0.00     0.032 A 
HETATM    7  S   UNK N   1      24.055  20.562   3.062  0.00  0.00    -0.086 SA
HETATM    8  N   UNK N   1      22.973  17.742   4.173  0.00  0.00    -0.344 N 
HETATM    9  C   UNK N   1      24.375  18.046   4.312  0.00  0.00     0.054 A 
HETATM   10  C   UNK N   1      24.958  19.241   3.849  0.00  0.00     0.032 A 
HETATM   11  C   UNK N   1      26.331  19.459   4.024  0.00  0.00     0.024 A 
HETATM   12  C   UNK N   1      27.141  18.502   4.632  0.00  0.00     0.038 A 
HETATM   13  C   UNK N   1      26.587  17.312   5.087  0.00  0.00     0.070 A 
HETATM   14  C   UNK N   1      25.211  17.100   4.940  0.00  0.00     0.067 A 
ENDROOT
BRANCH   8  15
HETATM   15  C   UNK N   1      22.440  16.603   4.909  0.00  0.00     0.135 C 
BRANCH  15  16
HETATM   16  C   UNK N   1      22.251  16.782   6.423  0.00  0.00     0.028 C 
HETATM   17  C   UNK N   1      20.990  17.554   6.800  0.00  0.00     0.013 C 
BRANCH  16  18
HETATM   18  C   UNK N   1      22.270  15.357   6.998  0.00  0.00     0.277 C 
BRANCH  18  19
HETATM   19  N   UNK N   1      20.983  14.895   7.499  0.00  0.00     0.080 N 
HETATM   20  C   UNK N   1      21.171  14.553   8.896  0.00  0.00     0.309 C 
HETATM   21  C   UNK N   1      20.688  13.645   6.815  0.00  0.00     0.309 C 
ENDBRANCH  18  19
ENDBRANCH  16  18
ENDBRANCH  15  16
ENDBRANCH   8  15
BRANCH  13  22
HETATM   22  O   UNK N   1      27.392  16.376   5.644  0.00  0.00    -0.356 OA
HETATM   23  C   UNK N   1      28.703  16.619   5.989  0.00  0.00     0.210 C 
ENDBRANCH  13  22
TORSDOF 5
ENDMDL
