MODEL 1
REMARK VINA RESULT:      -8.1      0.000      0.000
REMARK  1 active torsions:
REMARK  status: ('A' for Active; 'I' for Inactive)
REMARK    1  A    between atoms: C_11  and  O_1 
ROOT
HETATM    1  O   UNK N   1      35.461  14.747  18.630  0.00  0.00    -0.238 OA
HETATM    2  N   UNK N   1      36.058  15.885  18.401  0.00  0.00    -0.271 N 
ATOM      3  HN  UNK N   1      36.054  16.699  19.016  1.00  0.00     0.194 HD
HETATM    4  C   UNK N   1      35.088  10.597  12.745  0.00  0.00     0.002 C 
HETATM    5  C   UNK N   1      35.839  11.375  11.610  0.00  0.00     0.003 C 
HETATM    6  C   UNK N   1      34.268  11.513  13.706  0.00  0.00    -0.004 C 
HETATM    7  C   UNK N   1      35.028  12.807  14.077  0.00  0.00     0.003 C 
HETATM    8  C   UNK N   1      36.143  12.570  15.146  0.00  0.00    -0.013 C 
HETATM    9  C   UNK N   1      35.221  12.780  11.477  0.00  0.00     0.014 C 
HETATM   10  C   UNK N   1      35.653  10.455  10.396  0.00  0.00     0.128 C 
HETATM   11  C   UNK N   1      35.470  13.564  12.792  0.00  0.00     0.007 C 
HETATM   12  C   UNK N   1      34.097   9.674  12.021  0.00  0.00     0.010 C 
HETATM   13  C   UNK N   1      33.716  10.774  14.947  0.00  0.00     0.010 C 
HETATM   14  C   UNK N   1      34.226   9.983  10.534  0.00  0.00     0.052 C 
HETATM   15  C   UNK N   1      35.403  11.915  16.323  0.00  0.00    -0.068 C 
HETATM   16  C   UNK N   1      37.339  11.585  11.845  0.00  0.00     0.020 C 
HETATM   17  C   UNK N   1      34.746  10.591  16.067  0.00  0.00     0.035 C 
HETATM   18  C   UNK N   1      36.870  13.909  15.442  0.00  0.00     0.057 C 
HETATM   19  C   UNK N   1      37.248  11.615  14.722  0.00  0.00     0.021 C 
HETATM   20  C   UNK N   1      35.890  11.076   9.084  0.00  0.00    -0.078 C 
HETATM   21  C   UNK N   1      35.170  12.555  17.483  0.00  0.00     0.043 C 
HETATM   22  C   UNK N   1      36.430  14.540  16.709  0.00  0.00    -0.004 A 
HETATM   23  C   UNK N   1      35.669  13.919  17.640  0.00  0.00     0.106 A 
HETATM   24  C   UNK N   1      36.687  15.796  17.204  0.00  0.00     0.124 A 
HETATM   25  C   UNK N   1      36.080  11.570   7.998  0.00  0.00     0.015 C 
ENDROOT
BRANCH  10  26
HETATM   26  O   UNK N   1      36.492   9.334  10.508  0.00  0.00    -0.377 OA
HETATM   27  H   UNK N   1      36.962   8.499  10.357  0.00  0.00     0.211 HD
ENDBRANCH  10  26
TORSDOF 1
ENDMDL
MODEL 2
REMARK VINA RESULT:      -8.0      2.202      3.637
REMARK  1 active torsions:
REMARK  status: ('A' for Active; 'I' for Inactive)
REMARK    1  A    between atoms: C_11  and  O_1 
ROOT
HETATM    1  O   UNK N   1      35.170  13.553  19.465  0.00  0.00    -0.238 OA
HETATM    2  N   UNK N   1      35.300  12.691  20.438  0.00  0.00    -0.271 N 
ATOM      3  HN  UNK N   1      35.344  12.912  21.433  1.00  0.00     0.194 HD
HETATM    4  C   UNK N   1      36.584  10.661  13.013  0.00  0.00     0.002 C 
HETATM    5  C   UNK N   1      36.887   9.145  13.268  0.00  0.00     0.003 C 
HETATM    6  C   UNK N   1      37.128  11.612  14.124  0.00  0.00    -0.004 C 
HETATM    7  C   UNK N   1      36.907  11.044  15.545  0.00  0.00     0.003 C 
HETATM    8  C   UNK N   1      35.432  11.202  16.038  0.00  0.00    -0.013 C 
HETATM    9  C   UNK N   1      38.014   9.031  14.312  0.00  0.00     0.014 C 
HETATM   10  C   UNK N   1      37.236   8.633  11.863  0.00  0.00     0.128 C 
HETATM   11  C   UNK N   1      37.510   9.615  15.659  0.00  0.00     0.007 C 
HETATM   12  C   UNK N   1      37.310  11.009  11.705  0.00  0.00     0.010 C 
HETATM   13  C   UNK N   1      36.637  13.072  13.987  0.00  0.00     0.010 C 
HETATM   14  C   UNK N   1      38.064   9.754  11.283  0.00  0.00     0.052 C 
HETATM   15  C   UNK N   1      35.152  12.707  15.911  0.00  0.00    -0.068 C 
HETATM   16  C   UNK N   1      35.711   8.326  13.812  0.00  0.00     0.020 C 
HETATM   17  C   UNK N   1      35.225  13.304  14.537  0.00  0.00     0.035 C 
HETATM   18  C   UNK N   1      35.291  10.587  17.456  0.00  0.00     0.057 C 
HETATM   19  C   UNK N   1      34.392  10.478  15.197  0.00  0.00     0.021 C 
HETATM   20  C   UNK N   1      37.954   7.351  11.811  0.00  0.00    -0.078 C 
HETATM   21  C   UNK N   1      35.033  13.518  16.979  0.00  0.00     0.043 C 
HETATM   22  C   UNK N   1      35.276  11.606  18.532  0.00  0.00    -0.004 A 
HETATM   23  C   UNK N   1      35.145  12.936  18.313  0.00  0.00     0.106 A 
HETATM   24  C   UNK N   1      35.364  11.452  19.894  0.00  0.00     0.124 A 
HETATM   25  C   UNK N   1      38.544   6.298  11.751  0.00  0.00     0.015 C 
ENDROOT
BRANCH  10  26
HETATM   26  O   UNK N   1      36.068   8.515  11.090  0.00  0.00    -0.377 OA
HETATM   27  H   UNK N   1      35.376   8.209  10.484  0.00  0.00     0.211 HD
ENDBRANCH  10  26
TORSDOF 1
ENDMDL
MODEL 3
REMARK VINA RESULT:      -7.8      2.497      3.943
REMARK  1 active torsions:
REMARK  status: ('A' for Active; 'I' for Inactive)
REMARK    1  A    between atoms: C_11  and  O_1 
ROOT
HETATM    1  O   UNK N   1      36.485   9.865  20.097  0.00  0.00    -0.238 OA
HETATM    2  N   UNK N   1      36.845   8.617  19.959  0.00  0.00    -0.271 N 
ATOM      3  HN  UNK N   1      37.210   8.014  20.696  1.00  0.00     0.194 HD
HETATM    4  C   UNK N   1      35.631  13.201  13.762  0.00  0.00     0.002 C 
HETATM    5  C   UNK N   1      35.888  12.119  12.657  0.00  0.00     0.003 C 
HETATM    6  C   UNK N   1      36.558  13.065  15.009  0.00  0.00    -0.004 C 
HETATM    7  C   UNK N   1      36.745  11.594  15.447  0.00  0.00     0.003 C 
HETATM    8  C   UNK N   1      35.509  11.030  16.219  0.00  0.00    -0.013 C 
HETATM    9  C   UNK N   1      37.270  11.482  12.895  0.00  0.00     0.014 C 
HETATM   10  C   UNK N   1      35.749  12.928  11.359  0.00  0.00     0.128 C 
HETATM   11  C   UNK N   1      37.249  10.733  14.254  0.00  0.00     0.007 C 
HETATM   12  C   UNK N   1      35.942  14.549  13.094  0.00  0.00     0.010 C 
HETATM   13  C   UNK N   1      36.156  13.986  16.184  0.00  0.00     0.010 C 
HETATM   14  C   UNK N   1      36.437  14.230  11.688  0.00  0.00     0.052 C 
HETATM   15  C   UNK N   1      35.312  12.013  17.384  0.00  0.00    -0.068 C 
HETATM   16  C   UNK N   1      34.880  10.964  12.628  0.00  0.00     0.020 C 
HETATM   17  C   UNK N   1      35.002  13.437  17.033  0.00  0.00     0.035 C 
HETATM   18  C   UNK N   1      35.768   9.548  16.599  0.00  0.00     0.057 C 
HETATM   19  C   UNK N   1      34.211  11.006  15.427  0.00  0.00     0.021 C 
HETATM   20  C   UNK N   1      36.322  12.305  10.156  0.00  0.00    -0.078 C 
HETATM   21  C   UNK N   1      35.587  11.692  18.662  0.00  0.00     0.043 C 
HETATM   22  C   UNK N   1      36.157   9.371  18.018  0.00  0.00    -0.004 A 
HETATM   23  C   UNK N   1      36.063  10.343  18.955  0.00  0.00     0.106 A 
HETATM   24  C   UNK N   1      36.649   8.264  18.666  0.00  0.00     0.124 A 
HETATM   25  C   UNK N   1      36.787  11.808   9.158  0.00  0.00     0.015 C 
ENDROOT
BRANCH  10  26
HETATM   26  O   UNK N   1      34.395  13.206  11.108  0.00  0.00    -0.377 OA
HETATM   27  H   UNK N   1      33.487  13.545  11.148  0.00  0.00     0.211 HD
ENDBRANCH  10  26
TORSDOF 1
ENDMDL
MODEL 4
REMARK VINA RESULT:      -7.8     20.126     22.456
REMARK  1 active torsions:
REMARK  status: ('A' for Active; 'I' for Inactive)
REMARK    1  A    between atoms: C_11  and  O_1 
ROOT
HETATM    1  O   UNK N   1      25.803  24.452  -4.625  0.00  0.00    -0.238 OA
HETATM    2  N   UNK N   1      25.194  24.126  -5.733  0.00  0.00    -0.271 N 
ATOM      3  HN  UNK N   1      24.197  24.230  -5.922  1.00  0.00     0.194 HD
HETATM    4  C   UNK N   1      32.458  21.705  -4.230  0.00  0.00     0.002 C 
HETATM    5  C   UNK N   1      32.704  20.953  -5.583  0.00  0.00     0.003 C 
HETATM    6  C   UNK N   1      30.999  21.579  -3.690  0.00  0.00    -0.004 C 
HETATM    7  C   UNK N   1      29.944  21.713  -4.812  0.00  0.00     0.003 C 
HETATM    8  C   UNK N   1      29.722  23.193  -5.261  0.00  0.00    -0.013 C 
HETATM    9  C   UNK N   1      31.572  19.930  -5.797  0.00  0.00     0.014 C 
HETATM   10  C   UNK N   1      34.104  20.354  -5.382  0.00  0.00     0.128 C 
HETATM   11  C   UNK N   1      30.230  20.694  -5.952  0.00  0.00     0.007 C 
HETATM   12  C   UNK N   1      33.391  21.032  -3.212  0.00  0.00     0.010 C 
HETATM   13  C   UNK N   1      30.702  22.499  -2.484  0.00  0.00     0.010 C 
HETATM   14  C   UNK N   1      34.077  19.886  -3.947  0.00  0.00     0.052 C 
HETATM   15  C   UNK N   1      29.358  23.930  -3.963  0.00  0.00    -0.068 C 
HETATM   16  C   UNK N   1      32.724  21.843  -6.830  0.00  0.00     0.020 C 
HETATM   17  C   UNK N   1      30.389  23.948  -2.874  0.00  0.00     0.035 C 
HETATM   18  C   UNK N   1      28.669  23.236  -6.401  0.00  0.00     0.057 C 
HETATM   19  C   UNK N   1      30.948  23.881  -5.840  0.00  0.00     0.021 C 
HETATM   20  C   UNK N   1      34.467  19.261  -6.297  0.00  0.00    -0.078 C 
HETATM   21  C   UNK N   1      28.117  24.382  -3.706  0.00  0.00     0.043 C 
HETATM   22  C   UNK N   1      27.327  23.658  -5.937  0.00  0.00    -0.004 A 
HETATM   23  C   UNK N   1      27.081  24.190  -4.716  0.00  0.00     0.106 A 
HETATM   24  C   UNK N   1      26.118  23.628  -6.589  0.00  0.00     0.124 A 
HETATM   25  C   UNK N   1      34.781  18.363  -7.041  0.00  0.00     0.015 C 
ENDROOT
BRANCH  10  26
HETATM   26  O   UNK N   1      35.078  21.360  -5.490  0.00  0.00    -0.377 OA
HETATM   27  H   UNK N   1      35.892  21.883  -5.429  0.00  0.00     0.211 HD
ENDBRANCH  10  26
TORSDOF 1
ENDMDL
MODEL 5
REMARK VINA RESULT:      -7.7      2.924      6.175
REMARK  1 active torsions:
REMARK  status: ('A' for Active; 'I' for Inactive)
REMARK    1  A    between atoms: C_11  and  O_1 
ROOT
HETATM    1  O   UNK N   1      35.445  15.109  11.146  0.00  0.00    -0.238 OA
HETATM    2  N   UNK N   1      35.043  14.357  10.157  0.00  0.00    -0.271 N 
ATOM      3  HN  UNK N   1      34.713  14.687   9.250  1.00  0.00     0.194 HD
HETATM    4  C   UNK N   1      35.954  11.463  17.346  0.00  0.00     0.002 C 
HETATM    5  C   UNK N   1      35.595   9.974  17.012  0.00  0.00     0.003 C 
HETATM    6  C   UNK N   1      35.111  12.512  16.557  0.00  0.00    -0.004 C 
HETATM    7  C   UNK N   1      34.915  12.115  15.075  0.00  0.00     0.003 C 
HETATM    8  C   UNK N   1      36.186  12.380  14.204  0.00  0.00    -0.013 C 
HETATM    9  C   UNK N   1      34.215   9.938  16.327  0.00  0.00     0.014 C 
HETATM   10  C   UNK N   1      35.666   9.297  18.387  0.00  0.00     0.128 C 
HETATM   11  C   UNK N   1      34.309  10.687  14.971  0.00  0.00     0.007 C 
HETATM   12  C   UNK N   1      35.635  11.635  18.839  0.00  0.00     0.010 C 
HETATM   13  C   UNK N   1      35.617  13.964  16.719  0.00  0.00     0.010 C 
HETATM   14  C   UNK N   1      35.037  10.314  19.308  0.00  0.00     0.052 C 
HETATM   15  C   UNK N   1      36.487  13.871  14.422  0.00  0.00    -0.068 C 
HETATM   16  C   UNK N   1      36.567   9.266  16.062  0.00  0.00     0.020 C 
HETATM   17  C   UNK N   1      36.810  14.307  15.820  0.00  0.00     0.035 C 
HETATM   18  C   UNK N   1      35.914  11.934  12.743  0.00  0.00     0.057 C 
HETATM   19  C   UNK N   1      37.425  11.605  14.621  0.00  0.00     0.021 C 
HETATM   20  C   UNK N   1      34.997   7.991  18.490  0.00  0.00    -0.078 C 
HETATM   21  C   UNK N   1      36.291  14.800  13.468  0.00  0.00     0.043 C 
HETATM   22  C   UNK N   1      35.617  13.067  11.835  0.00  0.00    -0.004 A 
HETATM   23  C   UNK N   1      35.801  14.368  12.163  0.00  0.00     0.106 A 
HETATM   24  C   UNK N   1      35.141  13.063  10.546  0.00  0.00     0.124 A 
HETATM   25  C   UNK N   1      34.451   6.918  18.592  0.00  0.00     0.015 C 
ENDROOT
BRANCH  10  26
HETATM   26  O   UNK N   1      37.007   9.134  18.775  0.00  0.00    -0.377 OA
HETATM   27  H   UNK N   1      37.838   8.803  19.149  0.00  0.00     0.211 HD
ENDBRANCH  10  26
TORSDOF 1
ENDMDL
MODEL 6
REMARK VINA RESULT:      -7.6     20.812     24.461
REMARK  1 active torsions:
REMARK  status: ('A' for Active; 'I' for Inactive)
REMARK    1  A    between atoms: C_11  and  O_1 
ROOT
HETATM    1  O   UNK N   1      31.248  19.631  -5.051  0.00  0.00    -0.238 OA
HETATM    2  N   UNK N   1      32.081  19.818  -4.063  0.00  0.00    -0.271 N 
ATOM      3  HN  UNK N   1      32.627  19.095  -3.594  1.00  0.00     0.194 HD
HETATM    4  C   UNK N   1      27.027  25.359  -6.219  0.00  0.00     0.002 C 
HETATM    5  C   UNK N   1      27.489  26.460  -5.204  0.00  0.00     0.003 C 
HETATM    6  C   UNK N   1      27.068  23.909  -5.644  0.00  0.00    -0.004 C 
HETATM    7  C   UNK N   1      28.335  23.647  -4.797  0.00  0.00     0.003 C 
HETATM    8  C   UNK N   1      29.609  23.409  -5.671  0.00  0.00    -0.013 C 
HETATM    9  C   UNK N   1      27.442  25.875  -3.780  0.00  0.00     0.014 C 
HETATM   10  C   UNK N   1      26.503  27.604  -5.480  0.00  0.00     0.128 C 
HETATM   11  C   UNK N   1      28.471  24.718  -3.678  0.00  0.00     0.007 C 
HETATM   12  C   UNK N   1      25.563  25.691  -6.543  0.00  0.00     0.010 C 
HETATM   13  C   UNK N   1      26.828  22.813  -6.707  0.00  0.00     0.010 C 
HETATM   14  C   UNK N   1      25.189  26.888  -5.677  0.00  0.00     0.052 C 
HETATM   15  C   UNK N   1      29.218  22.246  -6.597  0.00  0.00    -0.068 C 
HETATM   16  C   UNK N   1      28.916  26.980  -5.410  0.00  0.00     0.020 C 
HETATM   17  C   UNK N   1      28.072  22.474  -7.537  0.00  0.00     0.035 C 
HETATM   18  C   UNK N   1      30.835  23.179  -4.748  0.00  0.00     0.057 C 
HETATM   19  C   UNK N   1      30.007  24.576  -6.560  0.00  0.00     0.021 C 
HETATM   20  C   UNK N   1      26.405  28.629  -4.430  0.00  0.00    -0.078 C 
HETATM   21  C   UNK N   1      29.728  21.008  -6.465  0.00  0.00     0.043 C 
HETATM   22  C   UNK N   1      31.211  21.751  -4.627  0.00  0.00    -0.004 A 
HETATM   23  C   UNK N   1      30.716  20.768  -5.417  0.00  0.00     0.106 A 
HETATM   24  C   UNK N   1      32.092  21.141  -3.768  0.00  0.00     0.124 A 
HETATM   25  C   UNK N   1      26.313  29.479  -3.577  0.00  0.00     0.015 C 
ENDROOT
BRANCH  10  26
HETATM   26  O   UNK N   1      26.832  28.242  -6.688  0.00  0.00    -0.377 OA
HETATM   27  H   UNK N   1      26.829  28.585  -7.595  0.00  0.00     0.211 HD
ENDBRANCH  10  26
TORSDOF 1
ENDMDL
MODEL 7
REMARK VINA RESULT:      -7.5      4.393      6.562
REMARK  1 active torsions:
REMARK  status: ('A' for Active; 'I' for Inactive)
REMARK    1  A    between atoms: C_11  and  O_1 
ROOT
HETATM    1  O   UNK N   1      36.989  11.829  13.514  0.00  0.00    -0.238 OA
HETATM    2  N   UNK N   1      36.017  11.835  14.386  0.00  0.00    -0.271 N 
ATOM      3  HN  UNK N   1      35.954  11.248  15.218  1.00  0.00     0.194 HD
HETATM    4  C   UNK N   1      35.276  15.342   7.454  0.00  0.00     0.002 C 
HETATM    5  C   UNK N   1      33.839  15.927   7.676  0.00  0.00     0.003 C 
HETATM    6  C   UNK N   1      35.491  13.931   8.085  0.00  0.00    -0.004 C 
HETATM    7  C   UNK N   1      34.854  13.811   9.489  0.00  0.00     0.003 C 
HETATM    8  C   UNK N   1      35.701  14.512  10.600  0.00  0.00    -0.013 C 
HETATM    9  C   UNK N   1      32.891  14.779   8.073  0.00  0.00     0.014 C 
HETATM   10  C   UNK N   1      33.538  16.593   6.327  0.00  0.00     0.128 C 
HETATM   11  C   UNK N   1      33.349  14.199   9.438  0.00  0.00     0.007 C 
HETATM   12  C   UNK N   1      35.429  15.200   5.932  0.00  0.00     0.010 C 
HETATM   13  C   UNK N   1      36.963  13.458   8.060  0.00  0.00     0.010 C 
HETATM   14  C   UNK N   1      34.094  15.612   5.324  0.00  0.00     0.052 C 
HETATM   15  C   UNK N   1      37.089  13.864  10.481  0.00  0.00    -0.068 C 
HETATM   16  C   UNK N   1      33.727  16.981   8.783  0.00  0.00     0.020 C 
HETATM   17  C   UNK N   1      37.821  14.047   9.185  0.00  0.00     0.035 C 
HETATM   18  C   UNK N   1      34.983  14.366  11.968  0.00  0.00     0.057 C 
HETATM   19  C   UNK N   1      35.887  16.010  10.419  0.00  0.00     0.021 C 
HETATM   20  C   UNK N   1      32.121  16.887   6.063  0.00  0.00    -0.078 C 
HETATM   21  C   UNK N   1      37.574  13.007  11.399  0.00  0.00     0.043 C 
HETATM   22  C   UNK N   1      35.574  13.311  12.825  0.00  0.00    -0.004 A 
HETATM   23  C   UNK N   1      36.757  12.704  12.571  0.00  0.00     0.106 A 
HETATM   24  C   UNK N   1      35.108  12.760  13.994  0.00  0.00     0.124 A 
HETATM   25  C   UNK N   1      30.961  17.136   5.830  0.00  0.00     0.015 C 
ENDROOT
BRANCH  10  26
HETATM   26  O   UNK N   1      34.264  17.790   6.208  0.00  0.00    -0.377 OA
HETATM   27  H   UNK N   1      34.936  18.486   6.274  0.00  0.00     0.211 HD
ENDBRANCH  10  26
TORSDOF 1
ENDMDL
MODEL 8
REMARK VINA RESULT:      -7.4      6.051      9.586
REMARK  1 active torsions:
REMARK  status: ('A' for Active; 'I' for Inactive)
REMARK    1  A    between atoms: C_11  and  O_1 
ROOT
HETATM    1  O   UNK N   1      30.629  15.925   3.618  0.00  0.00    -0.238 OA
HETATM    2  N   UNK N   1      30.407  14.718   3.172  0.00  0.00    -0.271 N 
ATOM      3  HN  UNK N   1      29.669  14.445   2.523  1.00  0.00     0.194 HD
HETATM    4  C   UNK N   1      35.115  15.996   9.262  0.00  0.00     0.002 C 
HETATM    5  C   UNK N   1      35.554  14.509   9.494  0.00  0.00     0.003 C 
HETATM    6  C   UNK N   1      33.627  16.157   8.823  0.00  0.00    -0.004 C 
HETATM    7  C   UNK N   1      33.201  15.092   7.786  0.00  0.00     0.003 C 
HETATM    8  C   UNK N   1      33.730  15.400   6.348  0.00  0.00    -0.013 C 
HETATM    9  C   UNK N   1      34.293  13.638   9.654  0.00  0.00     0.014 C 
HETATM   10  C   UNK N   1      36.445  14.614  10.740  0.00  0.00     0.128 C 
HETATM   11  C   UNK N   1      33.494  13.663   8.324  0.00  0.00     0.007 C 
HETATM   12  C   UNK N   1      35.276  16.687  10.625  0.00  0.00     0.010 C 
HETATM   13  C   UNK N   1      33.263  17.593   8.380  0.00  0.00     0.010 C 
HETATM   14  C   UNK N   1      35.710  15.606  11.609  0.00  0.00     0.052 C 
HETATM   15  C   UNK N   1      33.207  16.814   6.050  0.00  0.00    -0.068 C 
HETATM   16  C   UNK N   1      36.368  13.884   8.357  0.00  0.00     0.020 C 
HETATM   17  C   UNK N   1      33.680  17.922   6.942  0.00  0.00     0.035 C 
HETATM   18  C   UNK N   1      33.280  14.275   5.378  0.00  0.00     0.057 C 
HETATM   19  C   UNK N   1      35.244  15.444   6.215  0.00  0.00     0.021 C 
HETATM   20  C   UNK N   1      36.692  13.353  11.455  0.00  0.00    -0.078 C 
HETATM   21  C   UNK N   1      32.223  17.054   5.163  0.00  0.00     0.043 C 
HETATM   22  C   UNK N   1      32.122  14.661   4.538  0.00  0.00    -0.004 A 
HETATM   23  C   UNK N   1      31.652  15.926   4.432  0.00  0.00     0.106 A 
HETATM   24  C   UNK N   1      31.329  13.892   3.722  0.00  0.00     0.124 A 
HETATM   25  C   UNK N   1      36.905  12.326  12.055  0.00  0.00     0.015 C 
ENDROOT
BRANCH  10  26
HETATM   26  O   UNK N   1      37.686  15.176  10.398  0.00  0.00    -0.377 OA
HETATM   27  H   UNK N   1      38.562  15.592  10.420  0.00  0.00     0.211 HD
ENDBRANCH  10  26
TORSDOF 1
ENDMDL
MODEL 9
REMARK VINA RESULT:      -7.4      9.396     12.337
REMARK  1 active torsions:
REMARK  status: ('A' for Active; 'I' for Inactive)
REMARK    1  A    between atoms: C_11  and  O_1 
ROOT
HETATM    1  O   UNK N   1      25.528  16.445   3.268  0.00  0.00    -0.238 OA
HETATM    2  N   UNK N   1      25.649  15.535   2.340  0.00  0.00    -0.271 N 
ATOM      3  HN  UNK N   1      24.884  15.101   1.822  1.00  0.00     0.194 HD
HETATM    4  C   UNK N   1      31.604  17.358   7.041  0.00  0.00     0.002 C 
HETATM    5  C   UNK N   1      32.670  16.408   6.395  0.00  0.00     0.003 C 
HETATM    6  C   UNK N   1      30.163  16.760   7.082  0.00  0.00    -0.004 C 
HETATM    7  C   UNK N   1      29.796  16.021   5.774  0.00  0.00     0.003 C 
HETATM    8  C   UNK N   1      29.432  16.996   4.608  0.00  0.00    -0.013 C 
HETATM    9  C   UNK N   1      32.108  14.974   6.371  0.00  0.00     0.014 C 
HETATM   10  C   UNK N   1      33.896  16.621   7.294  0.00  0.00     0.128 C 
HETATM   11  C   UNK N   1      30.863  14.939   5.445  0.00  0.00     0.007 C 
HETATM   12  C   UNK N   1      32.065  17.563   8.492  0.00  0.00     0.010 C 
HETATM   13  C   UNK N   1      29.081  17.778   7.510  0.00  0.00     0.010 C 
HETATM   14  C   UNK N   1      33.301  16.690   8.680  0.00  0.00     0.052 C 
HETATM   15  C   UNK N   1      28.300  17.862   5.181  0.00  0.00    -0.068 C 
HETATM   16  C   UNK N   1      33.054  16.745   4.950  0.00  0.00     0.020 C 
HETATM   17  C   UNK N   1      28.621  18.705   6.379  0.00  0.00     0.035 C 
HETATM   18  C   UNK N   1      29.102  16.176   3.332  0.00  0.00     0.057 C 
HETATM   19  C   UNK N   1      30.548  17.938   4.185  0.00  0.00     0.021 C 
HETATM   20  C   UNK N   1      34.938  15.586   7.207  0.00  0.00    -0.078 C 
HETATM   21  C   UNK N   1      27.021  17.750   4.775  0.00  0.00     0.043 C 
HETATM   22  C   UNK N   1      27.646  16.060   3.077  0.00  0.00    -0.004 A 
HETATM   23  C   UNK N   1      26.704  16.785   3.726  0.00  0.00     0.106 A 
HETATM   24  C   UNK N   1      26.968  15.268   2.183  0.00  0.00     0.124 A 
HETATM   25  C   UNK N   1      35.803  14.745   7.148  0.00  0.00     0.015 C 
ENDROOT
BRANCH  10  26
HETATM   26  O   UNK N   1      34.488  17.864   7.015  0.00  0.00    -0.377 OA
HETATM   27  H   UNK N   1      34.850  18.762   7.076  0.00  0.00     0.211 HD
ENDBRANCH  10  26
TORSDOF 1
ENDMDL
