MODEL 1
REMARK VINA RESULT:      -5.5      0.000      0.000
REMARK  6 active torsions:
REMARK  status: ('A' for Active; 'I' for Inactive)
REMARK    1  A    between atoms: O_3  and  C_8 
REMARK    2  A    between atoms: N_4  and  C_6 
REMARK    3  A    between atoms: N_4  and  C_7 
REMARK    4  A    between atoms: N_5  and  C_17 
REMARK    5  A    between atoms: C_7  and  C_8 
REMARK    6  A    between atoms: C_8  and  C_12 
ROOT
HETATM    1 Cl   UNK N   1      34.302  10.854  11.581  0.00  0.00    -0.082 Cl
HETATM    2 Cl   UNK N   1      36.633  13.525  15.792  0.00  0.00    -0.082 Cl
HETATM    3  C   UNK N   1      35.638  14.632  12.039  0.00  0.00    -0.025 A 
HETATM    4  C   UNK N   1      36.127  14.629  13.352  0.00  0.00     0.036 A 
HETATM    5  C   UNK N   1      35.078  13.460  11.514  0.00  0.00     0.036 A 
HETATM    6  C   UNK N   1      34.997  12.301  12.290  0.00  0.00     0.062 A 
HETATM    7  C   UNK N   1      36.035  13.477  14.142  0.00  0.00     0.062 A 
HETATM    8  C   UNK N   1      35.472  12.309  13.609  0.00  0.00     0.069 A 
ENDROOT
BRANCH   3   9
HETATM    9  C   UNK N   1      35.748  15.867  11.179  0.00  0.00     0.168 C 
BRANCH   9  10
HETATM   10  O   UNK N   1      37.075  16.109  10.818  0.00  0.00    -0.389 OA
HETATM   11  H   UNK N   1      37.441  16.994  10.665  0.00  0.00     0.210 HD
ENDBRANCH   9  10
BRANCH   9  12
HETATM   12  C   UNK N   1      34.898  15.780   9.925  0.00  0.00     0.151 C 
BRANCH  12  13
HETATM   13  N   UNK N   1      33.973  16.911   9.896  0.00  0.00    -0.411 N 
HETATM   14  H   UNK N   1      33.545  17.323  10.725  0.00  0.00     0.154 HD
BRANCH  13  15
HETATM   15  C   UNK N   1      33.736  17.380   8.528  0.00  0.00     0.014 C 
HETATM   16  C   UNK N   1      34.026  16.240   7.574  0.00  0.00     0.037 C 
HETATM   17  C   UNK N   1      32.289  17.806   8.321  0.00  0.00     0.037 C 
HETATM   18  C   UNK N   1      34.670  18.531   8.188  0.00  0.00     0.037 C 
ENDBRANCH  13  15
ENDBRANCH  12  13
ENDBRANCH   9  12
ENDBRANCH   3   9
BRANCH   8  19
HETATM   19  N   UNK N   1      35.384  11.139  14.400  0.00  0.00    -0.396 N 
HETATM   20  H   UNK N   1      36.164  10.834  14.918  0.00  0.00     0.156 HD
HETATM   21  H   UNK N   1      34.542  10.629  14.431  0.00  0.00     0.156 HD
ENDBRANCH   8  19
TORSDOF 6
ENDMDL
MODEL 2
REMARK VINA RESULT:      -5.4      4.416      7.645
REMARK  6 active torsions:
REMARK  status: ('A' for Active; 'I' for Inactive)
REMARK    1  A    between atoms: O_3  and  C_8 
REMARK    2  A    between atoms: N_4  and  C_6 
REMARK    3  A    between atoms: N_4  and  C_7 
REMARK    4  A    between atoms: N_5  and  C_17 
REMARK    5  A    between atoms: C_7  and  C_8 
REMARK    6  A    between atoms: C_8  and  C_12 
ROOT
HETATM    1 Cl   UNK N   1      29.425  17.336   7.586  0.00  0.00    -0.082 Cl
HETATM    2 Cl   UNK N   1      32.693  17.091   3.163  0.00  0.00    -0.082 Cl
HETATM    3  C   UNK N   1      33.425  17.545   7.108  0.00  0.00    -0.025 A 
HETATM    4  C   UNK N   1      33.575  17.432   5.719  0.00  0.00     0.036 A 
HETATM    5  C   UNK N   1      32.139  17.512   7.662  0.00  0.00     0.036 A 
HETATM    6  C   UNK N   1      31.016  17.357   6.846  0.00  0.00     0.062 A 
HETATM    7  C   UNK N   1      32.457  17.260   4.895  0.00  0.00     0.062 A 
HETATM    8  C   UNK N   1      31.174  17.226   5.459  0.00  0.00     0.069 A 
ENDROOT
BRANCH   3   9
HETATM    9  C   UNK N   1      34.625  17.746   7.999  0.00  0.00     0.168 C 
BRANCH   9  10
HETATM   10  O   UNK N   1      34.821  19.100   8.280  0.00  0.00    -0.389 OA
HETATM   11  H   UNK N   1      35.185  19.736   7.645  0.00  0.00     0.210 HD
ENDBRANCH   9  10
BRANCH   9  12
HETATM   12  C   UNK N   1      34.518  16.977   9.302  0.00  0.00     0.151 C 
BRANCH  12  13
HETATM   13  N   UNK N   1      34.992  15.610   9.091  0.00  0.00    -0.411 N 
HETATM   14  H   UNK N   1      34.920  15.110   8.205  0.00  0.00     0.154 HD
BRANCH  13  15
HETATM   15  C   UNK N   1      35.582  15.049  10.310  0.00  0.00     0.014 C 
HETATM   16  C   UNK N   1      35.617  16.132  11.368  0.00  0.00     0.037 C 
HETATM   17  C   UNK N   1      34.755  13.891  10.853  0.00  0.00     0.037 C 
HETATM   18  C   UNK N   1      37.009  14.592  10.052  0.00  0.00     0.037 C 
ENDBRANCH  13  15
ENDBRANCH  12  13
ENDBRANCH   9  12
ENDBRANCH   3   9
BRANCH   8  19
HETATM   19  N   UNK N   1      30.039  17.061   4.629  0.00  0.00    -0.396 N 
HETATM   20  H   UNK N   1      29.138  17.239   4.985  0.00  0.00     0.156 HD
HETATM   21  H   UNK N   1      30.151  16.769   3.696  0.00  0.00     0.156 HD
ENDBRANCH   8  19
TORSDOF 6
ENDMDL
MODEL 3
REMARK VINA RESULT:      -5.4      6.867      9.108
REMARK  6 active torsions:
REMARK  status: ('A' for Active; 'I' for Inactive)
REMARK    1  A    between atoms: O_3  and  C_8 
REMARK    2  A    between atoms: N_4  and  C_6 
REMARK    3  A    between atoms: N_4  and  C_7 
REMARK    4  A    between atoms: N_5  and  C_17 
REMARK    5  A    between atoms: C_7  and  C_8 
REMARK    6  A    between atoms: C_8  and  C_12 
ROOT
HETATM    1 Cl   UNK N   1      32.091  17.186   3.265  0.00  0.00    -0.082 Cl
HETATM    2 Cl   UNK N   1      32.955  17.437   8.696  0.00  0.00    -0.082 Cl
HETATM    3  C   UNK N   1      29.610  17.217   6.446  0.00  0.00    -0.025 A 
HETATM    4  C   UNK N   1      30.496  17.314   7.527  0.00  0.00     0.036 A 
HETATM    5  C   UNK N   1      30.121  17.177   5.142  0.00  0.00     0.036 A 
HETATM    6  C   UNK N   1      31.500  17.223   4.917  0.00  0.00     0.062 A 
HETATM    7  C   UNK N   1      31.879  17.345   7.312  0.00  0.00     0.062 A 
HETATM    8  C   UNK N   1      32.382  17.303   6.004  0.00  0.00     0.069 A 
ENDROOT
BRANCH   3   9
HETATM    9  C   UNK N   1      28.118  17.199   6.671  0.00  0.00     0.168 C 
BRANCH   9  10
HETATM   10  O   UNK N   1      27.780  17.883   7.842  0.00  0.00    -0.389 OA
HETATM   11  H   UNK N   1      28.014  18.808   8.013  0.00  0.00     0.210 HD
ENDBRANCH   9  10
BRANCH   9  12
HETATM   12  C   UNK N   1      27.346  17.790   5.507  0.00  0.00     0.151 C 
BRANCH  12  13
HETATM   13  N   UNK N   1      26.452  18.833   6.008  0.00  0.00    -0.411 N 
HETATM   14  H   UNK N   1      25.835  18.720   6.812  0.00  0.00     0.154 HD
BRANCH  13  15
HETATM   15  C   UNK N   1      26.553  20.059   5.211  0.00  0.00     0.014 C 
HETATM   16  C   UNK N   1      27.812  19.984   4.373  0.00  0.00     0.037 C 
HETATM   17  C   UNK N   1      25.370  20.212   4.263  0.00  0.00     0.037 C 
HETATM   18  C   UNK N   1      26.656  21.277   6.114  0.00  0.00     0.037 C 
ENDBRANCH  13  15
ENDBRANCH  12  13
ENDBRANCH   9  12
ENDBRANCH   3   9
BRANCH   8  19
HETATM   19  N   UNK N   1      33.779  17.342   5.780  0.00  0.00    -0.396 N 
HETATM   20  H   UNK N   1      34.129  17.550   4.884  0.00  0.00     0.156 HD
HETATM   21  H   UNK N   1      34.401  17.163   6.522  0.00  0.00     0.156 HD
ENDBRANCH   8  19
TORSDOF 6
ENDMDL
MODEL 4
REMARK VINA RESULT:      -5.4      7.115      9.288
REMARK  6 active torsions:
REMARK  status: ('A' for Active; 'I' for Inactive)
REMARK    1  A    between atoms: O_3  and  C_8 
REMARK    2  A    between atoms: N_4  and  C_6 
REMARK    3  A    between atoms: N_4  and  C_7 
REMARK    4  A    between atoms: N_5  and  C_17 
REMARK    5  A    between atoms: C_7  and  C_8 
REMARK    6  A    between atoms: C_8  and  C_12 
ROOT
HETATM    1 Cl   UNK N   1      29.680  18.659  10.119  0.00  0.00    -0.082 Cl
HETATM    2 Cl   UNK N   1      32.508  16.302   6.027  0.00  0.00    -0.082 Cl
HETATM    3  C   UNK N   1      28.563  16.828   6.703  0.00  0.00    -0.025 A 
HETATM    4  C   UNK N   1      29.789  16.449   6.142  0.00  0.00     0.036 A 
HETATM    5  C   UNK N   1      28.551  17.509   7.927  0.00  0.00     0.036 A 
HETATM    6  C   UNK N   1      29.747  17.818   8.581  0.00  0.00     0.062 A 
HETATM    7  C   UNK N   1      30.993  16.769   6.781  0.00  0.00     0.062 A 
HETATM    8  C   UNK N   1      30.972  17.452   8.005  0.00  0.00     0.069 A 
ENDROOT
BRANCH   3   9
HETATM    9  C   UNK N   1      27.262  16.472   6.026  0.00  0.00     0.168 C 
BRANCH   9  10
HETATM   10  O   UNK N   1      26.230  16.345   6.959  0.00  0.00    -0.389 OA
HETATM   11  H   UNK N   1      26.372  16.151   7.899  0.00  0.00     0.210 HD
ENDBRANCH   9  10
BRANCH   9  12
HETATM   12  C   UNK N   1      26.859  17.485   4.972  0.00  0.00     0.151 C 
BRANCH  12  13
HETATM   13  N   UNK N   1      26.114  18.569   5.611  0.00  0.00    -0.411 N 
HETATM   14  H   UNK N   1      25.382  18.428   6.307  0.00  0.00     0.154 HD
BRANCH  13  15
HETATM   15  C   UNK N   1      26.549  19.882   5.126  0.00  0.00     0.014 C 
HETATM   16  C   UNK N   1      25.590  20.335   4.045  0.00  0.00     0.037 C 
HETATM   17  C   UNK N   1      26.530  20.926   6.235  0.00  0.00     0.037 C 
HETATM   18  C   UNK N   1      27.940  19.794   4.520  0.00  0.00     0.037 C 
ENDBRANCH  13  15
ENDBRANCH  12  13
ENDBRANCH   9  12
ENDBRANCH   3   9
BRANCH   8  19
HETATM   19  N   UNK N   1      32.185  17.771   8.660  0.00  0.00    -0.396 N 
HETATM   20  H   UNK N   1      32.661  18.605   8.441  0.00  0.00     0.156 HD
HETATM   21  H   UNK N   1      32.554  17.157   9.336  0.00  0.00     0.156 HD
ENDBRANCH   8  19
TORSDOF 6
ENDMDL
MODEL 5
REMARK VINA RESULT:      -5.4      0.731      2.536
REMARK  6 active torsions:
REMARK  status: ('A' for Active; 'I' for Inactive)
REMARK    1  A    between atoms: O_3  and  C_8 
REMARK    2  A    between atoms: N_4  and  C_6 
REMARK    3  A    between atoms: N_4  and  C_7 
REMARK    4  A    between atoms: N_5  and  C_17 
REMARK    5  A    between atoms: C_7  and  C_8 
REMARK    6  A    between atoms: C_8  and  C_12 
ROOT
HETATM    1 Cl   UNK N   1      37.166  14.676  15.995  0.00  0.00    -0.082 Cl
HETATM    2 Cl   UNK N   1      34.298  11.143  12.897  0.00  0.00    -0.082 Cl
HETATM    3  C   UNK N   1      35.748  14.850  12.222  0.00  0.00    -0.025 A 
HETATM    4  C   UNK N   1      35.097  13.617  12.080  0.00  0.00     0.036 A 
HETATM    5  C   UNK N   1      36.380  15.156  13.434  0.00  0.00     0.036 A 
HETATM    6  C   UNK N   1      36.373  14.241  14.491  0.00  0.00     0.062 A 
HETATM    7  C   UNK N   1      35.099  12.688  13.127  0.00  0.00     0.062 A 
HETATM    8  C   UNK N   1      35.736  13.002  14.336  0.00  0.00     0.069 A 
ENDROOT
BRANCH   3   9
HETATM    9  C   UNK N   1      35.735  15.861  11.102  0.00  0.00     0.168 C 
BRANCH   9  10
HETATM   10  O   UNK N   1      37.019  16.051  10.584  0.00  0.00    -0.389 OA
HETATM   11  H   UNK N   1      37.623  15.326  10.360  0.00  0.00     0.210 HD
ENDBRANCH   9  10
BRANCH   9  12
HETATM   12  C   UNK N   1      34.796  15.472   9.977  0.00  0.00     0.151 C 
BRANCH  12  13
HETATM   13  N   UNK N   1      33.727  16.464   9.882  0.00  0.00    -0.411 N 
HETATM   14  H   UNK N   1      33.159  16.771  10.672  0.00  0.00     0.154 HD
BRANCH  13  15
HETATM   15  C   UNK N   1      33.572  16.962   8.512  0.00  0.00     0.014 C 
HETATM   16  C   UNK N   1      34.536  18.113   8.310  0.00  0.00     0.037 C 
HETATM   17  C   UNK N   1      33.902  15.890   7.483  0.00  0.00     0.037 C 
HETATM   18  C   UNK N   1      32.161  17.481   8.288  0.00  0.00     0.037 C 
ENDBRANCH  13  15
ENDBRANCH  12  13
ENDBRANCH   9  12
ENDBRANCH   3   9
BRANCH   8  19
HETATM   19  N   UNK N   1      35.734  12.070  15.402  0.00  0.00    -0.396 N 
HETATM   20  H   UNK N   1      36.571  11.862  15.878  0.00  0.00     0.156 HD
HETATM   21  H   UNK N   1      34.894  11.629  15.667  0.00  0.00     0.156 HD
ENDBRANCH   8  19
TORSDOF 6
ENDMDL
MODEL 6
REMARK VINA RESULT:      -5.3     16.856     18.275
REMARK  6 active torsions:
REMARK  status: ('A' for Active; 'I' for Inactive)
REMARK    1  A    between atoms: O_3  and  C_8 
REMARK    2  A    between atoms: N_4  and  C_6 
REMARK    3  A    between atoms: N_4  and  C_7 
REMARK    4  A    between atoms: N_5  and  C_17 
REMARK    5  A    between atoms: C_7  and  C_8 
REMARK    6  A    between atoms: C_8  and  C_12 
ROOT
HETATM    1 Cl   UNK N   1      30.260  19.945  -6.899  0.00  0.00    -0.082 Cl
HETATM    2 Cl   UNK N   1      34.525  20.772  -3.517  0.00  0.00    -0.082 Cl
HETATM    3  C   UNK N   1      30.655  21.914  -3.400  0.00  0.00    -0.025 A 
HETATM    4  C   UNK N   1      32.012  21.740  -3.099  0.00  0.00     0.036 A 
HETATM    5  C   UNK N   1      30.135  21.353  -4.573  0.00  0.00     0.036 A 
HETATM    6  C   UNK N   1      30.955  20.617  -5.433  0.00  0.00     0.062 A 
HETATM    7  C   UNK N   1      32.837  20.991  -3.947  0.00  0.00     0.062 A 
HETATM    8  C   UNK N   1      32.308  20.431  -5.118  0.00  0.00     0.069 A 
ENDROOT
BRANCH   3   9
HETATM    9  C   UNK N   1      29.765  22.733  -2.498  0.00  0.00     0.168 C 
BRANCH   9  10
HETATM   10  O   UNK N   1      30.421  23.060  -1.309  0.00  0.00    -0.389 OA
HETATM   11  H   UNK N   1      30.893  22.416  -0.758  0.00  0.00     0.210 HD
ENDBRANCH   9  10
BRANCH   9  12
HETATM   12  C   UNK N   1      29.275  24.006  -3.163  0.00  0.00     0.151 C 
BRANCH  12  13
HETATM   13  N   UNK N   1      27.814  23.990  -3.207  0.00  0.00    -0.411 N 
HETATM   14  H   UNK N   1      27.225  23.530  -2.513  0.00  0.00     0.154 HD
BRANCH  13  15
HETATM   15  C   UNK N   1      27.301  24.716  -4.372  0.00  0.00     0.014 C 
HETATM   16  C   UNK N   1      28.300  24.575  -5.502  0.00  0.00     0.037 C 
HETATM   17  C   UNK N   1      25.971  24.148  -4.850  0.00  0.00     0.037 C 
HETATM   18  C   UNK N   1      27.150  26.196  -4.056  0.00  0.00     0.037 C 
ENDBRANCH  13  15
ENDBRANCH  12  13
ENDBRANCH   9  12
ENDBRANCH   3   9
BRANCH   8  19
HETATM   19  N   UNK N   1      33.139  19.680  -5.983  0.00  0.00    -0.396 N 
HETATM   20  H   UNK N   1      33.146  18.696  -5.931  0.00  0.00     0.156 HD
HETATM   21  H   UNK N   1      33.711  20.142  -6.638  0.00  0.00     0.156 HD
ENDBRANCH   8  19
TORSDOF 6
ENDMDL
MODEL 7
REMARK VINA RESULT:      -5.3      4.573      7.689
REMARK  6 active torsions:
REMARK  status: ('A' for Active; 'I' for Inactive)
REMARK    1  A    between atoms: O_3  and  C_8 
REMARK    2  A    between atoms: N_4  and  C_6 
REMARK    3  A    between atoms: N_4  and  C_7 
REMARK    4  A    between atoms: N_5  and  C_17 
REMARK    5  A    between atoms: C_7  and  C_8 
REMARK    6  A    between atoms: C_8  and  C_12 
ROOT
HETATM    1 Cl   UNK N   1      29.643  18.647  10.039  0.00  0.00    -0.082 Cl
HETATM    2 Cl   UNK N   1      28.775  16.887   4.896  0.00  0.00    -0.082 Cl
HETATM    3  C   UNK N   1      32.099  17.257   7.157  0.00  0.00    -0.025 A 
HETATM    4  C   UNK N   1      31.219  17.011   6.094  0.00  0.00     0.036 A 
HETATM    5  C   UNK N   1      31.594  17.759   8.363  0.00  0.00     0.036 A 
HETATM    6  C   UNK N   1      30.226  18.004   8.514  0.00  0.00     0.062 A 
HETATM    7  C   UNK N   1      29.846  17.238   6.242  0.00  0.00     0.062 A 
HETATM    8  C   UNK N   1      29.349  17.739   7.453  0.00  0.00     0.069 A 
ENDROOT
BRANCH   3   9
HETATM    9  C   UNK N   1      33.582  17.028   6.998  0.00  0.00     0.168 C 
BRANCH   9  10
HETATM   10  O   UNK N   1      34.146  17.974   6.139  0.00  0.00    -0.389 OA
HETATM   11  H   UNK N   1      33.975  18.927   6.197  0.00  0.00     0.210 HD
ENDBRANCH   9  10
BRANCH   9  12
HETATM   12  C   UNK N   1      34.320  17.056   8.323  0.00  0.00     0.151 C 
BRANCH  12  13
HETATM   13  N   UNK N   1      35.005  15.779   8.515  0.00  0.00    -0.411 N 
HETATM   14  H   UNK N   1      35.343  15.190   7.754  0.00  0.00     0.154 HD
BRANCH  13  15
HETATM   15  C   UNK N   1      35.145  15.450   9.937  0.00  0.00     0.014 C 
HETATM   16  C   UNK N   1      33.841  14.848  10.419  0.00  0.00     0.037 C 
HETATM   17  C   UNK N   1      36.248  14.427  10.172  0.00  0.00     0.037 C 
HETATM   18  C   UNK N   1      35.417  16.704  10.752  0.00  0.00     0.037 C 
ENDBRANCH  13  15
ENDBRANCH  12  13
ENDBRANCH   9  12
ENDBRANCH   3   9
BRANCH   8  19
HETATM   19  N   UNK N   1      27.962  17.978   7.606  0.00  0.00    -0.396 N 
HETATM   20  H   UNK N   1      27.464  18.459   6.905  0.00  0.00     0.156 HD
HETATM   21  H   UNK N   1      27.495  17.663   8.413  0.00  0.00     0.156 HD
ENDBRANCH   8  19
TORSDOF 6
ENDMDL
MODEL 8
REMARK VINA RESULT:      -5.3     12.138     15.453
REMARK  6 active torsions:
REMARK  status: ('A' for Active; 'I' for Inactive)
REMARK    1  A    between atoms: O_3  and  C_8 
REMARK    2  A    between atoms: N_4  and  C_6 
REMARK    3  A    between atoms: N_4  and  C_7 
REMARK    4  A    between atoms: N_5  and  C_17 
REMARK    5  A    between atoms: C_7  and  C_8 
REMARK    6  A    between atoms: C_8  and  C_12 
ROOT
HETATM    1 Cl   UNK N   1      19.942  15.269   2.914  0.00  0.00    -0.082 Cl
HETATM    2 Cl   UNK N   1      20.471  20.575   1.544  0.00  0.00    -0.082 Cl
HETATM    3  C   UNK N   1      22.446  18.187   4.132  0.00  0.00    -0.025 A 
HETATM    4  C   UNK N   1      22.014  19.295   3.390  0.00  0.00     0.036 A 
HETATM    5  C   UNK N   1      21.796  16.957   3.969  0.00  0.00     0.036 A 
HETATM    6  C   UNK N   1      20.734  16.827   3.071  0.00  0.00     0.062 A 
HETATM    7  C   UNK N   1      20.961  19.170   2.475  0.00  0.00     0.062 A 
HETATM    8  C   UNK N   1      20.318  17.934   2.318  0.00  0.00     0.069 A 
ENDROOT
BRANCH   3   9
HETATM    9  C   UNK N   1      23.570  18.320   5.130  0.00  0.00     0.168 C 
BRANCH   9  10
HETATM   10  O   UNK N   1      23.896  17.081   5.686  0.00  0.00    -0.389 OA
HETATM   11  H   UNK N   1      23.933  16.254   5.179  0.00  0.00     0.210 HD
ENDBRANCH   9  10
BRANCH   9  12
HETATM   12  C   UNK N   1      24.816  18.938   4.524  0.00  0.00     0.151 C 
BRANCH  12  13
HETATM   13  N   UNK N   1      25.765  19.246   5.593  0.00  0.00    -0.411 N 
HETATM   14  H   UNK N   1      25.619  19.007   6.574  0.00  0.00     0.154 HD
BRANCH  13  15
HETATM   15  C   UNK N   1      26.950  19.939   5.080  0.00  0.00     0.014 C 
HETATM   16  C   UNK N   1      28.141  19.014   5.214  0.00  0.00     0.037 C 
HETATM   17  C   UNK N   1      26.799  20.298   3.608  0.00  0.00     0.037 C 
HETATM   18  C   UNK N   1      27.229  21.193   5.894  0.00  0.00     0.037 C 
ENDBRANCH  13  15
ENDBRANCH  12  13
ENDBRANCH   9  12
ENDBRANCH   3   9
BRANCH   8  19
HETATM   19  N   UNK N   1      19.247  17.804   1.401  0.00  0.00    -0.396 N 
HETATM   20  H   UNK N   1      18.316  17.850   1.720  0.00  0.00     0.156 HD
HETATM   21  H   UNK N   1      19.434  17.668   0.444  0.00  0.00     0.156 HD
ENDBRANCH   8  19
TORSDOF 6
ENDMDL
MODEL 9
REMARK VINA RESULT:      -5.2      4.393      5.451
REMARK  6 active torsions:
REMARK  status: ('A' for Active; 'I' for Inactive)
REMARK    1  A    between atoms: O_3  and  C_8 
REMARK    2  A    between atoms: N_4  and  C_6 
REMARK    3  A    between atoms: N_4  and  C_7 
REMARK    4  A    between atoms: N_5  and  C_17 
REMARK    5  A    between atoms: C_7  and  C_8 
REMARK    6  A    between atoms: C_8  and  C_12 
ROOT
HETATM    1 Cl   UNK N   1      35.506   8.874  16.191  0.00  0.00    -0.082 Cl
HETATM    2 Cl   UNK N   1      34.777  12.683  20.098  0.00  0.00    -0.082 Cl
HETATM    3  C   UNK N   1      35.828  12.895  16.205  0.00  0.00    -0.025 A 
HETATM    4  C   UNK N   1      35.523  13.224  17.533  0.00  0.00     0.036 A 
HETATM    5  C   UNK N   1      35.816  11.550  15.813  0.00  0.00     0.036 A 
HETATM    6  C   UNK N   1      35.493  10.544  16.728  0.00  0.00     0.062 A 
HETATM    7  C   UNK N   1      35.183  12.225  18.453  0.00  0.00     0.062 A 
HETATM    8  C   UNK N   1      35.171  10.882  18.050  0.00  0.00     0.069 A 
ENDROOT
BRANCH   3   9
HETATM    9  C   UNK N   1      36.210  13.966  15.214  0.00  0.00     0.168 C 
BRANCH   9  10
HETATM   10  O   UNK N   1      37.582  14.224  15.258  0.00  0.00    -0.389 OA
HETATM   11  H   UNK N   1      38.203  13.746  15.830  0.00  0.00     0.210 HD
ENDBRANCH   9  10
BRANCH   9  12
HETATM   12  C   UNK N   1      35.815  13.612  13.793  0.00  0.00     0.151 C 
BRANCH  12  13
HETATM   13  N   UNK N   1      36.986  13.734  12.927  0.00  0.00    -0.411 N 
HETATM   14  H   UNK N   1      37.650  14.508  12.967  0.00  0.00     0.154 HD
BRANCH  13  15
HETATM   15  C   UNK N   1      37.088  12.608  11.995  0.00  0.00     0.014 C 
HETATM   16  C   UNK N   1      37.690  11.429  12.731  0.00  0.00     0.037 C 
HETATM   17  C   UNK N   1      35.721  12.184  11.473  0.00  0.00     0.037 C 
HETATM   18  C   UNK N   1      38.002  12.957  10.832  0.00  0.00     0.037 C 
ENDBRANCH  13  15
ENDBRANCH  12  13
ENDBRANCH   9  12
ENDBRANCH   3   9
BRANCH   8  19
HETATM   19  N   UNK N   1      34.836   9.866  18.978  0.00  0.00    -0.396 N 
HETATM   20  H   UNK N   1      35.273   9.840  19.860  0.00  0.00     0.156 HD
HETATM   21  H   UNK N   1      34.165   9.186  18.740  0.00  0.00     0.156 HD
ENDBRANCH   8  19
TORSDOF 6
ENDMDL
