MODEL 1
REMARK VINA RESULT:      -6.2      0.000      0.000
REMARK  9 active torsions:
REMARK  status: ('A' for Active; 'I' for Inactive)
REMARK    1  A    between atoms: O_1  and  C_11 
REMARK    2  A    between atoms: O_2  and  C_18 
REMARK    3  A    between atoms: O_2  and  C_21 
REMARK    4  A    between atoms: O_3  and  C_19 
REMARK    5  A    between atoms: O_3  and  C_22 
REMARK    6  A    between atoms: N_6  and  C_9 
REMARK    7  A    between atoms: N_6  and  C_10 
REMARK       I    between atoms: N_7  and  C_21 
REMARK       I    between atoms: N_8  and  C_22 
REMARK    8  A    between atoms: C_10  and  C_11 
REMARK    9  A    between atoms: C_11  and  C_15 
ROOT
HETATM    1  C   UNK N   1      29.588  17.514   7.574  0.00  0.00    -0.023 A 
HETATM    2  C   UNK N   1      29.768  17.310   6.193  0.00  0.00     0.047 A 
HETATM    3  C   UNK N   1      30.569  17.061   8.470  0.00  0.00     0.047 A 
HETATM    4  C   UNK N   1      31.712  16.408   8.007  0.00  0.00     0.084 A 
HETATM    5  C   UNK N   1      30.927  16.684   5.712  0.00  0.00     0.084 A 
HETATM    6  C   UNK N   1      31.881  16.235   6.631  0.00  0.00     0.074 A 
ENDROOT
BRANCH   1   7
HETATM    7  C   UNK N   1      28.321  18.139   8.098  0.00  0.00     0.168 C 
BRANCH   7   8
HETATM    8  O   UNK N   1      28.368  18.320   9.484  0.00  0.00    -0.389 OA
HETATM    9  H   UNK N   1      29.213  18.417   9.949  0.00  0.00     0.210 HD
ENDBRANCH   7   8
BRANCH   7  10
HETATM   10  C   UNK N   1      27.974  19.448   7.420  0.00  0.00     0.151 C 
BRANCH  10  11
HETATM   11  N   UNK N   1      26.852  19.201   6.517  0.00  0.00    -0.411 N 
HETATM   12  H   UNK N   1      26.193  18.430   6.626  0.00  0.00     0.154 HD
BRANCH  11  13
HETATM   13  C   UNK N   1      26.780  20.189   5.438  0.00  0.00     0.014 C 
HETATM   14  C   UNK N   1      26.945  21.600   5.982  0.00  0.00     0.037 C 
HETATM   15  C   UNK N   1      25.471  20.075   4.672  0.00  0.00     0.037 C 
HETATM   16  C   UNK N   1      27.915  19.920   4.473  0.00  0.00     0.037 C 
ENDBRANCH  11  13
ENDBRANCH  10  11
ENDBRANCH   7  10
ENDBRANCH   1   7
BRANCH   5  17
HETATM   17  O   UNK N   1      31.099  16.522   4.369  0.00  0.00    -0.261 OA
BRANCH  17  18
HETATM   18  C   UNK N   1      32.288  16.307   3.717  0.00  0.00     0.367 C 
HETATM   19  O   UNK N   1      33.053  17.237   3.495  0.00  0.00    -0.238 OA
HETATM   20  N   UNK N   1      32.625  15.053   3.314  0.00  0.00    -0.336 N 
HETATM   21  C   UNK N   1      31.743  13.943   3.558  0.00  0.00     0.154 C 
HETATM   22  C   UNK N   1      33.872  14.810   2.630  0.00  0.00     0.154 C 
ENDBRANCH  17  18
ENDBRANCH   5  17
BRANCH   4  23
HETATM   23  O   UNK N   1      32.606  15.921   8.908  0.00  0.00    -0.261 OA
BRANCH  23  24
HETATM   24  C   UNK N   1      33.723  16.552   9.383  0.00  0.00     0.367 C 
HETATM   25  O   UNK N   1      34.014  17.681   9.004  0.00  0.00    -0.238 OA
HETATM   26  N   UNK N   1      34.531  15.914  10.270  0.00  0.00    -0.336 N 
HETATM   27  C   UNK N   1      34.216  14.581  10.716  0.00  0.00     0.154 C 
HETATM   28  C   UNK N   1      35.729  16.544  10.765  0.00  0.00     0.154 C 
ENDBRANCH  23  24
ENDBRANCH   4  23
TORSDOF 9
ENDMDL
MODEL 2
REMARK VINA RESULT:      -6.2      1.069      4.489
REMARK  9 active torsions:
REMARK  status: ('A' for Active; 'I' for Inactive)
REMARK    1  A    between atoms: O_1  and  C_11 
REMARK    2  A    between atoms: O_2  and  C_18 
REMARK    3  A    between atoms: O_2  and  C_21 
REMARK    4  A    between atoms: O_3  and  C_19 
REMARK    5  A    between atoms: O_3  and  C_22 
REMARK    6  A    between atoms: N_6  and  C_9 
REMARK    7  A    between atoms: N_6  and  C_10 
REMARK       I    between atoms: N_7  and  C_21 
REMARK       I    between atoms: N_8  and  C_22 
REMARK    8  A    between atoms: C_10  and  C_11 
REMARK    9  A    between atoms: C_11  and  C_15 
ROOT
HETATM    1  C   UNK N   1      29.253  17.489   7.613  0.00  0.00    -0.023 A 
HETATM    2  C   UNK N   1      30.413  17.707   8.378  0.00  0.00     0.047 A 
HETATM    3  C   UNK N   1      29.354  16.809   6.389  0.00  0.00     0.047 A 
HETATM    4  C   UNK N   1      30.588  16.356   5.924  0.00  0.00     0.084 A 
HETATM    5  C   UNK N   1      31.656  17.228   7.938  0.00  0.00     0.084 A 
HETATM    6  C   UNK N   1      31.724  16.564   6.710  0.00  0.00     0.074 A 
ENDROOT
BRANCH   1   7
HETATM    7  C   UNK N   1      27.925  18.048   8.056  0.00  0.00     0.168 C 
BRANCH   7   8
HETATM    8  O   UNK N   1      27.787  18.014   9.448  0.00  0.00    -0.389 OA
HETATM    9  H   UNK N   1      26.924  18.142   9.870  0.00  0.00     0.210 HD
ENDBRANCH   7   8
BRANCH   7  10
HETATM   10  C   UNK N   1      27.666  19.451   7.547  0.00  0.00     0.151 C 
BRANCH  10  11
HETATM   11  N   UNK N   1      26.662  19.366   6.490  0.00  0.00    -0.411 N 
HETATM   12  H   UNK N   1      25.880  18.710   6.498  0.00  0.00     0.154 HD
BRANCH  11  13
HETATM   13  C   UNK N   1      26.905  20.331   5.415  0.00  0.00     0.014 C 
HETATM   14  C   UNK N   1      28.113  19.926   4.585  0.00  0.00     0.037 C 
HETATM   15  C   UNK N   1      27.098  21.735   5.967  0.00  0.00     0.037 C 
HETATM   16  C   UNK N   1      25.693  20.345   4.508  0.00  0.00     0.037 C 
ENDBRANCH  11  13
ENDBRANCH  10  11
ENDBRANCH   7  10
ENDBRANCH   1   7
BRANCH   5  17
HETATM   17  O   UNK N   1      32.765  17.422   8.708  0.00  0.00    -0.261 OA
BRANCH  17  18
HETATM   18  C   UNK N   1      34.007  16.875   8.504  0.00  0.00     0.367 C 
HETATM   19  O   UNK N   1      34.822  17.432   7.780  0.00  0.00    -0.238 OA
HETATM   20  N   UNK N   1      34.342  15.705   9.112  0.00  0.00    -0.336 N 
HETATM   21  C   UNK N   1      33.403  15.027   9.965  0.00  0.00     0.154 C 
HETATM   22  C   UNK N   1      35.644  15.118   8.910  0.00  0.00     0.154 C 
ENDBRANCH  17  18
ENDBRANCH   5  17
BRANCH   4  23
HETATM   23  O   UNK N   1      30.658  15.764   4.702  0.00  0.00    -0.261 OA
BRANCH  23  24
HETATM   24  C   UNK N   1      31.685  15.005   4.212  0.00  0.00     0.367 C 
HETATM   25  O   UNK N   1      31.844  13.849   4.587  0.00  0.00    -0.238 OA
HETATM   26  N   UNK N   1      32.551  15.543   3.313  0.00  0.00    -0.336 N 
HETATM   27  C   UNK N   1      32.390  16.904   2.871  0.00  0.00     0.154 C 
HETATM   28  C   UNK N   1      33.658  14.775   2.800  0.00  0.00     0.154 C 
ENDBRANCH  23  24
ENDBRANCH   4  23
TORSDOF 9
ENDMDL
MODEL 3
REMARK VINA RESULT:      -6.0      1.849      2.350
REMARK  9 active torsions:
REMARK  status: ('A' for Active; 'I' for Inactive)
REMARK    1  A    between atoms: O_1  and  C_11 
REMARK    2  A    between atoms: O_2  and  C_18 
REMARK    3  A    between atoms: O_2  and  C_21 
REMARK    4  A    between atoms: O_3  and  C_19 
REMARK    5  A    between atoms: O_3  and  C_22 
REMARK    6  A    between atoms: N_6  and  C_9 
REMARK    7  A    between atoms: N_6  and  C_10 
REMARK       I    between atoms: N_7  and  C_21 
REMARK       I    between atoms: N_8  and  C_22 
REMARK    8  A    between atoms: C_10  and  C_11 
REMARK    9  A    between atoms: C_11  and  C_15 
ROOT
HETATM    1  C   UNK N   1      30.331  17.196   7.336  0.00  0.00    -0.023 A 
HETATM    2  C   UNK N   1      30.007  16.378   6.238  0.00  0.00     0.047 A 
HETATM    3  C   UNK N   1      31.671  17.543   7.564  0.00  0.00     0.047 A 
HETATM    4  C   UNK N   1      32.682  17.082   6.720  0.00  0.00     0.084 A 
HETATM    5  C   UNK N   1      31.009  15.934   5.362  0.00  0.00     0.084 A 
HETATM    6  C   UNK N   1      32.336  16.289   5.622  0.00  0.00     0.074 A 
ENDROOT
BRANCH   1   7
HETATM    7  C   UNK N   1      29.265  17.632   8.309  0.00  0.00     0.168 C 
BRANCH   7   8
HETATM    8  O   UNK N   1      29.763  17.733   9.612  0.00  0.00    -0.389 OA
HETATM    9  H   UNK N   1      29.984  18.594   9.999  0.00  0.00     0.210 HD
ENDBRANCH   7   8
BRANCH   7  10
HETATM   10  C   UNK N   1      28.588  18.929   7.914  0.00  0.00     0.151 C 
BRANCH  10  11
HETATM   11  N   UNK N   1      27.477  18.601   7.023  0.00  0.00    -0.411 N 
HETATM   12  H   UNK N   1      26.850  17.809   7.163  0.00  0.00     0.154 HD
BRANCH  11  13
HETATM   13  C   UNK N   1      27.366  19.543   5.906  0.00  0.00     0.014 C 
HETATM   14  C   UNK N   1      28.350  19.193   4.802  0.00  0.00     0.037 C 
HETATM   15  C   UNK N   1      27.585  20.975   6.368  0.00  0.00     0.037 C 
HETATM   16  C   UNK N   1      25.965  19.440   5.340  0.00  0.00     0.037 C 
ENDBRANCH  11  13
ENDBRANCH  10  11
ENDBRANCH   7  10
ENDBRANCH   1   7
BRANCH   5  17
HETATM   17  O   UNK N   1      30.673  15.167   4.285  0.00  0.00    -0.261 OA
BRANCH  17  18
HETATM   18  C   UNK N   1      29.742  15.470   3.324  0.00  0.00     0.367 C 
HETATM   19  O   UNK N   1      29.886  16.450   2.604  0.00  0.00    -0.238 OA
HETATM   20  N   UNK N   1      28.649  14.677   3.163  0.00  0.00    -0.336 N 
HETATM   21  C   UNK N   1      28.452  13.522   3.998  0.00  0.00     0.154 C 
HETATM   22  C   UNK N   1      27.662  14.980   2.156  0.00  0.00     0.154 C 
ENDBRANCH  17  18
ENDBRANCH   5  17
BRANCH   4  23
HETATM   23  O   UNK N   1      33.976  17.381   7.011  0.00  0.00    -0.261 OA
BRANCH  23  24
HETATM   24  C   UNK N   1      34.504  17.631   8.248  0.00  0.00     0.367 C 
HETATM   25  O   UNK N   1      34.765  18.776   8.599  0.00  0.00    -0.238 OA
HETATM   26  N   UNK N   1      34.762  16.597   9.091  0.00  0.00    -0.336 N 
HETATM   27  C   UNK N   1      34.477  15.242   8.693  0.00  0.00     0.154 C 
HETATM   28  C   UNK N   1      35.344  16.828  10.390  0.00  0.00     0.154 C 
ENDBRANCH  23  24
ENDBRANCH   4  23
TORSDOF 9
ENDMDL
MODEL 4
REMARK VINA RESULT:      -5.9      5.357     10.255
REMARK  9 active torsions:
REMARK  status: ('A' for Active; 'I' for Inactive)
REMARK    1  A    between atoms: O_1  and  C_11 
REMARK    2  A    between atoms: O_2  and  C_18 
REMARK    3  A    between atoms: O_2  and  C_21 
REMARK    4  A    between atoms: O_3  and  C_19 
REMARK    5  A    between atoms: O_3  and  C_22 
REMARK    6  A    between atoms: N_6  and  C_9 
REMARK    7  A    between atoms: N_6  and  C_10 
REMARK       I    between atoms: N_7  and  C_21 
REMARK       I    between atoms: N_8  and  C_22 
REMARK    8  A    between atoms: C_10  and  C_11 
REMARK    9  A    between atoms: C_11  and  C_15 
ROOT
HETATM    1  C   UNK N   1      36.369  13.367  12.811  0.00  0.00    -0.023 A 
HETATM    2  C   UNK N   1      37.084  12.620  11.857  0.00  0.00     0.047 A 
HETATM    3  C   UNK N   1      35.462  14.347  12.379  0.00  0.00     0.047 A 
HETATM    4  C   UNK N   1      35.268  14.591  11.019  0.00  0.00     0.084 A 
HETATM    5  C   UNK N   1      36.875  12.832  10.486  0.00  0.00     0.084 A 
HETATM    6  C   UNK N   1      35.972  13.823  10.088  0.00  0.00     0.074 A 
ENDROOT
BRANCH   1   7
HETATM    7  C   UNK N   1      36.629  13.179  14.284  0.00  0.00     0.168 C 
BRANCH   7   8
HETATM    8  O   UNK N   1      37.215  14.312  14.856  0.00  0.00    -0.389 OA
HETATM    9  H   UNK N   1      38.074  14.262  15.302  0.00  0.00     0.210 HD
ENDBRANCH   7   8
BRANCH   7  10
HETATM   10  C   UNK N   1      35.390  12.791  15.065  0.00  0.00     0.151 C 
BRANCH  10  11
HETATM   11  N   UNK N   1      35.727  11.637  15.896  0.00  0.00    -0.411 N 
HETATM   12  H   UNK N   1      36.403  11.665  16.660  0.00  0.00     0.154 HD
BRANCH  11  13
HETATM   13  C   UNK N   1      34.982  10.437  15.508  0.00  0.00     0.014 C 
HETATM   14  C   UNK N   1      35.832   9.532  14.631  0.00  0.00     0.037 C 
HETATM   15  C   UNK N   1      33.691  10.797  14.790  0.00  0.00     0.037 C 
HETATM   16  C   UNK N   1      34.624   9.675  16.766  0.00  0.00     0.037 C 
ENDBRANCH  11  13
ENDBRANCH  10  11
ENDBRANCH   7  10
ENDBRANCH   1   7
BRANCH   5  17
HETATM   17  O   UNK N   1      37.554  12.078   9.575  0.00  0.00    -0.261 OA
BRANCH  17  18
HETATM   18  C   UNK N   1      38.832  12.293   9.126  0.00  0.00     0.367 C 
HETATM   19  O   UNK N   1      39.191  13.410   8.776  0.00  0.00    -0.238 OA
HETATM   20  N   UNK N   1      39.716  11.260   9.070  0.00  0.00    -0.336 N 
HETATM   21  C   UNK N   1      39.321   9.936   9.472  0.00  0.00     0.154 C 
HETATM   22  C   UNK N   1      41.064  11.469   8.604  0.00  0.00     0.154 C 
ENDBRANCH  17  18
ENDBRANCH   5  17
BRANCH   4  23
HETATM   23  O   UNK N   1      34.435  15.596  10.640  0.00  0.00    -0.261 OA
BRANCH  23  24
HETATM   24  C   UNK N   1      34.774  16.739   9.969  0.00  0.00     0.367 C 
HETATM   25  O   UNK N   1      35.685  17.454  10.372  0.00  0.00    -0.238 OA
HETATM   26  N   UNK N   1      34.084  17.097   8.855  0.00  0.00    -0.336 N 
HETATM   27  C   UNK N   1      33.001  16.278   8.374  0.00  0.00     0.154 C 
HETATM   28  C   UNK N   1      34.403  18.310   8.145  0.00  0.00     0.154 C 
ENDBRANCH  23  24
ENDBRANCH   4  23
TORSDOF 9
ENDMDL
MODEL 5
REMARK VINA RESULT:      -5.9     13.180     15.317
REMARK  9 active torsions:
REMARK  status: ('A' for Active; 'I' for Inactive)
REMARK    1  A    between atoms: O_1  and  C_11 
REMARK    2  A    between atoms: O_2  and  C_18 
REMARK    3  A    between atoms: O_2  and  C_21 
REMARK    4  A    between atoms: O_3  and  C_19 
REMARK    5  A    between atoms: O_3  and  C_22 
REMARK    6  A    between atoms: N_6  and  C_9 
REMARK    7  A    between atoms: N_6  and  C_10 
REMARK       I    between atoms: N_7  and  C_21 
REMARK       I    between atoms: N_8  and  C_22 
REMARK    8  A    between atoms: C_10  and  C_11 
REMARK    9  A    between atoms: C_11  and  C_15 
ROOT
HETATM    1  C   UNK N   1      26.121  26.189  -4.328  0.00  0.00    -0.023 A 
HETATM    2  C   UNK N   1      25.508  25.724  -5.506  0.00  0.00     0.047 A 
HETATM    3  C   UNK N   1      27.179  25.456  -3.769  0.00  0.00     0.047 A 
HETATM    4  C   UNK N   1      27.623  24.275  -4.363  0.00  0.00     0.084 A 
HETATM    5  C   UNK N   1      25.965  24.556  -6.132  0.00  0.00     0.084 A 
HETATM    6  C   UNK N   1      27.015  23.843  -5.544  0.00  0.00     0.074 A 
ENDROOT
BRANCH   1   7
HETATM    7  C   UNK N   1      25.599  27.415  -3.624  0.00  0.00     0.168 C 
BRANCH   7   8
HETATM    8  O   UNK N   1      26.191  27.582  -2.367  0.00  0.00    -0.389 OA
HETATM    9  H   UNK N   1      25.962  28.335  -1.801  0.00  0.00     0.210 HD
ENDBRANCH   7   8
BRANCH   7  10
HETATM   10  C   UNK N   1      25.754  28.684  -4.438  0.00  0.00     0.151 C 
BRANCH  10  11
HETATM   11  N   UNK N   1      26.875  29.439  -3.882  0.00  0.00    -0.411 N 
HETATM   12  H   UNK N   1      26.870  29.865  -2.955  0.00  0.00     0.154 HD
BRANCH  11  13
HETATM   13  C   UNK N   1      28.007  29.512  -4.808  0.00  0.00     0.014 C 
HETATM   14  C   UNK N   1      28.490  30.945  -4.962  0.00  0.00     0.037 C 
HETATM   15  C   UNK N   1      27.647  28.932  -6.167  0.00  0.00     0.037 C 
HETATM   16  C   UNK N   1      29.143  28.691  -4.233  0.00  0.00     0.037 C 
ENDBRANCH  11  13
ENDBRANCH  10  11
ENDBRANCH   7  10
ENDBRANCH   1   7
BRANCH   5  17
HETATM   17  O   UNK N   1      25.379  24.137  -7.291  0.00  0.00    -0.261 OA
BRANCH  17  18
HETATM   18  C   UNK N   1      25.260  22.840  -7.724  0.00  0.00     0.367 C 
HETATM   19  O   UNK N   1      24.533  22.050  -7.134  0.00  0.00    -0.238 OA
HETATM   20  N   UNK N   1      25.949  22.424  -8.820  0.00  0.00    -0.336 N 
HETATM   21  C   UNK N   1      26.812  23.329  -9.531  0.00  0.00     0.154 C 
HETATM   22  C   UNK N   1      25.832  21.065  -9.290  0.00  0.00     0.154 C 
ENDBRANCH  17  18
ENDBRANCH   5  17
BRANCH   4  23
HETATM   23  O   UNK N   1      28.603  23.555  -3.754  0.00  0.00    -0.261 OA
BRANCH  23  24
HETATM   24  C   UNK N   1      29.771  23.118  -4.314  0.00  0.00     0.367 C 
HETATM   25  O   UNK N   1      29.830  22.026  -4.868  0.00  0.00    -0.238 OA
HETATM   26  N   UNK N   1      30.885  23.892  -4.240  0.00  0.00    -0.336 N 
HETATM   27  C   UNK N   1      30.841  25.171  -3.580  0.00  0.00     0.154 C 
HETATM   28  C   UNK N   1      32.137  23.444  -4.798  0.00  0.00     0.154 C 
ENDBRANCH  23  24
ENDBRANCH   4  23
TORSDOF 9
ENDMDL
MODEL 6
REMARK VINA RESULT:      -5.8     11.353     15.050
REMARK  9 active torsions:
REMARK  status: ('A' for Active; 'I' for Inactive)
REMARK    1  A    between atoms: O_1  and  C_11 
REMARK    2  A    between atoms: O_2  and  C_18 
REMARK    3  A    between atoms: O_2  and  C_21 
REMARK    4  A    between atoms: O_3  and  C_19 
REMARK    5  A    between atoms: O_3  and  C_22 
REMARK    6  A    between atoms: N_6  and  C_9 
REMARK    7  A    between atoms: N_6  and  C_10 
REMARK       I    between atoms: N_7  and  C_21 
REMARK       I    between atoms: N_8  and  C_22 
REMARK    8  A    between atoms: C_10  and  C_11 
REMARK    9  A    between atoms: C_11  and  C_15 
ROOT
HETATM    1  C   UNK N   1      29.827  23.814  -3.670  0.00  0.00    -0.023 A 
HETATM    2  C   UNK N   1      29.153  23.224  -4.755  0.00  0.00     0.047 A 
HETATM    3  C   UNK N   1      29.705  25.195  -3.453  0.00  0.00     0.047 A 
HETATM    4  C   UNK N   1      28.930  25.985  -4.302  0.00  0.00     0.084 A 
HETATM    5  C   UNK N   1      28.345  24.000  -5.597  0.00  0.00     0.084 A 
HETATM    6  C   UNK N   1      28.251  25.376  -5.360  0.00  0.00     0.074 A 
ENDROOT
BRANCH   1   7
HETATM    7  C   UNK N   1      30.738  22.992  -2.793  0.00  0.00     0.168 C 
BRANCH   7   8
HETATM    8  O   UNK N   1      30.359  23.056  -1.449  0.00  0.00    -0.389 OA
HETATM    9  H   UNK N   1      31.022  23.094  -0.742  0.00  0.00     0.210 HD
ENDBRANCH   7   8
BRANCH   7  10
HETATM   10  C   UNK N   1      30.843  21.546  -3.231  0.00  0.00     0.151 C 
BRANCH  10  11
HETATM   11  N   UNK N   1      32.208  21.096  -2.967  0.00  0.00    -0.411 N 
HETATM   12  H   UNK N   1      32.616  21.031  -2.034  0.00  0.00     0.154 HD
BRANCH  11  13
HETATM   13  C   UNK N   1      32.925  20.749  -4.196  0.00  0.00     0.014 C 
HETATM   14  C   UNK N   1      33.995  19.703  -3.923  0.00  0.00     0.037 C 
HETATM   15  C   UNK N   1      33.548  21.979  -4.838  0.00  0.00     0.037 C 
HETATM   16  C   UNK N   1      31.930  20.161  -5.175  0.00  0.00     0.037 C 
ENDBRANCH  11  13
ENDBRANCH  10  11
ENDBRANCH   7  10
ENDBRANCH   1   7
BRANCH   5  17
HETATM   17  O   UNK N   1      27.674  23.406  -6.625  0.00  0.00    -0.261 OA
BRANCH  17  18
HETATM   18  C   UNK N   1      26.379  22.953  -6.603  0.00  0.00     0.367 C 
HETATM   19  O   UNK N   1      25.546  23.481  -5.877  0.00  0.00    -0.238 OA
HETATM   20  N   UNK N   1      26.010  21.909  -7.393  0.00  0.00    -0.336 N 
HETATM   21  C   UNK N   1      26.969  21.267  -8.253  0.00  0.00     0.154 C 
HETATM   22  C   UNK N   1      24.653  21.422  -7.384  0.00  0.00     0.154 C 
ENDBRANCH  17  18
ENDBRANCH   5  17
BRANCH   4  23
HETATM   23  O   UNK N   1      28.891  27.330  -4.103  0.00  0.00    -0.261 OA
BRANCH  23  24
HETATM   24  C   UNK N   1      27.800  28.081  -3.761  0.00  0.00     0.367 C 
HETATM   25  O   UNK N   1      26.921  27.617  -3.044  0.00  0.00    -0.238 OA
HETATM   26  N   UNK N   1      27.680  29.348  -4.236  0.00  0.00    -0.336 N 
HETATM   27  C   UNK N   1      28.694  29.906  -5.092  0.00  0.00     0.154 C 
HETATM   28  C   UNK N   1      26.527  30.152  -3.913  0.00  0.00     0.154 C 
ENDBRANCH  23  24
ENDBRANCH   4  23
TORSDOF 9
ENDMDL
MODEL 7
REMARK VINA RESULT:      -5.8      6.987     10.665
REMARK  9 active torsions:
REMARK  status: ('A' for Active; 'I' for Inactive)
REMARK    1  A    between atoms: O_1  and  C_11 
REMARK    2  A    between atoms: O_2  and  C_18 
REMARK    3  A    between atoms: O_2  and  C_21 
REMARK    4  A    between atoms: O_3  and  C_19 
REMARK    5  A    between atoms: O_3  and  C_22 
REMARK    6  A    between atoms: N_6  and  C_9 
REMARK    7  A    between atoms: N_6  and  C_10 
REMARK       I    between atoms: N_7  and  C_21 
REMARK       I    between atoms: N_8  and  C_22 
REMARK    8  A    between atoms: C_10  and  C_11 
REMARK    9  A    between atoms: C_11  and  C_15 
ROOT
HETATM    1  C   UNK N   1      21.432  16.553   6.746  0.00  0.00    -0.023 A 
HETATM    2  C   UNK N   1      22.662  16.016   6.323  0.00  0.00     0.047 A 
HETATM    3  C   UNK N   1      20.943  17.717   6.132  0.00  0.00     0.047 A 
HETATM    4  C   UNK N   1      21.664  18.347   5.118  0.00  0.00     0.084 A 
HETATM    5  C   UNK N   1      23.382  16.619   5.282  0.00  0.00     0.084 A 
HETATM    6  C   UNK N   1      22.872  17.784   4.698  0.00  0.00     0.074 A 
ENDROOT
BRANCH   1   7
HETATM    7  C   UNK N   1      20.681  15.938   7.899  0.00  0.00     0.168 C 
BRANCH   7   8
HETATM    8  O   UNK N   1      19.299  16.104   7.765  0.00  0.00    -0.389 OA
HETATM    9  H   UNK N   1      18.896  16.985   7.777  0.00  0.00     0.210 HD
ENDBRANCH   7   8
BRANCH   7  10
HETATM   10  C   UNK N   1      21.006  14.473   8.110  0.00  0.00     0.151 C 
BRANCH  10  11
HETATM   11  N   UNK N   1      21.616  14.336   9.431  0.00  0.00    -0.411 N 
HETATM   12  H   UNK N   1      21.654  15.086  10.121  0.00  0.00     0.154 HD
BRANCH  11  13
HETATM   13  C   UNK N   1      22.166  12.996   9.651  0.00  0.00     0.014 C 
HETATM   14  C   UNK N   1      21.430  12.285  10.775  0.00  0.00     0.037 C 
HETATM   15  C   UNK N   1      23.655  13.055   9.957  0.00  0.00     0.037 C 
HETATM   16  C   UNK N   1      21.979  12.193   8.381  0.00  0.00     0.037 C 
ENDBRANCH  11  13
ENDBRANCH  10  11
ENDBRANCH   7  10
ENDBRANCH   1   7
BRANCH   5  17
HETATM   17  O   UNK N   1      24.557  16.067   4.865  0.00  0.00    -0.261 OA
BRANCH  17  18
HETATM   18  C   UNK N   1      24.824  15.561   3.618  0.00  0.00     0.367 C 
HETATM   19  O   UNK N   1      24.045  14.784   3.080  0.00  0.00    -0.238 OA
HETATM   20  N   UNK N   1      25.962  15.924   2.967  0.00  0.00    -0.336 N 
HETATM   21  C   UNK N   1      26.897  16.833   3.576  0.00  0.00     0.154 C 
HETATM   22  C   UNK N   1      26.257  15.403   1.654  0.00  0.00     0.154 C 
ENDBRANCH  17  18
ENDBRANCH   5  17
BRANCH   4  23
HETATM   23  O   UNK N   1      21.194  19.511   4.596  0.00  0.00    -0.261 OA
BRANCH  23  24
HETATM   24  C   UNK N   1      21.435  20.009   3.345  0.00  0.00     0.367 C 
HETATM   25  O   UNK N   1      22.416  20.711   3.128  0.00  0.00    -0.238 OA
HETATM   26  N   UNK N   1      20.568  19.739   2.334  0.00  0.00    -0.336 N 
HETATM   27  C   UNK N   1      19.401  18.929   2.571  0.00  0.00     0.154 C 
HETATM   28  C   UNK N   1      20.782  20.273   1.013  0.00  0.00     0.154 C 
ENDBRANCH  23  24
ENDBRANCH   4  23
TORSDOF 9
ENDMDL
MODEL 8
REMARK VINA RESULT:      -5.8      6.643     10.358
REMARK  9 active torsions:
REMARK  status: ('A' for Active; 'I' for Inactive)
REMARK    1  A    between atoms: O_1  and  C_11 
REMARK    2  A    between atoms: O_2  and  C_18 
REMARK    3  A    between atoms: O_2  and  C_21 
REMARK    4  A    between atoms: O_3  and  C_19 
REMARK    5  A    between atoms: O_3  and  C_22 
REMARK    6  A    between atoms: N_6  and  C_9 
REMARK    7  A    between atoms: N_6  and  C_10 
REMARK       I    between atoms: N_7  and  C_21 
REMARK       I    between atoms: N_8  and  C_22 
REMARK    8  A    between atoms: C_10  and  C_11 
REMARK    9  A    between atoms: C_11  and  C_15 
ROOT
HETATM    1  C   UNK N   1      23.663  15.446   6.338  0.00  0.00    -0.023 A 
HETATM    2  C   UNK N   1      23.685  14.213   7.017  0.00  0.00     0.047 A 
HETATM    3  C   UNK N   1      22.526  16.263   6.434  0.00  0.00     0.047 A 
HETATM    4  C   UNK N   1      21.421  15.865   7.185  0.00  0.00     0.084 A 
HETATM    5  C   UNK N   1      22.594  13.814   7.802  0.00  0.00     0.084 A 
HETATM    6  C   UNK N   1      21.472  14.647   7.869  0.00  0.00     0.074 A 
ENDROOT
BRANCH   1   7
HETATM    7  C   UNK N   1      24.812  15.854   5.451  0.00  0.00     0.168 C 
BRANCH   7   8
HETATM    8  O   UNK N   1      24.942  15.003   4.348  0.00  0.00    -0.389 OA
HETATM    9  H   UNK N   1      24.181  14.513   4.000  0.00  0.00     0.210 HD
ENDBRANCH   7   8
BRANCH   7  10
HETATM   10  C   UNK N   1      24.725  17.292   4.984  0.00  0.00     0.151 C 
BRANCH  10  11
HETATM   11  N   UNK N   1      25.814  18.034   5.615  0.00  0.00    -0.411 N 
HETATM   12  H   UNK N   1      26.051  17.965   6.605  0.00  0.00     0.154 HD
BRANCH  11  13
HETATM   13  C   UNK N   1      26.528  18.889   4.664  0.00  0.00     0.014 C 
HETATM   14  C   UNK N   1      25.582  19.425   3.601  0.00  0.00     0.037 C 
HETATM   15  C   UNK N   1      27.680  18.143   4.009  0.00  0.00     0.037 C 
HETATM   16  C   UNK N   1      27.101  20.067   5.423  0.00  0.00     0.037 C 
ENDBRANCH  11  13
ENDBRANCH  10  11
ENDBRANCH   7  10
ENDBRANCH   1   7
BRANCH   5  17
HETATM   17  O   UNK N   1      22.644  12.630   8.478  0.00  0.00    -0.261 OA
BRANCH  17  18
HETATM   18  C   UNK N   1      23.304  12.389   9.656  0.00  0.00     0.367 C 
HETATM   19  O   UNK N   1      24.525  12.293   9.679  0.00  0.00    -0.238 OA
HETATM   20  N   UNK N   1      22.602  12.258  10.814  0.00  0.00    -0.336 N 
HETATM   21  C   UNK N   1      21.167  12.363  10.816  0.00  0.00     0.154 C 
HETATM   22  C   UNK N   1      23.280  12.008  12.061  0.00  0.00     0.154 C 
ENDBRANCH  17  18
ENDBRANCH   5  17
BRANCH   4  23
HETATM   23  O   UNK N   1      20.311  16.650   7.197  0.00  0.00    -0.261 OA
BRANCH  23  24
HETATM   24  C   UNK N   1      20.114  17.786   7.934  0.00  0.00     0.367 C 
HETATM   25  O   UNK N   1      20.703  18.824   7.654  0.00  0.00    -0.238 OA
HETATM   26  N   UNK N   1      19.270  17.760   8.998  0.00  0.00    -0.336 N 
HETATM   27  C   UNK N   1      18.580  16.547   9.353  0.00  0.00     0.154 C 
HETATM   28  C   UNK N   1      19.064  18.935   9.808  0.00  0.00     0.154 C 
ENDBRANCH  23  24
ENDBRANCH   4  23
TORSDOF 9
ENDMDL
MODEL 9
REMARK VINA RESULT:      -5.8     11.406     14.132
REMARK  9 active torsions:
REMARK  status: ('A' for Active; 'I' for Inactive)
REMARK    1  A    between atoms: O_1  and  C_11 
REMARK    2  A    between atoms: O_2  and  C_18 
REMARK    3  A    between atoms: O_2  and  C_21 
REMARK    4  A    between atoms: O_3  and  C_19 
REMARK    5  A    between atoms: O_3  and  C_22 
REMARK    6  A    between atoms: N_6  and  C_9 
REMARK    7  A    between atoms: N_6  and  C_10 
REMARK       I    between atoms: N_7  and  C_21 
REMARK       I    between atoms: N_8  and  C_22 
REMARK    8  A    between atoms: C_10  and  C_11 
REMARK    9  A    between atoms: C_11  and  C_15 
ROOT
HETATM    1  C   UNK N   1      29.597  25.420  -4.146  0.00  0.00    -0.023 A 
HETATM    2  C   UNK N   1      28.670  25.308  -5.199  0.00  0.00     0.047 A 
HETATM    3  C   UNK N   1      30.111  24.255  -3.556  0.00  0.00     0.047 A 
HETATM    4  C   UNK N   1      29.710  22.994  -3.997  0.00  0.00     0.084 A 
HETATM    5  C   UNK N   1      28.282  24.047  -5.674  0.00  0.00     0.084 A 
HETATM    6  C   UNK N   1      28.806  22.905  -5.059  0.00  0.00     0.074 A 
ENDROOT
BRANCH   1   7
HETATM    7  C   UNK N   1      29.975  26.772  -3.597  0.00  0.00     0.168 C 
BRANCH   7   8
HETATM    8  O   UNK N   1      31.354  26.994  -3.673  0.00  0.00    -0.389 OA
HETATM    9  H   UNK N   1      31.714  27.760  -4.146  0.00  0.00     0.210 HD
ENDBRANCH   7   8
BRANCH   7  10
HETATM   10  C   UNK N   1      29.233  27.915  -4.258  0.00  0.00     0.151 C 
BRANCH  10  11
HETATM   11  N   UNK N   1      28.183  28.356  -3.344  0.00  0.00    -0.411 N 
HETATM   12  H   UNK N   1      28.304  28.434  -2.333  0.00  0.00     0.154 HD
BRANCH  11  13
HETATM   13  C   UNK N   1      26.936  28.674  -4.043  0.00  0.00     0.014 C 
HETATM   14  C   UNK N   1      25.826  27.717  -3.636  0.00  0.00     0.037 C 
HETATM   15  C   UNK N   1      27.126  28.643  -5.551  0.00  0.00     0.037 C 
HETATM   16  C   UNK N   1      26.517  30.075  -3.650  0.00  0.00     0.037 C 
ENDBRANCH  11  13
ENDBRANCH  10  11
ENDBRANCH   7  10
ENDBRANCH   1   7
BRANCH   5  17
HETATM   17  O   UNK N   1      27.406  23.958  -6.716  0.00  0.00    -0.261 OA
BRANCH  17  18
HETATM   18  C   UNK N   1      26.195  23.314  -6.712  0.00  0.00     0.367 C 
HETATM   19  O   UNK N   1      25.252  23.763  -6.072  0.00  0.00    -0.238 OA
HETATM   20  N   UNK N   1      26.032  22.168  -7.427  0.00  0.00    -0.336 N 
HETATM   21  C   UNK N   1      27.123  21.616  -8.186  0.00  0.00     0.154 C 
HETATM   22  C   UNK N   1      24.764  21.481  -7.437  0.00  0.00     0.154 C 
ENDBRANCH  17  18
ENDBRANCH   5  17
BRANCH   4  23
HETATM   23  O   UNK N   1      30.176  21.889  -3.356  0.00  0.00    -0.261 OA
BRANCH  23  24
HETATM   24  C   UNK N   1      31.483  21.573  -3.104  0.00  0.00     0.367 C 
HETATM   25  O   UNK N   1      32.041  21.980  -2.091  0.00  0.00    -0.238 OA
HETATM   26  N   UNK N   1      32.177  20.816  -3.993  0.00  0.00    -0.336 N 
HETATM   27  C   UNK N   1      31.544  20.340  -5.196  0.00  0.00     0.154 C 
HETATM   28  C   UNK N   1      33.563  20.490  -3.765  0.00  0.00     0.154 C 
ENDBRANCH  23  24
ENDBRANCH   4  23
TORSDOF 9
ENDMDL
