MODEL 1
REMARK VINA RESULT:      -5.0      0.000      0.000
REMARK  0 active torsions:
REMARK  status: ('A' for Active; 'I' for Inactive)
ROOT
HETATM    1  O   UNK N   1      40.721  23.436   1.074  0.00  0.00    -0.265 OA
HETATM    2  O   UNK N   1      44.735  24.238   2.952  0.00  0.00    -0.246 OA
HETATM    3  N   UNK N   1      40.786  20.811   2.302  0.00  0.00    -0.340 N 
HETATM    4  N   UNK N   1      43.790  22.220   3.340  0.00  0.00    -0.288 N 
HETATM    5  N   UNK N   1      42.729  23.899   1.988  0.00  0.00    -0.273 N 
HETATM    6  N   UNK N   1      42.525  20.168   3.563  0.00  0.00    -0.336 N 
ATOM      7  HN  UNK N   1      43.141  19.615   4.157  1.00  0.00     0.168 HD
HETATM    8  C   UNK N   1      41.676  21.810   2.346  0.00  0.00     0.148 A 
HETATM    9  C   UNK N   1      42.721  21.420   3.106  0.00  0.00     0.145 A 
HETATM   10  C   UNK N   1      41.655  23.069   1.764  0.00  0.00     0.280 A 
HETATM   11  C   UNK N   1      43.795  23.483   2.770  0.00  0.00     0.330 A 
HETATM   12  C   UNK N   1      41.316  19.812   3.050  0.00  0.00     0.184 A 
HETATM   13  C   UNK N   1      44.893  21.749   4.168  0.00  0.00     0.163 C 
HETATM   14  C   UNK N   1      39.513  20.785   1.604  0.00  0.00     0.157 C 
HETATM   15  H   UNK N   1      42.741  24.798   1.588  0.00  0.00     0.173 HD
ENDROOT
TORSDOF 0
ENDMDL
MODEL 2
REMARK VINA RESULT:      -4.9     12.182     13.375
REMARK  0 active torsions:
REMARK  status: ('A' for Active; 'I' for Inactive)
ROOT
HETATM    1  O   UNK N   1      35.622  17.419  10.472  0.00  0.00    -0.265 OA
HETATM    2  O   UNK N   1      36.894  13.660  12.600  0.00  0.00    -0.246 OA
HETATM    3  N   UNK N   1      33.497  15.880   9.240  0.00  0.00    -0.340 N 
HETATM    4  N   UNK N   1      35.106  13.520  11.221  0.00  0.00    -0.288 N 
HETATM    5  N   UNK N   1      36.307  15.572  11.568  0.00  0.00    -0.273 N 
HETATM    6  N   UNK N   1      33.244  13.697   9.686  0.00  0.00    -0.336 N 
ATOM      7  HN  UNK N   1      32.889  12.742   9.687  1.00  0.00     0.168 HD
HETATM    8  C   UNK N   1      34.446  15.507  10.107  0.00  0.00     0.148 A 
HETATM    9  C   UNK N   1      34.290  14.193  10.372  0.00  0.00     0.145 A 
HETATM   10  C   UNK N   1      35.466  16.234  10.702  0.00  0.00     0.280 A 
HETATM   11  C   UNK N   1      36.134  14.222  11.830  0.00  0.00     0.330 A 
HETATM   12  C   UNK N   1      32.767  14.766   8.990  0.00  0.00     0.184 A 
HETATM   13  C   UNK N   1      34.895  12.100  11.473  0.00  0.00     0.163 C 
HETATM   14  C   UNK N   1      33.278  17.200   8.676  0.00  0.00     0.157 C 
HETATM   15  H   UNK N   1      37.039  16.063  12.005  0.00  0.00     0.173 HD
ENDROOT
TORSDOF 0
ENDMDL
MODEL 3
REMARK VINA RESULT:      -4.9     20.940     22.032
REMARK  0 active torsions:
REMARK  status: ('A' for Active; 'I' for Inactive)
ROOT
HETATM    1  O   UNK N   1      21.317  17.327   4.722  0.00  0.00    -0.265 OA
HETATM    2  O   UNK N   1      21.945  21.409   2.925  0.00  0.00    -0.246 OA
HETATM    3  N   UNK N   1      20.165  16.504   2.192  0.00  0.00    -0.340 N 
HETATM    4  N   UNK N   1      20.991  19.831   1.614  0.00  0.00    -0.288 N 
HETATM    5  N   UNK N   1      21.659  19.390   3.879  0.00  0.00    -0.273 N 
HETATM    6  N   UNK N   1      19.999  17.939   0.477  0.00  0.00    -0.336 N 
ATOM      7  HN  UNK N   1      19.797  18.337  -0.439  1.00  0.00     0.168 HD
HETATM    8  C   UNK N   1      20.666  17.686   2.571  0.00  0.00     0.148 A 
HETATM    9  C   UNK N   1      20.565  18.546   1.537  0.00  0.00     0.145 A 
HETATM   10  C   UNK N   1      21.220  18.090   3.777  0.00  0.00     0.280 A 
HETATM   11  C   UNK N   1      21.548  20.262   2.808  0.00  0.00     0.330 A 
HETATM   12  C   UNK N   1      19.760  16.670   0.909  0.00  0.00     0.184 A 
HETATM   13  C   UNK N   1      20.858  20.720   0.467  0.00  0.00     0.163 C 
HETATM   14  C   UNK N   1      20.067  15.287   2.977  0.00  0.00     0.157 C 
HETATM   15  H   UNK N   1      22.057  19.704   4.723  0.00  0.00     0.173 HD
ENDROOT
TORSDOF 0
ENDMDL
MODEL 4
REMARK VINA RESULT:      -4.8     10.647     12.135
REMARK  0 active torsions:
REMARK  status: ('A' for Active; 'I' for Inactive)
ROOT
HETATM    1  O   UNK N   1      35.519  16.054  11.513  0.00  0.00    -0.265 OA
HETATM    2  O   UNK N   1      34.845  19.123   8.286  0.00  0.00    -0.246 OA
HETATM    3  N   UNK N   1      34.517  14.050   9.673  0.00  0.00    -0.340 N 
HETATM    4  N   UNK N   1      34.317  16.976   7.806  0.00  0.00    -0.288 N 
HETATM    5  N   UNK N   1      35.206  17.637   9.938  0.00  0.00    -0.273 N 
HETATM    6  N   UNK N   1      33.852  14.609   7.606  0.00  0.00    -0.336 N 
ATOM      7  HN  UNK N   1      33.494  14.554   6.653  1.00  0.00     0.168 HD
HETATM    8  C   UNK N   1      34.676  15.369   9.513  0.00  0.00     0.148 A 
HETATM    9  C   UNK N   1      34.275  15.702   8.269  0.00  0.00     0.145 A 
HETATM   10  C   UNK N   1      35.155  16.336  10.386  0.00  0.00     0.280 A 
HETATM   11  C   UNK N   1      34.790  17.962   8.657  0.00  0.00     0.330 A 
HETATM   12  C   UNK N   1      34.012  13.596   8.500  0.00  0.00     0.184 A 
HETATM   13  C   UNK N   1      33.870  17.282   6.453  0.00  0.00     0.163 C 
HETATM   14  C   UNK N   1      34.817  13.255  10.850  0.00  0.00     0.157 C 
HETATM   15  H   UNK N   1      35.542  18.344  10.535  0.00  0.00     0.173 HD
ENDROOT
TORSDOF 0
ENDMDL
MODEL 5
REMARK VINA RESULT:      -4.8     10.681     11.959
REMARK  0 active torsions:
REMARK  status: ('A' for Active; 'I' for Inactive)
ROOT
HETATM    1  O   UNK N   1      34.166  18.125   6.487  0.00  0.00    -0.265 OA
HETATM    2  O   UNK N   1      35.504  17.338  10.715  0.00  0.00    -0.246 OA
HETATM    3  N   UNK N   1      32.746  15.600   6.576  0.00  0.00    -0.340 N 
HETATM    4  N   UNK N   1      34.189  15.781   9.734  0.00  0.00    -0.288 N 
HETATM    5  N   UNK N   1      34.868  17.790   8.603  0.00  0.00    -0.273 N 
HETATM    6  N   UNK N   1      32.786  14.316   8.414  0.00  0.00    -0.336 N 
ATOM      7  HN  UNK N   1      32.622  13.551   9.067  1.00  0.00     0.168 HD
HETATM    8  C   UNK N   1      33.491  16.207   7.507  0.00  0.00     0.148 A 
HETATM    9  C   UNK N   1      33.512  15.432   8.611  0.00  0.00     0.145 A 
HETATM   10  C   UNK N   1      34.173  17.414   7.476  0.00  0.00     0.280 A 
HETATM   11  C   UNK N   1      34.880  16.982   9.729  0.00  0.00     0.330 A 
HETATM   12  C   UNK N   1      32.319  14.444   7.142  0.00  0.00     0.184 A 
HETATM   13  C   UNK N   1      34.181  14.906  10.899  0.00  0.00     0.163 C 
HETATM   14  C   UNK N   1      32.445  16.067   5.234  0.00  0.00     0.157 C 
HETATM   15  H   UNK N   1      35.361  18.642   8.610  0.00  0.00     0.173 HD
ENDROOT
TORSDOF 0
ENDMDL
MODEL 6
REMARK VINA RESULT:      -4.8     10.797     12.007
REMARK  0 active torsions:
REMARK  status: ('A' for Active; 'I' for Inactive)
ROOT
HETATM    1  O   UNK N   1      36.107  13.290   8.387  0.00  0.00    -0.265 OA
HETATM    2  O   UNK N   1      34.395  16.630   5.898  0.00  0.00    -0.246 OA
HETATM    3  N   UNK N   1      35.758  14.983  10.714  0.00  0.00    -0.340 N 
HETATM    4  N   UNK N   1      34.575  16.981   8.126  0.00  0.00    -0.288 N 
HETATM    5  N   UNK N   1      35.256  14.924   7.087  0.00  0.00    -0.273 N 
HETATM    6  N   UNK N   1      34.897  17.045  10.524  0.00  0.00    -0.336 N 
ATOM      7  HN  UNK N   1      34.553  17.978  10.748  1.00  0.00     0.168 HD
HETATM    8  C   UNK N   1      35.478  15.214   9.426  0.00  0.00     0.148 A 
HETATM    9  C   UNK N   1      34.960  16.455   9.315  0.00  0.00     0.145 A 
HETATM   10  C   UNK N   1      35.640  14.411   8.306  0.00  0.00     0.280 A 
HETATM   11  C   UNK N   1      34.727  16.200   6.990  0.00  0.00     0.330 A 
HETATM   12  C   UNK N   1      35.398  16.110  11.377  0.00  0.00     0.184 A 
HETATM   13  C   UNK N   1      34.023  18.327   8.061  0.00  0.00     0.163 C 
HETATM   14  C   UNK N   1      36.327  13.782  11.299  0.00  0.00     0.157 C 
HETATM   15  H   UNK N   1      35.359  14.376   6.276  0.00  0.00     0.173 HD
ENDROOT
TORSDOF 0
ENDMDL
MODEL 7
REMARK VINA RESULT:      -4.8     11.207     12.888
REMARK  0 active torsions:
REMARK  status: ('A' for Active; 'I' for Inactive)
ROOT
HETATM    1  O   UNK N   1      30.067  17.170   4.936  0.00  0.00    -0.265 OA
HETATM    2  O   UNK N   1      34.424  17.506   6.025  0.00  0.00    -0.246 OA
HETATM    3  N   UNK N   1      29.461  17.221   7.770  0.00  0.00    -0.340 N 
HETATM    4  N   UNK N   1      32.929  17.458   7.722  0.00  0.00    -0.288 N 
HETATM    5  N   UNK N   1      32.263  17.339   5.416  0.00  0.00    -0.273 N 
HETATM    6  N   UNK N   1      31.094  17.381   9.298  0.00  0.00    -0.336 N 
ATOM      7  HN  UNK N   1      31.589  17.443  10.187  1.00  0.00     0.168 HD
HETATM    8  C   UNK N   1      30.637  17.282   7.135  0.00  0.00     0.148 A 
HETATM    9  C   UNK N   1      31.617  17.378   8.058  0.00  0.00     0.145 A 
HETATM   10  C   UNK N   1      30.938  17.259   5.781  0.00  0.00     0.280 A 
HETATM   11  C   UNK N   1      33.258  17.437   6.376  0.00  0.00     0.330 A 
HETATM   12  C   UNK N   1      29.752  17.283   9.092  0.00  0.00     0.184 A 
HETATM   13  C   UNK N   1      33.948  17.560   8.758  0.00  0.00     0.163 C 
HETATM   14  C   UNK N   1      28.138  17.111   7.181  0.00  0.00     0.157 C 
HETATM   15  H   UNK N   1      32.506  17.326   4.462  0.00  0.00     0.173 HD
ENDROOT
TORSDOF 0
ENDMDL
MODEL 8
REMARK VINA RESULT:      -4.7     14.041     15.594
REMARK  0 active torsions:
REMARK  status: ('A' for Active; 'I' for Inactive)
ROOT
HETATM    1  O   UNK N   1      34.470  11.153  13.655  0.00  0.00    -0.265 OA
HETATM    2  O   UNK N   1      34.476  13.916  10.099  0.00  0.00    -0.246 OA
HETATM    3  N   UNK N   1      36.140  13.084  15.028  0.00  0.00    -0.340 N 
HETATM    4  N   UNK N   1      35.633  14.574  11.928  0.00  0.00    -0.288 N 
HETATM    5  N   UNK N   1      34.433  12.494  11.843  0.00  0.00    -0.273 N 
HETATM    6  N   UNK N   1      36.770  14.987  14.024  0.00  0.00    -0.336 N 
ATOM      7  HN  UNK N   1      37.200  15.894  13.845  1.00  0.00     0.168 HD
HETATM    8  C   UNK N   1      35.621  13.110  13.795  0.00  0.00     0.148 A 
HETATM    9  C   UNK N   1      36.002  14.256  13.194  0.00  0.00     0.145 A 
HETATM   10  C   UNK N   1      34.821  12.193  13.129  0.00  0.00     0.280 A 
HETATM   11  C   UNK N   1      34.833  13.675  11.239  0.00  0.00     0.330 A 
HETATM   12  C   UNK N   1      36.840  14.237  15.158  0.00  0.00     0.184 A 
HETATM   13  C   UNK N   1      36.073  15.825  11.326  0.00  0.00     0.163 C 
HETATM   14  C   UNK N   1      35.993  12.046  16.032  0.00  0.00     0.157 C 
HETATM   15  H   UNK N   1      33.865  11.862  11.346  0.00  0.00     0.173 HD
ENDROOT
TORSDOF 0
ENDMDL
MODEL 9
REMARK VINA RESULT:      -4.7     14.531     15.999
REMARK  0 active torsions:
REMARK  status: ('A' for Active; 'I' for Inactive)
ROOT
HETATM    1  O   UNK N   1      36.806  14.589  15.258  0.00  0.00    -0.265 OA
HETATM    2  O   UNK N   1      36.764  14.197  10.772  0.00  0.00    -0.246 OA
HETATM    3  N   UNK N   1      34.844  12.458  15.360  0.00  0.00    -0.340 N 
HETATM    4  N   UNK N   1      35.414  12.816  11.949  0.00  0.00    -0.288 N 
HETATM    5  N   UNK N   1      36.831  14.441  13.009  0.00  0.00    -0.273 N 
HETATM    6  N   UNK N   1      34.089  11.492  13.482  0.00  0.00    -0.336 N 
ATOM      7  HN  UNK N   1      33.580  10.888  12.838  1.00  0.00     0.168 HD
HETATM    8  C   UNK N   1      35.446  13.031  14.311  0.00  0.00     0.148 A 
HETATM    9  C   UNK N   1      34.989  12.448  13.183  0.00  0.00     0.145 A 
HETATM   10  C   UNK N   1      36.385  14.050  14.251  0.00  0.00     0.280 A 
HETATM   11  C   UNK N   1      36.353  13.832  11.860  0.00  0.00     0.330 A 
HETATM   12  C   UNK N   1      34.017  11.517  14.841  0.00  0.00     0.184 A 
HETATM   13  C   UNK N   1      34.888  12.153  10.763  0.00  0.00     0.163 C 
HETATM   14  C   UNK N   1      35.028  12.764  16.767  0.00  0.00     0.157 C 
HETATM   15  H   UNK N   1      37.499  15.161  12.936  0.00  0.00     0.173 HD
ENDROOT
TORSDOF 0
ENDMDL
