REMARK  0 active torsions:
REMARK  status: ('A' for Active; 'I' for Inactive)
ROOT
HETATM    1  O   UNK N   1       2.803   2.607   0.002  0.00  0.00    -0.265 OA
HETATM    2  O   UNK N   1       0.442  -1.228  -0.001  0.00  0.00    -0.246 OA
HETATM    3  N   UNK N   1       5.216   1.001   0.001  0.00  0.00    -0.340 N 
HETATM    4  N   UNK N   1       2.698  -1.396  -0.001  0.00  0.00    -0.288 N 
HETATM    5  N   UNK N   1       1.565   0.723  -0.001  0.00  0.00    -0.273 N 
HETATM    6  N   UNK N   1       5.113  -1.239   0.001  0.00  0.00    -0.336 N 
ATOM      7  HN  UNK N   1       5.379  -2.223   0.001  1.00  0.00     0.168 HD
HETATM    8  C   UNK N   1       3.930   0.631  -0.000  0.00  0.00     0.148 A 
HETATM    9  C   UNK N   1       3.872  -0.717  -0.000  0.00  0.00     0.145 A 
HETATM   10  C   UNK N   1       2.769   1.390  -0.000  0.00  0.00     0.280 A 
HETATM   11  C   UNK N   1       1.522  -0.662  -0.001  0.00  0.00     0.330 A 
HETATM   12  C   UNK N   1       5.931  -0.151   0.001  0.00  0.00     0.184 A 
HETATM   13  C   UNK N   1       2.691  -2.853   0.000  0.00  0.00     0.163 C 
HETATM   14  C   UNK N   1       5.753   2.350   0.001  0.00  0.00     0.157 C 
HETATM   15  H   UNK N   1       0.725   1.236  -0.002  0.00  0.00     0.173 HD
ENDROOT
TORSDOF 0
