MODEL 1
REMARK VINA RESULT:      -7.3      0.000      0.000
REMARK  8 active torsions:
REMARK  status: ('A' for Active; 'I' for Inactive)
REMARK    1  A    between atoms: O_7  and  N_11 
REMARK    2  A    between atoms: N_8  and  C_18 
REMARK    3  A    between atoms: C_24  and  N_10 
REMARK       I    between atoms: N_10  and  C_29 
REMARK    4  A    between atoms: N_15  and  C_33 
REMARK    5  A    between atoms: C_18  and  C_22 
REMARK    6  A    between atoms: C_25  and  C_28 
REMARK    7  A    between atoms: C_29  and  C_30 
REMARK    8  A    between atoms: C_30  and  C_31 
ROOT
HETATM    1  S   UNK N   1      37.769  12.856  10.254  0.00  0.00    -0.136 SA
HETATM    2  O   UNK N   1      35.650  15.934  12.467  0.00  0.00    -0.271 OA
HETATM    3  N   UNK N   1      35.758  13.773  11.799  0.00  0.00    -0.293 N 
HETATM    4  C   UNK N   1      37.031  11.974  12.725  0.00  0.00    -0.011 C 
HETATM    5  C   UNK N   1      36.102  13.520  10.434  0.00  0.00     0.187 A 
HETATM    6  C   UNK N   1      36.035  15.092  10.190  0.00  0.00     0.211 A 
HETATM    7  C   UNK N   1      36.246  13.070  12.959  0.00  0.00     0.120 C 
HETATM    8  C   UNK N   1      37.236  11.487  11.316  0.00  0.00     0.114 C 
HETATM    9  C   UNK N   1      35.582  15.061  11.622  0.00  0.00     0.251 A 
ENDROOT
BRANCH   6  10
HETATM   10  N   UNK N   1      35.081  15.336   9.143  0.00  0.00    -0.340 N 
HETATM   11  C   UNK N   1      34.497  16.498   8.784  0.00  0.00     0.273 C 
HETATM   12  O   UNK N   1      34.806  17.557   9.311  0.00  0.00    -0.266 OA
HETATM   13  H   UNK N   1      34.818  14.547   8.616  0.00  0.00     0.163 HD
BRANCH  11  14
HETATM   14  C   UNK N   1      33.576  16.457   7.634  0.00  0.00     0.149 C 
HETATM   15  N   UNK N   1      34.026  16.286   6.432  0.00  0.00    -0.260 N 
ATOM     16  HN  UNK N   1      33.387  16.373   5.641  1.00  0.00     0.194 HD
BRANCH  15  17
HETATM   17  O   UNK N   1      35.295  15.999   6.210  0.00  0.00    -0.285 OA
HETATM   18  C   UNK N   1      35.655  14.791   5.673  0.00  0.00     0.237 C 
ENDBRANCH  15  17
BRANCH  14  19
HETATM   19  C   UNK N   1      32.177  16.850   7.850  0.00  0.00     0.075 A 
HETATM   20  N   UNK N   1      31.795  17.520   8.994  0.00  0.00    -0.335 N 
HETATM   21  C   UNK N   1      30.512  17.924   8.935  0.00  0.00     0.142 A 
ATOM     22  HN  UNK N   1      32.411  17.688   9.790  1.00  0.00     0.168 HD
HETATM   23  S   UNK N   1      29.854  17.489   7.493  0.00  0.00    -0.064 SA
HETATM   24  C   UNK N   1      31.186  16.732   6.853  0.00  0.00     0.085 A 
BRANCH  21  25
HETATM   25  N   UNK N   1      29.869  18.652   9.954  0.00  0.00    -0.380 N 
HETATM   26  H   UNK N   1      30.200  18.602  10.880  0.00  0.00     0.158 HD
HETATM   27  H   UNK N   1      29.088  19.211   9.740  0.00  0.00     0.158 HD
ENDBRANCH  21  25
ENDBRANCH  14  19
ENDBRANCH  11  14
ENDBRANCH   6  10
BRANCH   7  28
HETATM   28  C   UNK N   1      35.961  13.569  14.351  0.00  0.00     0.227 C 
HETATM   29  O   UNK N   1      36.891  14.262  15.033  0.00  0.00    -0.643 OA
HETATM   30  O   UNK N   1      34.865  13.407  14.865  0.00  0.00    -0.643 OA
ENDBRANCH   7  28
BRANCH   4  31
HETATM   31  C   UNK N   1      37.742  11.218  13.821  0.00  0.00     0.274 C 
BRANCH  31  32
HETATM   32  N   UNK N   1      37.058   9.992  14.286  0.00  0.00    -0.067 N 
HETATM   33  C   UNK N   1      35.637   9.860  13.947  0.00  0.00     0.237 C 
HETATM   34  C   UNK N   1      34.830   9.963  15.233  0.00  0.00     0.029 C 
HETATM   35  C   UNK N   1      35.824  10.348  16.299  0.00  0.00     0.029 C 
HETATM   36  C   UNK N   1      37.156   9.910  15.735  0.00  0.00     0.237 C 
HETATM   37  C   UNK N   1      37.755   8.855  13.714  0.00  0.00     0.272 C 
ENDBRANCH  31  32
ENDBRANCH   4  31
TORSDOF 8
ENDMDL
MODEL 2
REMARK VINA RESULT:      -6.8      2.127      3.407
REMARK  8 active torsions:
REMARK  status: ('A' for Active; 'I' for Inactive)
REMARK    1  A    between atoms: O_7  and  N_11 
REMARK    2  A    between atoms: N_8  and  C_18 
REMARK    3  A    between atoms: C_24  and  N_10 
REMARK       I    between atoms: N_10  and  C_29 
REMARK    4  A    between atoms: N_15  and  C_33 
REMARK    5  A    between atoms: C_18  and  C_22 
REMARK    6  A    between atoms: C_25  and  C_28 
REMARK    7  A    between atoms: C_29  and  C_30 
REMARK    8  A    between atoms: C_30  and  C_31 
ROOT
HETATM    1  S   UNK N   1      36.196  13.283   8.414  0.00  0.00    -0.136 SA
HETATM    2  O   UNK N   1      35.161  16.408  11.246  0.00  0.00    -0.271 OA
HETATM    3  N   UNK N   1      34.793  14.311  10.474  0.00  0.00    -0.293 N 
HETATM    4  C   UNK N   1      35.997  12.301  10.949  0.00  0.00    -0.011 C 
HETATM    5  C   UNK N   1      34.739  14.129   9.056  0.00  0.00     0.187 A 
HETATM    6  C   UNK N   1      34.832  15.712   8.912  0.00  0.00     0.211 A 
HETATM    7  C   UNK N   1      35.457  13.462  11.431  0.00  0.00     0.120 C 
HETATM    8  C   UNK N   1      35.766  11.908   9.514  0.00  0.00     0.114 C 
HETATM    9  C   UNK N   1      34.759  15.621  10.409  0.00  0.00     0.251 A 
ENDROOT
BRANCH   6  10
HETATM   10  N   UNK N   1      33.686  16.155   8.165  0.00  0.00    -0.340 N 
HETATM   11  C   UNK N   1      33.588  17.183   7.297  0.00  0.00     0.273 C 
HETATM   12  O   UNK N   1      34.566  17.846   6.980  0.00  0.00    -0.266 OA
HETATM   13  H   UNK N   1      32.861  15.637   8.306  0.00  0.00     0.163 HD
BRANCH  11  14
HETATM   14  C   UNK N   1      32.284  17.383   6.641  0.00  0.00     0.149 C 
HETATM   15  N   UNK N   1      31.224  17.636   7.340  0.00  0.00    -0.260 N 
ATOM     16  HN  UNK N   1      30.314  17.658   6.879  1.00  0.00     0.194 HD
BRANCH  15  17
HETATM   17  O   UNK N   1      31.299  17.866   8.638  0.00  0.00    -0.285 OA
HETATM   18  C   UNK N   1      30.294  18.532   9.289  0.00  0.00     0.237 C 
ENDBRANCH  15  17
BRANCH  14  19
HETATM   19  C   UNK N   1      32.166  17.055   5.214  0.00  0.00     0.075 A 
HETATM   20  N   UNK N   1      33.222  16.497   4.522  0.00  0.00    -0.335 N 
HETATM   21  C   UNK N   1      32.869  16.131   3.276  0.00  0.00     0.142 A 
ATOM     22  HN  UNK N   1      34.158  16.377   4.909  1.00  0.00     0.168 HD
HETATM   23  S   UNK N   1      31.280  16.464   3.023  0.00  0.00    -0.064 SA
HETATM   24  C   UNK N   1      30.944  17.120   4.511  0.00  0.00     0.085 A 
BRANCH  21  25
HETATM   25  N   UNK N   1      33.743  15.513   2.361  0.00  0.00    -0.380 N 
HETATM   26  H   UNK N   1      34.614  15.923   2.155  0.00  0.00     0.158 HD
HETATM   27  H   UNK N   1      33.481  14.670   1.926  0.00  0.00     0.158 HD
ENDBRANCH  21  25
ENDBRANCH  14  19
ENDBRANCH  11  14
ENDBRANCH   6  10
BRANCH   7  28
HETATM   28  C   UNK N   1      35.609  13.878  12.870  0.00  0.00     0.227 C 
HETATM   29  O   UNK N   1      34.702  13.501  13.790  0.00  0.00    -0.643 OA
HETATM   30  O   UNK N   1      36.583  14.512  13.242  0.00  0.00    -0.643 OA
ENDBRANCH   7  28
BRANCH   4  31
HETATM   31  C   UNK N   1      36.851  11.378  11.782  0.00  0.00     0.274 C 
BRANCH  31  32
HETATM   32  N   UNK N   1      36.176  10.148  12.253  0.00  0.00    -0.067 N 
HETATM   33  C   UNK N   1      34.709  10.164  12.261  0.00  0.00     0.237 C 
HETATM   34  C   UNK N   1      34.241  10.143  13.708  0.00  0.00     0.029 C 
HETATM   35  C   UNK N   1      35.491  10.306  14.535  0.00  0.00     0.029 C 
HETATM   36  C   UNK N   1      36.602   9.860  13.613  0.00  0.00     0.237 C 
HETATM   37  C   UNK N   1      36.601   9.056  11.397  0.00  0.00     0.272 C 
ENDBRANCH  31  32
ENDBRANCH   4  31
TORSDOF 8
ENDMDL
MODEL 3
REMARK VINA RESULT:      -6.8      2.485      8.965
REMARK  8 active torsions:
REMARK  status: ('A' for Active; 'I' for Inactive)
REMARK    1  A    between atoms: O_7  and  N_11 
REMARK    2  A    between atoms: N_8  and  C_18 
REMARK    3  A    between atoms: C_24  and  N_10 
REMARK       I    between atoms: N_10  and  C_29 
REMARK    4  A    between atoms: N_15  and  C_33 
REMARK    5  A    between atoms: C_18  and  C_22 
REMARK    6  A    between atoms: C_25  and  C_28 
REMARK    7  A    between atoms: C_29  and  C_30 
REMARK    8  A    between atoms: C_30  and  C_31 
ROOT
HETATM    1  S   UNK N   1      31.942  14.942  10.155  0.00  0.00    -0.136 SA
HETATM    2  O   UNK N   1      35.486  17.453  10.214  0.00  0.00    -0.271 OA
HETATM    3  N   UNK N   1      34.240  15.908   9.124  0.00  0.00    -0.293 N 
HETATM    4  C   UNK N   1      32.292  16.225   7.775  0.00  0.00    -0.011 C 
HETATM    5  C   UNK N   1      33.721  14.816   9.891  0.00  0.00     0.187 A 
HETATM    6  C   UNK N   1      34.568  15.363  11.124  0.00  0.00     0.211 A 
HETATM    7  C   UNK N   1      33.542  16.666   8.116  0.00  0.00     0.120 C 
HETATM    8  C   UNK N   1      31.771  14.936   8.350  0.00  0.00     0.114 C 
HETATM    9  C   UNK N   1      35.038  16.329  10.076  0.00  0.00     0.251 A 
ENDROOT
BRANCH   6  10
HETATM   10  N   UNK N   1      35.437  14.306  11.565  0.00  0.00    -0.340 N 
HETATM   11  C   UNK N   1      36.260  14.278  12.634  0.00  0.00     0.273 C 
HETATM   12  O   UNK N   1      36.292  15.197  13.439  0.00  0.00    -0.266 OA
HETATM   13  H   UNK N   1      35.431  13.492  11.011  0.00  0.00     0.163 HD
BRANCH  11  14
HETATM   14  C   UNK N   1      37.014  13.032  12.865  0.00  0.00     0.149 C 
HETATM   15  N   UNK N   1      37.665  12.464  11.900  0.00  0.00    -0.260 N 
ATOM     16  HN  UNK N   1      38.084  11.547  12.052  1.00  0.00     0.194 HD
BRANCH  15  17
HETATM   17  O   UNK N   1      37.795  13.050  10.725  0.00  0.00    -0.285 OA
HETATM   18  C   UNK N   1      39.025  13.156  10.129  0.00  0.00     0.237 C 
ENDBRANCH  15  17
BRANCH  14  19
HETATM   19  C   UNK N   1      36.818  12.327  14.139  0.00  0.00     0.075 A 
HETATM   20  N   UNK N   1      36.081  12.894  15.159  0.00  0.00    -0.335 N 
HETATM   21  C   UNK N   1      35.890  12.034  16.177  0.00  0.00     0.142 A 
ATOM     22  HN  UNK N   1      35.726  13.850  15.144  1.00  0.00     0.168 HD
HETATM   23  S   UNK N   1      36.592  10.590  15.830  0.00  0.00    -0.064 SA
HETATM   24  C   UNK N   1      37.206  10.986  14.340  0.00  0.00     0.085 A 
BRANCH  21  25
HETATM   25  N   UNK N   1      35.151  12.341  17.336  0.00  0.00    -0.380 N 
HETATM   26  H   UNK N   1      34.167  12.345  17.309  0.00  0.00     0.158 HD
HETATM   27  H   UNK N   1      35.621  12.552  18.175  0.00  0.00     0.158 HD
ENDBRANCH  21  25
ENDBRANCH  14  19
ENDBRANCH  11  14
ENDBRANCH   6  10
BRANCH   7  28
HETATM   28  C   UNK N   1      34.137  17.918   7.530  0.00  0.00     0.227 C 
HETATM   29  O   UNK N   1      34.217  19.045   8.261  0.00  0.00    -0.643 OA
HETATM   30  O   UNK N   1      34.610  17.922   6.404  0.00  0.00    -0.643 OA
ENDBRANCH   7  28
BRANCH   4  31
HETATM   31  C   UNK N   1      31.371  16.985   6.852  0.00  0.00     0.274 C 
BRANCH  31  32
HETATM   32  N   UNK N   1      31.198  16.392   5.508  0.00  0.00    -0.067 N 
HETATM   33  C   UNK N   1      32.281  15.529   5.023  0.00  0.00     0.237 C 
HETATM   34  C   UNK N   1      32.968  16.233   3.863  0.00  0.00     0.029 C 
HETATM   35  C   UNK N   1      32.365  17.615   3.820  0.00  0.00     0.029 C 
HETATM   36  C   UNK N   1      31.042  17.459   4.532  0.00  0.00     0.237 C 
HETATM   37  C   UNK N   1      29.980  15.605   5.526  0.00  0.00     0.272 C 
ENDBRANCH  31  32
ENDBRANCH   4  31
TORSDOF 8
ENDMDL
MODEL 4
REMARK VINA RESULT:      -6.6      2.976      9.501
REMARK  8 active torsions:
REMARK  status: ('A' for Active; 'I' for Inactive)
REMARK    1  A    between atoms: O_7  and  N_11 
REMARK    2  A    between atoms: N_8  and  C_18 
REMARK    3  A    between atoms: C_24  and  N_10 
REMARK       I    between atoms: N_10  and  C_29 
REMARK    4  A    between atoms: N_15  and  C_33 
REMARK    5  A    between atoms: C_18  and  C_22 
REMARK    6  A    between atoms: C_25  and  C_28 
REMARK    7  A    between atoms: C_29  and  C_30 
REMARK    8  A    between atoms: C_30  and  C_31 
ROOT
HETATM    1  S   UNK N   1      32.107  17.242   8.715  0.00  0.00    -0.136 SA
HETATM    2  O   UNK N   1      35.043  16.098   5.726  0.00  0.00    -0.271 OA
HETATM    3  N   UNK N   1      33.023  15.728   6.680  0.00  0.00    -0.293 N 
HETATM    4  C   UNK N   1      30.945  16.840   6.283  0.00  0.00    -0.011 C 
HETATM    5  C   UNK N   1      32.950  15.768   8.108  0.00  0.00     0.187 A 
HETATM    6  C   UNK N   1      34.536  15.913   8.123  0.00  0.00     0.211 A 
HETATM    7  C   UNK N   1      32.083  16.300   5.749  0.00  0.00     0.120 C 
HETATM    8  C   UNK N   1      30.669  16.699   7.755  0.00  0.00     0.114 C 
HETATM    9  C   UNK N   1      34.334  15.734   6.646  0.00  0.00     0.251 A 
ENDROOT
BRANCH   6  10
HETATM   10  N   UNK N   1      35.070  14.835   8.909  0.00  0.00    -0.340 N 
HETATM   11  C   UNK N   1      35.966  14.886   9.917  0.00  0.00     0.273 C 
HETATM   12  O   UNK N   1      36.387  15.952  10.343  0.00  0.00    -0.266 OA
HETATM   13  H   UNK N   1      34.737  13.937   8.681  0.00  0.00     0.163 HD
BRANCH  11  14
HETATM   14  C   UNK N   1      36.306  13.612  10.575  0.00  0.00     0.149 C 
HETATM   15  N   UNK N   1      36.541  12.548   9.875  0.00  0.00    -0.260 N 
ATOM     16  HN  UNK N   1      36.663  11.653  10.350  1.00  0.00     0.194 HD
BRANCH  15  17
HETATM   17  O   UNK N   1      36.627  12.600   8.559  0.00  0.00    -0.285 OA
HETATM   18  C   UNK N   1      37.793  12.267   7.921  0.00  0.00     0.237 C 
ENDBRANCH  15  17
BRANCH  14  19
HETATM   19  C   UNK N   1      36.140  13.515  12.031  0.00  0.00     0.075 A 
HETATM   20  N   UNK N   1      36.927  14.258  12.888  0.00  0.00    -0.335 N 
HETATM   21  C   UNK N   1      36.520  14.146  14.167  0.00  0.00     0.142 A 
ATOM     22  HN  UNK N   1      37.722  14.822  12.589  1.00  0.00     0.168 HD
HETATM   23  S   UNK N   1      35.201  13.170  14.252  0.00  0.00    -0.064 SA
HETATM   24  C   UNK N   1      35.076  12.812  12.636  0.00  0.00     0.085 A 
BRANCH  21  25
HETATM   25  N   UNK N   1      37.127  14.817  15.246  0.00  0.00    -0.380 N 
HETATM   26  H   UNK N   1      36.590  15.394  15.834  0.00  0.00     0.158 HD
HETATM   27  H   UNK N   1      38.092  14.709  15.411  0.00  0.00     0.158 HD
ENDBRANCH  21  25
ENDBRANCH  14  19
ENDBRANCH  11  14
ENDBRANCH   6  10
BRANCH   7  28
HETATM   28  C   UNK N   1      32.385  16.363   4.275  0.00  0.00     0.227 C 
HETATM   29  O   UNK N   1      32.811  17.508   3.712  0.00  0.00    -0.643 OA
HETATM   30  O   UNK N   1      32.305  15.366   3.575  0.00  0.00    -0.643 OA
ENDBRANCH   7  28
BRANCH   4  31
HETATM   31  C   UNK N   1      29.934  17.609   5.467  0.00  0.00     0.274 C 
BRANCH  31  32
HETATM   32  N   UNK N   1      28.743  16.837   5.051  0.00  0.00    -0.067 N 
HETATM   33  C   UNK N   1      28.829  15.377   5.168  0.00  0.00     0.237 C 
HETATM   34  C   UNK N   1      28.842  14.788   3.765  0.00  0.00     0.029 C 
HETATM   35  C   UNK N   1      28.952  15.970   2.835  0.00  0.00     0.029 C 
HETATM   36  C   UNK N   1      28.445  17.132   3.658  0.00  0.00     0.237 C 
HETATM   37  C   UNK N   1      27.625  17.279   5.863  0.00  0.00     0.272 C 
ENDBRANCH  31  32
ENDBRANCH   4  31
TORSDOF 8
ENDMDL
MODEL 5
REMARK VINA RESULT:      -6.3      3.382      5.224
REMARK  8 active torsions:
REMARK  status: ('A' for Active; 'I' for Inactive)
REMARK    1  A    between atoms: O_7  and  N_11 
REMARK    2  A    between atoms: N_8  and  C_18 
REMARK    3  A    between atoms: C_24  and  N_10 
REMARK       I    between atoms: N_10  and  C_29 
REMARK    4  A    between atoms: N_15  and  C_33 
REMARK    5  A    between atoms: C_18  and  C_22 
REMARK    6  A    between atoms: C_25  and  C_28 
REMARK    7  A    between atoms: C_29  and  C_30 
REMARK    8  A    between atoms: C_30  and  C_31 
ROOT
HETATM    1  S   UNK N   1      34.788  14.978   6.164  0.00  0.00    -0.136 SA
HETATM    2  O   UNK N   1      33.621  18.301   8.706  0.00  0.00    -0.271 OA
HETATM    3  N   UNK N   1      33.741  16.060   8.401  0.00  0.00    -0.293 N 
HETATM    4  C   UNK N   1      35.599  14.593   8.737  0.00  0.00    -0.011 C 
HETATM    5  C   UNK N   1      33.368  15.546   7.119  0.00  0.00     0.187 A 
HETATM    6  C   UNK N   1      32.913  17.022   6.730  0.00  0.00     0.211 A 
HETATM    7  C   UNK N   1      34.872  15.655   9.200  0.00  0.00     0.120 C 
HETATM    8  C   UNK N   1      35.127  13.833   7.527  0.00  0.00     0.114 C 
HETATM    9  C   UNK N   1      33.279  17.264   8.166  0.00  0.00     0.251 A 
ENDROOT
BRANCH   6  10
HETATM   10  N   UNK N   1      31.530  16.970   6.342  0.00  0.00    -0.340 N 
HETATM   11  C   UNK N   1      30.952  17.420   5.209  0.00  0.00     0.273 C 
HETATM   12  O   UNK N   1      31.617  17.887   4.295  0.00  0.00    -0.266 OA
HETATM   13  H   UNK N   1      30.922  16.548   6.991  0.00  0.00     0.163 HD
BRANCH  11  14
HETATM   14  C   UNK N   1      29.503  17.195   5.062  0.00  0.00     0.149 C 
HETATM   15  N   UNK N   1      29.046  16.035   4.710  0.00  0.00    -0.260 N 
ATOM     16  HN  UNK N   1      28.052  15.930   4.504  1.00  0.00     0.194 HD
BRANCH  15  17
HETATM   17  O   UNK N   1      29.842  14.986   4.614  0.00  0.00    -0.285 OA
HETATM   18  C   UNK N   1      29.616  14.022   3.667  0.00  0.00     0.237 C 
ENDBRANCH  15  17
BRANCH  14  19
HETATM   19  C   UNK N   1      28.612  18.362   5.089  0.00  0.00     0.075 A 
HETATM   20  N   UNK N   1      28.091  18.886   3.923  0.00  0.00    -0.335 N 
HETATM   21  C   UNK N   1      27.183  19.850   4.167  0.00  0.00     0.142 A 
ATOM     22  HN  UNK N   1      28.362  18.580   2.988  1.00  0.00     0.168 HD
HETATM   23  S   UNK N   1      27.000  20.048   5.788  0.00  0.00    -0.064 SA
HETATM   24  C   UNK N   1      28.098  18.907   6.285  0.00  0.00     0.085 A 
BRANCH  21  25
HETATM   25  N   UNK N   1      26.476  20.536   3.162  0.00  0.00    -0.380 N 
HETATM   26  H   UNK N   1      26.897  20.703   2.288  0.00  0.00     0.158 HD
HETATM   27  H   UNK N   1      25.559  20.850   3.334  0.00  0.00     0.158 HD
ENDBRANCH  21  25
ENDBRANCH  14  19
ENDBRANCH  11  14
ENDBRANCH   6  10
BRANCH   7  28
HETATM   28  C   UNK N   1      35.265  16.418  10.437  0.00  0.00     0.227 C 
HETATM   29  O   UNK N   1      34.909  15.974  11.656  0.00  0.00    -0.643 OA
HETATM   30  O   UNK N   1      35.963  17.417  10.364  0.00  0.00    -0.643 OA
ENDBRANCH   7  28
BRANCH   4  31
HETATM   31  C   UNK N   1      36.892  14.139   9.369  0.00  0.00     0.274 C 
BRANCH  31  32
HETATM   32  N   UNK N   1      36.811  12.873  10.129  0.00  0.00    -0.067 N 
HETATM   33  C   UNK N   1      35.482  12.473  10.604  0.00  0.00     0.237 C 
HETATM   34  C   UNK N   1      35.469  12.577  12.123  0.00  0.00     0.029 C 
HETATM   35  C   UNK N   1      36.776  13.233  12.490  0.00  0.00     0.029 C 
HETATM   36  C   UNK N   1      37.668  12.964  11.301  0.00  0.00     0.237 C 
HETATM   37  C   UNK N   1      37.312  11.813   9.275  0.00  0.00     0.272 C 
ENDBRANCH  31  32
ENDBRANCH   4  31
TORSDOF 8
ENDMDL
MODEL 6
REMARK VINA RESULT:      -6.1      2.798      4.457
REMARK  8 active torsions:
REMARK  status: ('A' for Active; 'I' for Inactive)
REMARK    1  A    between atoms: O_7  and  N_11 
REMARK    2  A    between atoms: N_8  and  C_18 
REMARK    3  A    between atoms: C_24  and  N_10 
REMARK       I    between atoms: N_10  and  C_29 
REMARK    4  A    between atoms: N_15  and  C_33 
REMARK    5  A    between atoms: C_18  and  C_22 
REMARK    6  A    between atoms: C_25  and  C_28 
REMARK    7  A    between atoms: C_29  and  C_30 
REMARK    8  A    between atoms: C_30  and  C_31 
ROOT
HETATM    1  S   UNK N   1      33.903  13.048   7.824  0.00  0.00    -0.136 SA
HETATM    2  O   UNK N   1      34.504  17.151   9.117  0.00  0.00    -0.271 OA
HETATM    3  N   UNK N   1      33.849  15.046   9.635  0.00  0.00    -0.293 N 
HETATM    4  C   UNK N   1      35.188  13.155  10.226  0.00  0.00    -0.011 C 
HETATM    5  C   UNK N   1      33.021  14.360   8.691  0.00  0.00     0.187 A 
HETATM    6  C   UNK N   1      32.957  15.716   7.857  0.00  0.00     0.211 A 
HETATM    7  C   UNK N   1      34.965  14.498  10.365  0.00  0.00     0.120 C 
HETATM    8  C   UNK N   1      34.212  12.312   9.452  0.00  0.00     0.114 C 
HETATM    9  C   UNK N   1      33.734  16.210   9.043  0.00  0.00     0.251 A 
ENDROOT
BRANCH   6  10
HETATM   10  N   UNK N   1      31.574  16.076   7.706  0.00  0.00    -0.340 N 
HETATM   11  C   UNK N   1      31.009  16.904   6.803  0.00  0.00     0.273 C 
HETATM   12  O   UNK N   1      31.665  17.411   5.904  0.00  0.00    -0.266 OA
HETATM   13  H   UNK N   1      30.954  15.662   8.350  0.00  0.00     0.163 HD
BRANCH  11  14
HETATM   14  C   UNK N   1      29.545  17.059   6.861  0.00  0.00     0.149 C 
HETATM   15  N   UNK N   1      28.945  17.254   7.992  0.00  0.00    -0.260 N 
ATOM     16  HN  UNK N   1      27.925  17.246   8.026  1.00  0.00     0.194 HD
BRANCH  15  17
HETATM   17  O   UNK N   1      29.628  17.466   9.102  0.00  0.00    -0.285 OA
HETATM   18  C   UNK N   1      29.583  18.683   9.729  0.00  0.00     0.237 C 
ENDBRANCH  15  17
BRANCH  14  19
HETATM   19  C   UNK N   1      28.765  16.751   5.655  0.00  0.00     0.075 A 
HETATM   20  N   UNK N   1      29.356  16.160   4.557  0.00  0.00    -0.335 N 
HETATM   21  C   UNK N   1      28.450  15.821   3.621  0.00  0.00     0.142 A 
ATOM     22  HN  UNK N   1      30.360  16.000   4.466  1.00  0.00     0.168 HD
HETATM   23  S   UNK N   1      26.940  16.217   4.132  0.00  0.00    -0.064 SA
HETATM   24  C   UNK N   1      27.360  16.870   5.600  0.00  0.00     0.085 A 
BRANCH  21  25
HETATM   25  N   UNK N   1      28.775  15.179   2.410  0.00  0.00    -0.380 N 
HETATM   26  H   UNK N   1      29.468  14.480   2.391  0.00  0.00     0.158 HD
HETATM   27  H   UNK N   1      28.307  15.430   1.581  0.00  0.00     0.158 HD
ENDBRANCH  21  25
ENDBRANCH  14  19
ENDBRANCH  11  14
ENDBRANCH   6  10
BRANCH   7  28
HETATM   28  C   UNK N   1      35.877  15.382  11.174  0.00  0.00     0.227 C 
HETATM   29  O   UNK N   1      37.007  15.875  10.635  0.00  0.00    -0.643 OA
HETATM   30  O   UNK N   1      35.582  15.716  12.310  0.00  0.00    -0.643 OA
ENDBRANCH   7  28
BRANCH   4  31
HETATM   31  C   UNK N   1      36.395  12.455  10.798  0.00  0.00     0.274 C 
BRANCH  31  32
HETATM   32  N   UNK N   1      36.152  11.696  12.044  0.00  0.00    -0.067 N 
HETATM   33  C   UNK N   1      34.885  11.954  12.737  0.00  0.00     0.237 C 
HETATM   34  C   UNK N   1      35.195  12.660  14.048  0.00  0.00     0.029 C 
HETATM   35  C   UNK N   1      36.670  12.968  13.998  0.00  0.00     0.029 C 
HETATM   36  C   UNK N   1      37.217  11.981  12.993  0.00  0.00     0.237 C 
HETATM   37  C   UNK N   1      36.196  10.283  11.716  0.00  0.00     0.272 C 
ENDBRANCH  31  32
ENDBRANCH   4  31
TORSDOF 8
ENDMDL
MODEL 7
REMARK VINA RESULT:      -5.9      7.471     11.012
REMARK  8 active torsions:
REMARK  status: ('A' for Active; 'I' for Inactive)
REMARK    1  A    between atoms: O_7  and  N_11 
REMARK    2  A    between atoms: N_8  and  C_18 
REMARK    3  A    between atoms: C_24  and  N_10 
REMARK       I    between atoms: N_10  and  C_29 
REMARK    4  A    between atoms: N_15  and  C_33 
REMARK    5  A    between atoms: C_18  and  C_22 
REMARK    6  A    between atoms: C_25  and  C_28 
REMARK    7  A    between atoms: C_29  and  C_30 
REMARK    8  A    between atoms: C_30  and  C_31 
ROOT
HETATM    1  S   UNK N   1      28.977  16.177   3.839  0.00  0.00    -0.136 SA
HETATM    2  O   UNK N   1      28.042  18.788   7.181  0.00  0.00    -0.271 OA
HETATM    3  N   UNK N   1      28.478  16.694   6.438  0.00  0.00    -0.293 N 
HETATM    4  C   UNK N   1      30.589  15.670   5.978  0.00  0.00    -0.011 C 
HETATM    5  C   UNK N   1      27.835  16.273   5.231  0.00  0.00     0.187 A 
HETATM    6  C   UNK N   1      27.017  17.640   5.265  0.00  0.00     0.211 A 
HETATM    7  C   UNK N   1      29.852  16.467   6.811  0.00  0.00     0.120 C 
HETATM    8  C   UNK N   1      29.921  14.980   4.819  0.00  0.00     0.114 C 
HETATM    9  C   UNK N   1      27.751  17.777   6.568  0.00  0.00     0.251 A 
ENDROOT
BRANCH   6  10
HETATM   10  N   UNK N   1      25.617  17.316   5.262  0.00  0.00    -0.340 N 
HETATM   11  C   UNK N   1      24.563  18.122   5.018  0.00  0.00     0.273 C 
HETATM   12  O   UNK N   1      24.715  19.286   4.674  0.00  0.00    -0.266 OA
HETATM   13  H   UNK N   1      25.397  16.378   5.465  0.00  0.00     0.163 HD
BRANCH  11  14
HETATM   14  C   UNK N   1      23.226  17.502   5.047  0.00  0.00     0.149 C 
HETATM   15  N   UNK N   1      23.026  16.390   5.678  0.00  0.00    -0.260 N 
ATOM     16  HN  UNK N   1      22.124  15.920   5.591  1.00  0.00     0.194 HD
BRANCH  15  17
HETATM   17  O   UNK N   1      23.967  15.853   6.433  0.00  0.00    -0.285 OA
HETATM   18  C   UNK N   1      23.890  14.539   6.816  0.00  0.00     0.237 C 
ENDBRANCH  15  17
BRANCH  14  19
HETATM   19  C   UNK N   1      22.191  18.040   4.153  0.00  0.00     0.075 A 
HETATM   20  N   UNK N   1      22.003  19.401   4.021  0.00  0.00    -0.335 N 
HETATM   21  C   UNK N   1      21.119  19.694   3.049  0.00  0.00     0.142 A 
ATOM     22  HN  UNK N   1      22.477  20.102   4.592  1.00  0.00     0.168 HD
HETATM   23  S   UNK N   1      20.587  18.310   2.341  0.00  0.00    -0.064 SA
HETATM   24  C   UNK N   1      21.456  17.234   3.259  0.00  0.00     0.085 A 
BRANCH  21  25
HETATM   25  N   UNK N   1      20.759  21.005   2.682  0.00  0.00    -0.380 N 
HETATM   26  H   UNK N   1      20.666  21.245   1.732  0.00  0.00     0.158 HD
HETATM   27  H   UNK N   1      20.601  21.682   3.378  0.00  0.00     0.158 HD
ENDBRANCH  21  25
ENDBRANCH  14  19
ENDBRANCH  11  14
ENDBRANCH   6  10
BRANCH   7  28
HETATM   28  C   UNK N   1      30.454  17.138   8.017  0.00  0.00     0.227 C 
HETATM   29  O   UNK N   1      31.197  18.252   7.880  0.00  0.00    -0.643 OA
HETATM   30  O   UNK N   1      30.234  16.722   9.143  0.00  0.00    -0.643 OA
ENDBRANCH   7  28
BRANCH   4  31
HETATM   31  C   UNK N   1      32.073  15.454   6.140  0.00  0.00     0.274 C 
BRANCH  31  32
HETATM   32  N   UNK N   1      32.932  16.387   5.379  0.00  0.00    -0.067 N 
HETATM   33  C   UNK N   1      32.252  17.452   4.634  0.00  0.00     0.237 C 
HETATM   34  C   UNK N   1      32.423  17.177   3.147  0.00  0.00     0.029 C 
HETATM   35  C   UNK N   1      33.064  15.815   3.064  0.00  0.00     0.029 C 
HETATM   36  C   UNK N   1      33.718  15.634   4.414  0.00  0.00     0.237 C 
HETATM   37  C   UNK N   1      33.841  17.017   6.318  0.00  0.00     0.272 C 
ENDBRANCH  31  32
ENDBRANCH   4  31
TORSDOF 8
ENDMDL
MODEL 8
REMARK VINA RESULT:      -5.9      6.169     12.323
REMARK  8 active torsions:
REMARK  status: ('A' for Active; 'I' for Inactive)
REMARK    1  A    between atoms: O_7  and  N_11 
REMARK    2  A    between atoms: N_8  and  C_18 
REMARK    3  A    between atoms: C_24  and  N_10 
REMARK       I    between atoms: N_10  and  C_29 
REMARK    4  A    between atoms: N_15  and  C_33 
REMARK    5  A    between atoms: C_18  and  C_22 
REMARK    6  A    between atoms: C_25  and  C_28 
REMARK    7  A    between atoms: C_29  and  C_30 
REMARK    8  A    between atoms: C_30  and  C_31 
ROOT
HETATM    1  S   UNK N   1      27.492  18.591   4.494  0.00  0.00    -0.136 SA
HETATM    2  O   UNK N   1      27.995  14.320   5.104  0.00  0.00    -0.271 OA
HETATM    3  N   UNK N   1      26.899  16.226   5.647  0.00  0.00    -0.293 N 
HETATM    4  C   UNK N   1      25.091  17.299   4.507  0.00  0.00    -0.011 C 
HETATM    5  C   UNK N   1      27.683  17.407   5.840  0.00  0.00     0.187 A 
HETATM    6  C   UNK N   1      28.980  16.496   5.682  0.00  0.00     0.211 A 
HETATM    7  C   UNK N   1      25.646  16.126   4.941  0.00  0.00     0.120 C 
HETATM    8  C   UNK N   1      25.723  18.611   4.890  0.00  0.00     0.114 C 
HETATM    9  C   UNK N   1      27.934  15.421   5.621  0.00  0.00     0.251 A 
ENDROOT
BRANCH   6  10
HETATM   10  N   UNK N   1      29.777  16.654   6.868  0.00  0.00    -0.340 N 
HETATM   11  C   UNK N   1      31.091  16.942   6.971  0.00  0.00     0.273 C 
HETATM   12  O   UNK N   1      31.769  17.192   5.985  0.00  0.00    -0.266 OA
HETATM   13  H   UNK N   1      29.299  16.534   7.720  0.00  0.00     0.163 HD
BRANCH  11  14
HETATM   14  C   UNK N   1      31.640  17.082   8.332  0.00  0.00     0.149 C 
HETATM   15  N   UNK N   1      31.165  17.968   9.149  0.00  0.00    -0.260 N 
ATOM     16  HN  UNK N   1      31.632  18.125  10.043  1.00  0.00     0.194 HD
BRANCH  15  17
HETATM   17  O   UNK N   1      30.089  18.670   8.847  0.00  0.00    -0.285 OA
HETATM   18  C   UNK N   1      28.917  18.479   9.531  0.00  0.00     0.237 C 
ENDBRANCH  15  17
BRANCH  14  19
HETATM   19  C   UNK N   1      32.882  16.368   8.657  0.00  0.00     0.075 A 
HETATM   20  N   UNK N   1      33.811  16.914   9.519  0.00  0.00    -0.335 N 
HETATM   21  C   UNK N   1      34.799  16.046   9.806  0.00  0.00     0.142 A 
ATOM     22  HN  UNK N   1      33.756  17.861   9.893  1.00  0.00     0.168 HD
HETATM   23  S   UNK N   1      34.535  14.619   9.035  0.00  0.00    -0.064 SA
HETATM   24  C   UNK N   1      33.125  15.035   8.262  0.00  0.00     0.085 A 
BRANCH  21  25
HETATM   25  N   UNK N   1      35.866  16.331  10.680  0.00  0.00    -0.380 N 
HETATM   26  H   UNK N   1      36.786  16.077  10.438  0.00  0.00     0.158 HD
HETATM   27  H   UNK N   1      35.691  16.785  11.536  0.00  0.00     0.158 HD
ENDBRANCH  21  25
ENDBRANCH  14  19
ENDBRANCH  11  14
ENDBRANCH   6  10
BRANCH   7  28
HETATM   28  C   UNK N   1      25.027  14.787   4.636  0.00  0.00     0.227 C 
HETATM   29  O   UNK N   1      25.140  14.245   3.410  0.00  0.00    -0.643 OA
HETATM   30  O   UNK N   1      24.464  14.142   5.507  0.00  0.00    -0.643 OA
ENDBRANCH   7  28
BRANCH   4  31
HETATM   31  C   UNK N   1      23.867  17.359   3.628  0.00  0.00     0.274 C 
BRANCH  31  32
HETATM   32  N   UNK N   1      22.605  17.684   4.327  0.00  0.00    -0.067 N 
HETATM   33  C   UNK N   1      22.646  17.691   5.793  0.00  0.00     0.237 C 
HETATM   34  C   UNK N   1      21.813  16.521   6.298  0.00  0.00     0.029 C 
HETATM   35  C   UNK N   1      21.448  15.731   5.067  0.00  0.00     0.029 C 
HETATM   36  C   UNK N   1      21.582  16.726   3.938  0.00  0.00     0.237 C 
HETATM   37  C   UNK N   1      22.186  19.004   3.892  0.00  0.00     0.272 C 
ENDBRANCH  31  32
ENDBRANCH   4  31
TORSDOF 8
ENDMDL
MODEL 9
REMARK VINA RESULT:      -5.8      8.722     12.748
REMARK  8 active torsions:
REMARK  status: ('A' for Active; 'I' for Inactive)
REMARK    1  A    between atoms: O_7  and  N_11 
REMARK    2  A    between atoms: N_8  and  C_18 
REMARK    3  A    between atoms: C_24  and  N_10 
REMARK       I    between atoms: N_10  and  C_29 
REMARK    4  A    between atoms: N_15  and  C_33 
REMARK    5  A    between atoms: C_18  and  C_22 
REMARK    6  A    between atoms: C_25  and  C_28 
REMARK    7  A    between atoms: C_29  and  C_30 
REMARK    8  A    between atoms: C_30  and  C_31 
ROOT
HETATM    1  S   UNK N   1      27.704  17.659   6.236  0.00  0.00    -0.136 SA
HETATM    2  O   UNK N   1      25.667  14.355   4.286  0.00  0.00    -0.271 OA
HETATM    3  N   UNK N   1      26.679  16.373   4.099  0.00  0.00    -0.293 N 
HETATM    4  C   UNK N   1      29.012  16.880   3.975  0.00  0.00    -0.011 C 
HETATM    5  C   UNK N   1      26.356  17.367   5.075  0.00  0.00     0.187 A 
HETATM    6  C   UNK N   1      25.258  16.363   5.644  0.00  0.00     0.211 A 
HETATM    7  C   UNK N   1      27.988  16.063   3.579  0.00  0.00     0.120 C 
HETATM    8  C   UNK N   1      28.717  18.103   4.800  0.00  0.00     0.114 C 
HETATM    9  C   UNK N   1      25.715  15.559   4.460  0.00  0.00     0.251 A 
ENDROOT
BRANCH   6  10
HETATM   10  N   UNK N   1      23.987  17.032   5.607  0.00  0.00    -0.340 N 
HETATM   11  C   UNK N   1      22.767  16.517   5.349  0.00  0.00     0.273 C 
HETATM   12  O   UNK N   1      22.603  15.317   5.182  0.00  0.00    -0.266 OA
HETATM   13  H   UNK N   1      24.009  17.999   5.795  0.00  0.00     0.163 HD
BRANCH  11  14
HETATM   14  C   UNK N   1      21.621  17.442   5.417  0.00  0.00     0.149 C 
HETATM   15  N   UNK N   1      20.952  17.586   6.516  0.00  0.00    -0.260 N 
ATOM     16  HN  UNK N   1      20.097  18.142   6.512  1.00  0.00     0.194 HD
BRANCH  15  17
HETATM   17  O   UNK N   1      21.356  17.027   7.642  0.00  0.00    -0.285 OA
HETATM   18  C   UNK N   1      20.500  16.259   8.387  0.00  0.00     0.237 C 
ENDBRANCH  15  17
BRANCH  14  19
HETATM   19  C   UNK N   1      21.111  18.010   4.162  0.00  0.00     0.075 A 
HETATM   20  N   UNK N   1      20.549  17.204   3.192  0.00  0.00    -0.335 N 
HETATM   21  C   UNK N   1      20.007  17.925   2.193  0.00  0.00     0.142 A 
ATOM     22  HN  UNK N   1      20.546  16.185   3.229  1.00  0.00     0.168 HD
HETATM   23  S   UNK N   1      20.190  19.529   2.495  0.00  0.00    -0.064 SA
HETATM   24  C   UNK N   1      21.000  19.399   3.939  0.00  0.00     0.085 A 
BRANCH  21  25
HETATM   25  N   UNK N   1      19.345  17.359   1.086  0.00  0.00    -0.380 N 
HETATM   26  H   UNK N   1      19.646  17.565   0.172  0.00  0.00     0.158 HD
HETATM   27  H   UNK N   1      18.580  16.757   1.228  0.00  0.00     0.158 HD
ENDBRANCH  21  25
ENDBRANCH  14  19
ENDBRANCH  11  14
ENDBRANCH   6  10
BRANCH   7  28
HETATM   28  C   UNK N   1      28.216  14.858   2.707  0.00  0.00     0.227 C 
HETATM   29  O   UNK N   1      28.567  13.677   3.250  0.00  0.00    -0.643 OA
HETATM   30  O   UNK N   1      28.031  14.910   1.501  0.00  0.00    -0.643 OA
ENDBRANCH   7  28
BRANCH   4  31
HETATM   31  C   UNK N   1      30.459  16.608   3.645  0.00  0.00     0.274 C 
BRANCH  31  32
HETATM   32  N   UNK N   1      31.195  15.811   4.650  0.00  0.00    -0.067 N 
HETATM   33  C   UNK N   1      30.426  15.332   5.804  0.00  0.00     0.237 C 
HETATM   34  C   UNK N   1      30.921  16.066   7.042  0.00  0.00     0.029 C 
HETATM   35  C   UNK N   1      31.870  17.120   6.530  0.00  0.00     0.029 C 
HETATM   36  C   UNK N   1      32.296  16.603   5.176  0.00  0.00     0.237 C 
HETATM   37  C   UNK N   1      31.746  14.651   3.975  0.00  0.00     0.272 C 
ENDBRANCH  31  32
ENDBRANCH   4  31
TORSDOF 8
ENDMDL
