REMARK  7 active torsions:
REMARK  status: ('A' for Active; 'I' for Inactive)
REMARK    1  A    between atoms: O_3  and  C_17 
REMARK    2  A    between atoms: O_3  and  C_21 
REMARK    3  A    between atoms: O_4  and  C_18 
REMARK    4  A    between atoms: C_12  and  N_9 
REMARK       I    between atoms: N_9  and  C_19 
REMARK    5  A    between atoms: C_14  and  C_18 
REMARK    6  A    between atoms: C_15  and  C_17 
REMARK    7  A    between atoms: C_19  and  C_20 
ROOT
HETATM    1  N   UNK N   1      12.897  -2.750  -0.017  0.00  0.00    -0.197 NA
HETATM    2  C   UNK N   1      10.369  -3.102  -0.623  0.00  0.00     0.226 C 
HETATM    3  C   UNK N   1      11.779  -2.908  -0.268  0.00  0.00     0.068 C 
ENDROOT
BRANCH   2   4
HETATM    4  C   UNK N   1       9.469  -2.118   0.074  0.00  0.00     0.231 C 
HETATM    5  O   UNK N   1       9.931  -1.222   0.771  0.00  0.00    -0.273 OA
HETATM    6  N   UNK N   1       8.133  -2.275  -0.042  0.00  0.00    -0.344 N 
HETATM    7  H   UNK N   1       7.793  -2.911  -0.712  0.00  0.00     0.163 HD
BRANCH   6   8
HETATM    8  C   UNK N   1       7.179  -1.555   0.768  0.00  0.00     0.210 A 
HETATM    9  C   UNK N   1       5.709  -1.638   0.106  0.00  0.00     0.187 A 
HETATM   10  S   UNK N   1       4.274  -2.033   1.124  0.00  0.00    -0.136 SA
HETATM   11  N   UNK N   1       5.763  -0.216  -0.017  0.00  0.00    -0.293 N 
HETATM   12  C   UNK N   1       3.266  -1.399  -0.283  0.00  0.00     0.115 C 
HETATM   13  C   UNK N   1       3.445   0.092  -0.486  0.00  0.00    -0.013 C 
HETATM   14  C   UNK N   1       4.677   0.666  -0.332  0.00  0.00     0.117 C 
HETATM   15  C   UNK N   1       6.991  -0.119   0.401  0.00  0.00     0.251 A 
HETATM   16  O   UNK N   1       7.672   0.881   0.561  0.00  0.00    -0.271 OA
BRANCH  13  17
HETATM   17  C   UNK N   1       2.242   0.854  -0.938  0.00  0.00     0.216 C 
BRANCH  17  18
HETATM   18  O   UNK N   1       1.488   1.364   0.089  0.00  0.00    -0.317 OA
BRANCH  18  19
HETATM   19  C   UNK N   1       0.206   0.970   0.267  0.00  0.00     0.255 C 
HETATM   20  O   UNK N   1      -0.624   1.782   0.638  0.00  0.00    -0.266 OA
HETATM   21  C   UNK N   1      -0.219  -0.437  -0.014  0.00  0.00     0.126 C 
ENDBRANCH  18  19
ENDBRANCH  17  18
ENDBRANCH  13  17
BRANCH  14  22
HETATM   22  C   UNK N   1       4.874   2.156  -0.380  0.00  0.00     0.194 C 
HETATM   23  O   UNK N   1       5.985   2.637  -0.255  0.00  0.00    -0.645 OA
BRANCH  22  24
HETATM   24  O   UNK N   1       3.819   2.992  -0.456  0.00  0.00    -0.772 OA
HETATM   25  H   UNK N   1       3.956   3.918  -0.509  0.00  0.00     0.167 HD
ENDBRANCH  22  24
ENDBRANCH  14  22
ENDBRANCH   6   8
ENDBRANCH   2   4
TORSDOF 7
