MODEL 1
REMARK VINA RESULT:      -6.2      0.000      0.000
REMARK  7 active torsions:
REMARK  status: ('A' for Active; 'I' for Inactive)
REMARK    1  A    between atoms: O_3  and  C_17 
REMARK    2  A    between atoms: O_3  and  C_21 
REMARK    3  A    between atoms: O_4  and  C_18 
REMARK    4  A    between atoms: C_12  and  N_9 
REMARK       I    between atoms: N_9  and  C_19 
REMARK    5  A    between atoms: C_14  and  C_18 
REMARK    6  A    between atoms: C_15  and  C_17 
REMARK    7  A    between atoms: C_19  and  C_20 
ROOT
HETATM    1  N   UNK N   1      34.627  13.321  10.533  0.00  0.00    -0.197 NA
HETATM    2  C   UNK N   1      35.577  15.683  11.168  0.00  0.00     0.226 C 
HETATM    3  C   UNK N   1      35.053  14.363  10.798  0.00  0.00     0.068 C 
ENDROOT
BRANCH   2   4
HETATM    4  C   UNK N   1      35.119  16.759  10.221  0.00  0.00     0.231 C 
HETATM    5  O   UNK N   1      35.685  17.846  10.177  0.00  0.00    -0.273 OA
HETATM    6  N   UNK N   1      34.032  16.522   9.455  0.00  0.00    -0.344 N 
HETATM    7  H   UNK N   1      33.684  15.603   9.410  0.00  0.00     0.163 HD
BRANCH   6   8
HETATM    8  C   UNK N   1      33.358  17.551   8.700  0.00  0.00     0.210 A 
HETATM    9  C   UNK N   1      31.806  17.159   8.485  0.00  0.00     0.187 A 
HETATM   10  S   UNK N   1      30.511  18.380   8.776  0.00  0.00    -0.136 SA
HETATM   11  N   UNK N   1      32.077  17.155   7.082  0.00  0.00    -0.293 N 
HETATM   12  C   UNK N   1      29.408  17.238   7.839  0.00  0.00     0.115 C 
HETATM   13  C   UNK N   1      29.798  17.139   6.378  0.00  0.00    -0.013 C 
HETATM   14  C   UNK N   1      31.117  17.120   6.017  0.00  0.00     0.117 C 
HETATM   15  C   UNK N   1      33.355  17.352   7.219  0.00  0.00     0.251 A 
HETATM   16  O   UNK N   1      34.211  17.475   6.358  0.00  0.00    -0.271 OA
BRANCH  13  17
HETATM   17  C   UNK N   1      28.682  16.980   5.398  0.00  0.00     0.216 C 
BRANCH  17  18
HETATM   18  O   UNK N   1      27.629  17.834   5.610  0.00  0.00    -0.317 OA
BRANCH  18  19
HETATM   19  C   UNK N   1      27.648  19.092   5.114  0.00  0.00     0.255 C 
HETATM   20  O   UNK N   1      27.661  19.260   3.906  0.00  0.00    -0.266 OA
HETATM   21  C   UNK N   1      27.621  20.283   6.019  0.00  0.00     0.126 C 
ENDBRANCH  18  19
ENDBRANCH  17  18
ENDBRANCH  13  17
BRANCH  14  22
HETATM   22  C   UNK N   1      31.551  17.169   4.578  0.00  0.00     0.194 C 
HETATM   23  O   UNK N   1      32.085  16.206   4.060  0.00  0.00    -0.645 OA
BRANCH  22  24
HETATM   24  O   UNK N   1      31.454  18.309   3.864  0.00  0.00    -0.772 OA
HETATM   25  H   UNK N   1      30.619  18.598   3.551  0.00  0.00     0.167 HD
ENDBRANCH  22  24
ENDBRANCH  14  22
ENDBRANCH   6   8
ENDBRANCH   2   4
TORSDOF 7
ENDMDL
MODEL 2
REMARK VINA RESULT:      -5.8      3.231      8.043
REMARK  7 active torsions:
REMARK  status: ('A' for Active; 'I' for Inactive)
REMARK    1  A    between atoms: O_3  and  C_17 
REMARK    2  A    between atoms: O_3  and  C_21 
REMARK    3  A    between atoms: O_4  and  C_18 
REMARK    4  A    between atoms: C_12  and  N_9 
REMARK       I    between atoms: N_9  and  C_19 
REMARK    5  A    between atoms: C_14  and  C_18 
REMARK    6  A    between atoms: C_15  and  C_17 
REMARK    7  A    between atoms: C_19  and  C_20 
ROOT
HETATM    1  N   UNK N   1      29.264  17.928  10.491  0.00  0.00    -0.197 NA
HETATM    2  C   UNK N   1      29.547  17.781   7.887  0.00  0.00     0.226 C 
HETATM    3  C   UNK N   1      29.401  17.874   9.343  0.00  0.00     0.068 C 
ENDROOT
BRANCH   2   4
HETATM    4  C   UNK N   1      30.927  17.337   7.484  0.00  0.00     0.231 C 
HETATM    5  O   UNK N   1      31.183  17.042   6.322  0.00  0.00    -0.273 OA
HETATM    6  N   UNK N   1      31.870  17.219   8.443  0.00  0.00    -0.344 N 
HETATM    7  H   UNK N   1      31.680  17.590   9.334  0.00  0.00     0.163 HD
BRANCH   6   8
HETATM    8  C   UNK N   1      33.144  16.575   8.224  0.00  0.00     0.210 A 
HETATM    9  C   UNK N   1      33.129  15.083   8.840  0.00  0.00     0.187 A 
HETATM   10  S   UNK N   1      33.761  13.695   7.877  0.00  0.00    -0.136 SA
HETATM   11  N   UNK N   1      34.178  15.509   9.710  0.00  0.00    -0.293 N 
HETATM   12  C   UNK N   1      33.786  12.771   9.471  0.00  0.00     0.115 C 
HETATM   13  C   UNK N   1      34.813  13.328  10.437  0.00  0.00    -0.013 C 
HETATM   14  C   UNK N   1      35.011  14.678  10.530  0.00  0.00     0.117 C 
HETATM   15  C   UNK N   1      34.140  16.750   9.324  0.00  0.00     0.251 A 
HETATM   16  O   UNK N   1      34.833  17.689   9.683  0.00  0.00    -0.271 OA
BRANCH  13  17
HETATM   17  C   UNK N   1      35.509  12.340  11.315  0.00  0.00     0.216 C 
BRANCH  17  18
HETATM   18  O   UNK N   1      34.658  11.543  12.039  0.00  0.00    -0.317 OA
BRANCH  18  19
HETATM   19  C   UNK N   1      34.685  11.552  13.392  0.00  0.00     0.255 C 
HETATM   20  O   UNK N   1      35.451  12.303  13.970  0.00  0.00    -0.266 OA
HETATM   21  C   UNK N   1      33.768  10.681  14.192  0.00  0.00     0.126 C 
ENDBRANCH  18  19
ENDBRANCH  17  18
ENDBRANCH  13  17
BRANCH  14  22
HETATM   22  C   UNK N   1      36.115  15.266  11.364  0.00  0.00     0.194 C 
HETATM   23  O   UNK N   1      36.032  15.281  12.578  0.00  0.00    -0.645 OA
BRANCH  22  24
HETATM   24  O   UNK N   1      37.167  15.881  10.786  0.00  0.00    -0.772 OA
HETATM   25  H   UNK N   1      38.016  15.485  10.815  0.00  0.00     0.167 HD
ENDBRANCH  22  24
ENDBRANCH  14  22
ENDBRANCH   6   8
ENDBRANCH   2   4
TORSDOF 7
ENDMDL
MODEL 3
REMARK VINA RESULT:      -5.5      3.943      8.561
REMARK  7 active torsions:
REMARK  status: ('A' for Active; 'I' for Inactive)
REMARK    1  A    between atoms: O_3  and  C_17 
REMARK    2  A    between atoms: O_3  and  C_21 
REMARK    3  A    between atoms: O_4  and  C_18 
REMARK    4  A    between atoms: C_12  and  N_9 
REMARK       I    between atoms: N_9  and  C_19 
REMARK    5  A    between atoms: C_14  and  C_18 
REMARK    6  A    between atoms: C_15  and  C_17 
REMARK    7  A    between atoms: C_19  and  C_20 
ROOT
HETATM    1  N   UNK N   1      31.923  14.675   5.456  0.00  0.00    -0.197 NA
HETATM    2  C   UNK N   1      32.677  17.083   6.174  0.00  0.00     0.226 C 
HETATM    3  C   UNK N   1      32.253  15.733   5.788  0.00  0.00     0.068 C 
ENDROOT
BRANCH   2   4
HETATM    4  C   UNK N   1      33.862  17.061   7.101  0.00  0.00     0.231 C 
HETATM    5  O   UNK N   1      34.643  18.004   7.151  0.00  0.00    -0.273 OA
HETATM    6  N   UNK N   1      34.078  15.954   7.842  0.00  0.00    -0.344 N 
HETATM    7  H   UNK N   1      33.367  15.274   7.886  0.00  0.00     0.163 HD
BRANCH   6   8
HETATM    8  C   UNK N   1      35.300  15.718   8.574  0.00  0.00     0.210 A 
HETATM    9  C   UNK N   1      35.460  14.145   8.902  0.00  0.00     0.187 A 
HETATM   10  S   UNK N   1      37.033  13.312   8.615  0.00  0.00    -0.136 SA
HETATM   11  N   UNK N   1      35.415  14.502  10.284  0.00  0.00    -0.293 N 
HETATM   12  C   UNK N   1      36.364  11.964   9.679  0.00  0.00     0.115 C 
HETATM   13  C   UNK N   1      36.192  12.407  11.118  0.00  0.00    -0.013 C 
HETATM   14  C   UNK N   1      35.743  13.667  11.403  0.00  0.00     0.117 C 
HETATM   15  C   UNK N   1      35.167  15.759  10.062  0.00  0.00     0.251 A 
HETATM   16  O   UNK N   1      35.025  16.669  10.863  0.00  0.00    -0.271 OA
BRANCH  13  17
HETATM   17  C   UNK N   1      36.452  11.378  12.169  0.00  0.00     0.216 C 
BRANCH  17  18
HETATM   18  O   UNK N   1      35.647  10.270  12.075  0.00  0.00    -0.317 OA
BRANCH  18  19
HETATM   19  C   UNK N   1      34.339  10.335  12.416  0.00  0.00     0.255 C 
HETATM   20  O   UNK N   1      33.489  10.190  11.555  0.00  0.00    -0.266 OA
HETATM   21  C   UNK N   1      33.918  10.549  13.835  0.00  0.00     0.126 C 
ENDBRANCH  18  19
ENDBRANCH  17  18
ENDBRANCH  13  17
BRANCH  14  22
HETATM   22  C   UNK N   1      35.695  14.198  12.809  0.00  0.00     0.194 C 
HETATM   23  O   UNK N   1      34.847  13.806  13.589  0.00  0.00    -0.645 OA
BRANCH  22  24
HETATM   24  O   UNK N   1      36.519  15.190  13.203  0.00  0.00    -0.772 OA
HETATM   25  H   UNK N   1      37.443  15.116  13.064  0.00  0.00     0.167 HD
ENDBRANCH  22  24
ENDBRANCH  14  22
ENDBRANCH   6   8
ENDBRANCH   2   4
TORSDOF 7
ENDMDL
MODEL 4
REMARK VINA RESULT:      -5.5      2.022      2.500
REMARK  7 active torsions:
REMARK  status: ('A' for Active; 'I' for Inactive)
REMARK    1  A    between atoms: O_3  and  C_17 
REMARK    2  A    between atoms: O_3  and  C_21 
REMARK    3  A    between atoms: O_4  and  C_18 
REMARK    4  A    between atoms: C_12  and  N_9 
REMARK       I    between atoms: N_9  and  C_19 
REMARK    5  A    between atoms: C_14  and  C_18 
REMARK    6  A    between atoms: C_15  and  C_17 
REMARK    7  A    between atoms: C_19  and  C_20 
ROOT
HETATM    1  N   UNK N   1      35.563  13.760   9.311  0.00  0.00    -0.197 NA
HETATM    2  C   UNK N   1      35.368  16.154  10.366  0.00  0.00     0.226 C 
HETATM    3  C   UNK N   1      35.485  14.822   9.763  0.00  0.00     0.068 C 
ENDROOT
BRANCH   2   4
HETATM    4  C   UNK N   1      34.632  17.117   9.473  0.00  0.00     0.231 C 
HETATM    5  O   UNK N   1      35.152  18.164   9.107  0.00  0.00    -0.273 OA
HETATM    6  N   UNK N   1      33.359  16.826   9.126  0.00  0.00    -0.344 N 
HETATM    7  H   UNK N   1      33.017  15.924   9.317  0.00  0.00     0.163 HD
BRANCH   6   8
HETATM    8  C   UNK N   1      32.478  17.775   8.487  0.00  0.00     0.210 A 
HETATM    9  C   UNK N   1      30.939  17.338   8.700  0.00  0.00     0.187 A 
HETATM   10  S   UNK N   1      29.710  18.555   9.212  0.00  0.00    -0.136 SA
HETATM   11  N   UNK N   1      30.852  17.220   7.279  0.00  0.00    -0.293 N 
HETATM   12  C   UNK N   1      28.454  17.318   8.674  0.00  0.00     0.115 C 
HETATM   13  C   UNK N   1      28.472  17.103   7.174  0.00  0.00    -0.013 C 
HETATM   14  C   UNK N   1      29.659  17.077   6.495  0.00  0.00     0.117 C 
HETATM   15  C   UNK N   1      32.115  17.452   7.075  0.00  0.00     0.251 A 
HETATM   16  O   UNK N   1      32.724  17.517   6.019  0.00  0.00    -0.271 OA
BRANCH  13  17
HETATM   17  C   UNK N   1      27.154  16.841   6.521  0.00  0.00     0.216 C 
BRANCH  17  18
HETATM   18  O   UNK N   1      26.800  15.516   6.493  0.00  0.00    -0.317 OA
BRANCH  18  19
HETATM   19  C   UNK N   1      25.547  15.128   6.824  0.00  0.00     0.255 C 
HETATM   20  O   UNK N   1      24.592  15.700   6.327  0.00  0.00    -0.266 OA
HETATM   21  C   UNK N   1      25.310  13.989   7.766  0.00  0.00     0.126 C 
ENDBRANCH  18  19
ENDBRANCH  17  18
ENDBRANCH  13  17
BRANCH  14  22
HETATM   22  C   UNK N   1      29.718  17.013   4.994  0.00  0.00     0.194 C 
HETATM   23  O   UNK N   1      29.934  15.957   4.429  0.00  0.00    -0.645 OA
BRANCH  22  24
HETATM   24  O   UNK N   1      29.638  18.134   4.249  0.00  0.00    -0.772 OA
HETATM   25  H   UNK N   1      29.101  18.150   3.481  0.00  0.00     0.167 HD
ENDBRANCH  22  24
ENDBRANCH  14  22
ENDBRANCH   6   8
ENDBRANCH   2   4
TORSDOF 7
ENDMDL
MODEL 5
REMARK VINA RESULT:      -5.4      3.208      7.031
REMARK  7 active torsions:
REMARK  status: ('A' for Active; 'I' for Inactive)
REMARK    1  A    between atoms: O_3  and  C_17 
REMARK    2  A    between atoms: O_3  and  C_21 
REMARK    3  A    between atoms: O_4  and  C_18 
REMARK    4  A    between atoms: C_12  and  N_9 
REMARK       I    between atoms: N_9  and  C_19 
REMARK    5  A    between atoms: C_14  and  C_18 
REMARK    6  A    between atoms: C_15  and  C_17 
REMARK    7  A    between atoms: C_19  and  C_20 
ROOT
HETATM    1  N   UNK N   1      29.469  11.387   4.888  0.00  0.00    -0.197 NA
HETATM    2  C   UNK N   1      29.054  12.812   2.724  0.00  0.00     0.226 C 
HETATM    3  C   UNK N   1      29.273  12.022   3.941  0.00  0.00     0.068 C 
ENDROOT
BRANCH   2   4
HETATM    4  C   UNK N   1      29.093  14.292   2.995  0.00  0.00     0.231 C 
HETATM    5  O   UNK N   1      29.016  15.104   2.081  0.00  0.00    -0.273 OA
HETATM    6  N   UNK N   1      29.268  14.708   4.268  0.00  0.00    -0.344 N 
HETATM    7  H   UNK N   1      29.189  14.046   4.992  0.00  0.00     0.163 HD
BRANCH   6   8
HETATM    8  C   UNK N   1      29.565  16.077   4.618  0.00  0.00     0.210 A 
HETATM    9  C   UNK N   1      31.137  16.242   4.944  0.00  0.00     0.187 A 
HETATM   10  S   UNK N   1      32.073  17.613   4.242  0.00  0.00    -0.136 SA
HETATM   11  N   UNK N   1      30.749  16.625   6.265  0.00  0.00    -0.293 N 
HETATM   12  C   UNK N   1      33.354  17.215   5.506  0.00  0.00     0.115 C 
HETATM   13  C   UNK N   1      32.871  17.499   6.914  0.00  0.00    -0.013 C 
HETATM   14  C   UNK N   1      31.580  17.222   7.270  0.00  0.00     0.117 C 
HETATM   15  C   UNK N   1      29.484  16.390   6.077  0.00  0.00     0.251 A 
HETATM   16  O   UNK N   1      28.551  16.540   6.850  0.00  0.00    -0.271 OA
BRANCH  13  17
HETATM   17  C   UNK N   1      33.893  18.001   7.882  0.00  0.00     0.216 C 
BRANCH  17  18
HETATM   18  O   UNK N   1      34.785  17.044   8.296  0.00  0.00    -0.317 OA
BRANCH  18  19
HETATM   19  C   UNK N   1      34.885  16.712   9.604  0.00  0.00     0.255 C 
HETATM   20  O   UNK N   1      35.535  17.419  10.354  0.00  0.00    -0.266 OA
HETATM   21  C   UNK N   1      34.185  15.508  10.153  0.00  0.00     0.126 C 
ENDBRANCH  18  19
ENDBRANCH  17  18
ENDBRANCH  13  17
BRANCH  14  22
HETATM   22  C   UNK N   1      31.018  17.619   8.607  0.00  0.00     0.194 C 
HETATM   23  O   UNK N   1      30.732  18.780   8.837  0.00  0.00    -0.645 OA
BRANCH  22  24
HETATM   24  O   UNK N   1      30.919  16.724   9.610  0.00  0.00    -0.772 OA
HETATM   25  H   UNK N   1      30.812  17.018  10.494  0.00  0.00     0.167 HD
ENDBRANCH  22  24
ENDBRANCH  14  22
ENDBRANCH   6   8
ENDBRANCH   2   4
TORSDOF 7
ENDMDL
MODEL 6
REMARK VINA RESULT:      -5.4      3.594      5.089
REMARK  7 active torsions:
REMARK  status: ('A' for Active; 'I' for Inactive)
REMARK    1  A    between atoms: O_3  and  C_17 
REMARK    2  A    between atoms: O_3  and  C_21 
REMARK    3  A    between atoms: O_4  and  C_18 
REMARK    4  A    between atoms: C_12  and  N_9 
REMARK       I    between atoms: N_9  and  C_19 
REMARK    5  A    between atoms: C_14  and  C_18 
REMARK    6  A    between atoms: C_15  and  C_17 
REMARK    7  A    between atoms: C_19  and  C_20 
ROOT
HETATM    1  N   UNK N   1      34.257  12.368  14.996  0.00  0.00    -0.197 NA
HETATM    2  C   UNK N   1      36.560  12.577  13.757  0.00  0.00     0.226 C 
HETATM    3  C   UNK N   1      35.264  12.460  14.435  0.00  0.00     0.068 C 
ENDROOT
BRANCH   2   4
HETATM    4  C   UNK N   1      36.634  13.803  12.887  0.00  0.00     0.231 C 
HETATM    5  O   UNK N   1      36.257  14.894  13.298  0.00  0.00    -0.273 OA
HETATM    6  N   UNK N   1      37.077  13.665  11.619  0.00  0.00    -0.344 N 
HETATM    7  H   UNK N   1      37.500  12.814  11.361  0.00  0.00     0.163 HD
BRANCH   6   8
HETATM    8  C   UNK N   1      36.963  14.705  10.624  0.00  0.00     0.210 A 
HETATM    9  C   UNK N   1      35.420  14.895  10.189  0.00  0.00     0.187 A 
HETATM   10  S   UNK N   1      34.704  16.546  10.078  0.00  0.00    -0.136 SA
HETATM   11  N   UNK N   1      35.820  14.517   8.871  0.00  0.00    -0.293 N 
HETATM   12  C   UNK N   1      33.345  15.748   9.120  0.00  0.00     0.115 C 
HETATM   13  C   UNK N   1      33.822  15.228   7.780  0.00  0.00    -0.013 C 
HETATM   14  C   UNK N   1      35.053  14.641   7.666  0.00  0.00     0.117 C 
HETATM   15  C   UNK N   1      37.046  14.238   9.207  0.00  0.00     0.251 A 
HETATM   16  O   UNK N   1      37.968  13.859   8.504  0.00  0.00    -0.271 OA
BRANCH  13  17
HETATM   17  C   UNK N   1      32.854  15.315   6.646  0.00  0.00     0.216 C 
BRANCH  17  18
HETATM   18  O   UNK N   1      32.450  16.595   6.356  0.00  0.00    -0.317 OA
BRANCH  18  19
HETATM   19  C   UNK N   1      33.175  17.376   5.523  0.00  0.00     0.255 C 
HETATM   20  O   UNK N   1      34.150  17.968   5.953  0.00  0.00    -0.266 OA
HETATM   21  C   UNK N   1      32.821  17.503   4.074  0.00  0.00     0.126 C 
ENDBRANCH  18  19
ENDBRANCH  17  18
ENDBRANCH  13  17
BRANCH  14  22
HETATM   22  C   UNK N   1      35.626  14.243   6.334  0.00  0.00     0.194 C 
HETATM   23  O   UNK N   1      36.201  15.060   5.639  0.00  0.00    -0.645 OA
BRANCH  22  24
HETATM   24  O   UNK N   1      35.426  13.006   5.835  0.00  0.00    -0.772 OA
HETATM   25  H   UNK N   1      36.017  12.655   5.199  0.00  0.00     0.167 HD
ENDBRANCH  22  24
ENDBRANCH  14  22
ENDBRANCH   6   8
ENDBRANCH   2   4
TORSDOF 7
ENDMDL
MODEL 7
REMARK VINA RESULT:      -5.2      1.783      2.130
REMARK  7 active torsions:
REMARK  status: ('A' for Active; 'I' for Inactive)
REMARK    1  A    between atoms: O_3  and  C_17 
REMARK    2  A    between atoms: O_3  and  C_21 
REMARK    3  A    between atoms: O_4  and  C_18 
REMARK    4  A    between atoms: C_12  and  N_9 
REMARK       I    between atoms: N_9  and  C_19 
REMARK    5  A    between atoms: C_14  and  C_18 
REMARK    6  A    between atoms: C_15  and  C_17 
REMARK    7  A    between atoms: C_19  and  C_20 
ROOT
HETATM    1  N   UNK N   1      34.857  12.895  11.977  0.00  0.00    -0.197 NA
HETATM    2  C   UNK N   1      35.900  15.301  12.049  0.00  0.00     0.226 C 
HETATM    3  C   UNK N   1      35.327  13.952  11.996  0.00  0.00     0.068 C 
ENDROOT
BRANCH   2   4
HETATM    4  C   UNK N   1      35.729  16.040  10.750  0.00  0.00     0.231 C 
HETATM    5  O   UNK N   1      35.945  17.244  10.674  0.00  0.00    -0.273 OA
HETATM    6  N   UNK N   1      35.279  15.356   9.676  0.00  0.00    -0.344 N 
HETATM    7  H   UNK N   1      35.246  14.374   9.727  0.00  0.00     0.163 HD
BRANCH   6   8
HETATM    8  C   UNK N   1      34.845  15.996   8.456  0.00  0.00     0.210 A 
HETATM    9  C   UNK N   1      33.311  16.479   8.594  0.00  0.00     0.187 A 
HETATM   10  S   UNK N   1      32.828  18.135   8.069  0.00  0.00    -0.136 SA
HETATM   11  N   UNK N   1      33.010  15.589   7.519  0.00  0.00    -0.293 N 
HETATM   12  C   UNK N   1      31.096  17.506   8.127  0.00  0.00     0.115 C 
HETATM   13  C   UNK N   1      30.835  16.457   7.064  0.00  0.00    -0.013 C 
HETATM   14  C   UNK N   1      31.794  15.530   6.760  0.00  0.00     0.117 C 
HETATM   15  C   UNK N   1      34.208  15.088   7.455  0.00  0.00     0.251 A 
HETATM   16  O   UNK N   1      34.650  14.244   6.692  0.00  0.00    -0.271 OA
BRANCH  13  17
HETATM   17  C   UNK N   1      29.471  16.449   6.455  0.00  0.00     0.216 C 
BRANCH  17  18
HETATM   18  O   UNK N   1      29.131  17.626   5.836  0.00  0.00    -0.317 OA
BRANCH  18  19
HETATM   19  C   UNK N   1      27.913  18.182   6.031  0.00  0.00     0.255 C 
HETATM   20  O   UNK N   1      26.912  17.522   5.812  0.00  0.00    -0.266 OA
HETATM   21  C   UNK N   1      27.772  19.582   6.539  0.00  0.00     0.126 C 
ENDBRANCH  18  19
ENDBRANCH  17  18
ENDBRANCH  13  17
BRANCH  14  22
HETATM   22  C   UNK N   1      31.637  14.566   5.616  0.00  0.00     0.194 C 
HETATM   23  O   UNK N   1      31.894  14.911   4.478  0.00  0.00    -0.645 OA
BRANCH  22  24
HETATM   24  O   UNK N   1      31.109  13.341   5.812  0.00  0.00    -0.772 OA
HETATM   25  H   UNK N   1      30.684  12.894   5.105  0.00  0.00     0.167 HD
ENDBRANCH  22  24
ENDBRANCH  14  22
ENDBRANCH   6   8
ENDBRANCH   2   4
TORSDOF 7
ENDMDL
MODEL 8
REMARK VINA RESULT:      -5.2      2.962      7.839
REMARK  7 active torsions:
REMARK  status: ('A' for Active; 'I' for Inactive)
REMARK    1  A    between atoms: O_3  and  C_17 
REMARK    2  A    between atoms: O_3  and  C_21 
REMARK    3  A    between atoms: O_4  and  C_18 
REMARK    4  A    between atoms: C_12  and  N_9 
REMARK       I    between atoms: N_9  and  C_19 
REMARK    5  A    between atoms: C_14  and  C_18 
REMARK    6  A    between atoms: C_15  and  C_17 
REMARK    7  A    between atoms: C_19  and  C_20 
ROOT
HETATM    1  N   UNK N   1      29.821  12.856   4.928  0.00  0.00    -0.197 NA
HETATM    2  C   UNK N   1      29.332  15.419   5.193  0.00  0.00     0.226 C 
HETATM    3  C   UNK N   1      29.610  13.985   5.061  0.00  0.00     0.068 C 
ENDROOT
BRANCH   2   4
HETATM    4  C   UNK N   1      30.548  16.195   5.621  0.00  0.00     0.231 C 
HETATM    5  O   UNK N   1      30.613  17.408   5.460  0.00  0.00    -0.273 OA
HETATM    6  N   UNK N   1      31.592  15.517   6.142  0.00  0.00    -0.344 N 
HETATM    7  H   UNK N   1      31.462  14.572   6.386  0.00  0.00     0.163 HD
BRANCH   6   8
HETATM    8  C   UNK N   1      32.891  16.109   6.358  0.00  0.00     0.210 A 
HETATM    9  C   UNK N   1      33.945  14.984   6.838  0.00  0.00     0.187 A 
HETATM   10  S   UNK N   1      35.582  14.892   6.088  0.00  0.00    -0.136 SA
HETATM   11  N   UNK N   1      34.076  15.728   8.051  0.00  0.00    -0.293 N 
HETATM   12  C   UNK N   1      36.038  13.836   7.528  0.00  0.00     0.115 C 
HETATM   13  C   UNK N   1      36.036  14.613   8.829  0.00  0.00    -0.013 C 
HETATM   14  C   UNK N   1      35.075  15.557   9.066  0.00  0.00     0.117 C 
HETATM   15  C   UNK N   1      33.147  16.587   7.750  0.00  0.00     0.251 A 
HETATM   16  O   UNK N   1      32.755  17.551   8.389  0.00  0.00    -0.271 OA
BRANCH  13  17
HETATM   17  C   UNK N   1      37.067  14.229   9.839  0.00  0.00     0.216 C 
BRANCH  17  18
HETATM   18  O   UNK N   1      36.800  13.048  10.486  0.00  0.00    -0.317 OA
BRANCH  18  19
HETATM   19  C   UNK N   1      36.245  13.047  11.720  0.00  0.00     0.255 C 
HETATM   20  O   UNK N   1      36.543  13.925  12.511  0.00  0.00    -0.266 OA
HETATM   21  C   UNK N   1      35.250  12.004  12.121  0.00  0.00     0.126 C 
ENDBRANCH  18  19
ENDBRANCH  17  18
ENDBRANCH  13  17
BRANCH  14  22
HETATM   22  C   UNK N   1      35.117  16.452  10.274  0.00  0.00     0.194 C 
HETATM   23  O   UNK N   1      35.653  17.543  10.216  0.00  0.00    -0.645 OA
BRANCH  22  24
HETATM   24  O   UNK N   1      34.659  16.025  11.468  0.00  0.00    -0.772 OA
HETATM   25  H   UNK N   1      34.599  16.622  12.188  0.00  0.00     0.167 HD
ENDBRANCH  22  24
ENDBRANCH  14  22
ENDBRANCH   6   8
ENDBRANCH   2   4
TORSDOF 7
ENDMDL
MODEL 9
REMARK VINA RESULT:      -5.1      4.283      6.753
REMARK  7 active torsions:
REMARK  status: ('A' for Active; 'I' for Inactive)
REMARK    1  A    between atoms: O_3  and  C_17 
REMARK    2  A    between atoms: O_3  and  C_21 
REMARK    3  A    between atoms: O_4  and  C_18 
REMARK    4  A    between atoms: C_12  and  N_9 
REMARK       I    between atoms: N_9  and  C_19 
REMARK    5  A    between atoms: C_14  and  C_18 
REMARK    6  A    between atoms: C_15  and  C_17 
REMARK    7  A    between atoms: C_19  and  C_20 
ROOT
HETATM    1  N   UNK N   1      37.580  16.292  15.774  0.00  0.00    -0.197 NA
HETATM    2  C   UNK N   1      36.552  13.907  16.144  0.00  0.00     0.226 C 
HETATM    3  C   UNK N   1      37.115  15.244  15.926  0.00  0.00     0.068 C 
ENDROOT
BRANCH   2   4
HETATM    4  C   UNK N   1      36.531  13.089  14.881  0.00  0.00     0.231 C 
HETATM    5  O   UNK N   1      36.747  11.883  14.905  0.00  0.00    -0.273 OA
HETATM    6  N   UNK N   1      36.319  13.724  13.708  0.00  0.00    -0.344 N 
HETATM    7  H   UNK N   1      36.014  14.659  13.731  0.00  0.00     0.163 HD
BRANCH   6   8
HETATM    8  C   UNK N   1      36.518  13.096  12.423  0.00  0.00     0.210 A 
HETATM    9  C   UNK N   1      36.378  14.187  11.242  0.00  0.00     0.187 A 
HETATM   10  S   UNK N   1      37.596  14.251   9.913  0.00  0.00    -0.136 SA
HETATM   11  N   UNK N   1      35.270  13.423  10.764  0.00  0.00    -0.293 N 
HETATM   12  C   UNK N   1      36.360  15.274   9.006  0.00  0.00     0.115 C 
HETATM   13  C   UNK N   1      35.127  14.477   8.630  0.00  0.00    -0.013 C 
HETATM   14  C   UNK N   1      34.611  13.553   9.497  0.00  0.00     0.117 C 
HETATM   15  C   UNK N   1      35.275  12.591  11.765  0.00  0.00     0.251 A 
HETATM   16  O   UNK N   1      34.553  11.628  11.968  0.00  0.00    -0.271 OA
BRANCH  13  17
HETATM   17  C   UNK N   1      34.481  14.821   7.328  0.00  0.00     0.216 C 
BRANCH  17  18
HETATM   18  O   UNK N   1      34.924  15.999   6.780  0.00  0.00    -0.317 OA
BRANCH  18  19
HETATM   19  C   UNK N   1      34.118  17.084   6.728  0.00  0.00     0.255 C 
HETATM   20  O   UNK N   1      34.017  17.705   5.684  0.00  0.00    -0.266 OA
HETATM   21  C   UNK N   1      33.322  17.516   7.919  0.00  0.00     0.126 C 
ENDBRANCH  18  19
ENDBRANCH  17  18
ENDBRANCH  13  17
BRANCH  14  22
HETATM   22  C   UNK N   1      33.481  12.640   9.110  0.00  0.00     0.194 C 
HETATM   23  O   UNK N   1      33.703  11.596   8.526  0.00  0.00    -0.645 OA
BRANCH  22  24
HETATM   24  O   UNK N   1      32.198  13.004   9.306  0.00  0.00    -0.772 OA
HETATM   25  H   UNK N   1      31.807  13.658   8.760  0.00  0.00     0.167 HD
ENDBRANCH  22  24
ENDBRANCH  14  22
ENDBRANCH   6   8
ENDBRANCH   2   4
TORSDOF 7
ENDMDL
