MODEL 1
REMARK VINA RESULT:      -6.3      0.000      0.000
REMARK  9 active torsions:
REMARK  status: ('A' for Active; 'I' for Inactive)
REMARK    1  A    between atoms: O_4  and  C_22 
REMARK    2  A    between atoms: O_5  and  C_23 
REMARK    3  A    between atoms: O_8  and  N_11 
REMARK    4  A    between atoms: C_17  and  N_10 
REMARK       I    between atoms: N_10  and  C_24 
REMARK    5  A    between atoms: N_15  and  C_29 
REMARK    6  A    between atoms: C_19  and  C_23 
REMARK    7  A    between atoms: C_20  and  C_22 
REMARK    8  A    between atoms: C_24  and  C_25 
REMARK    9  A    between atoms: C_25  and  C_26 
ROOT
HETATM    1  O   UNK N   1      34.624  17.554   6.823  0.00  0.00    -0.266 OA
HETATM    2  N   UNK N   1      33.633  16.672   8.622  0.00  0.00    -0.340 N 
HETATM    3  C   UNK N   1      33.589  17.265   7.410  0.00  0.00     0.273 C 
HETATM    4  H   UNK N   1      32.784  16.625   9.117  0.00  0.00     0.163 HD
ENDROOT
BRANCH   2   5
HETATM    5  C   UNK N   1      34.791  16.098   9.273  0.00  0.00     0.211 A 
HETATM    6  C   UNK N   1      34.819  14.504   9.255  0.00  0.00     0.187 A 
HETATM    7  S   UNK N   1      36.352  13.897   8.490  0.00  0.00    -0.136 SA
HETATM    8  N   UNK N   1      34.912  14.558  10.695  0.00  0.00    -0.293 N 
HETATM    9  C   UNK N   1      36.299  12.424   9.536  0.00  0.00     0.115 C 
HETATM   10  C   UNK N   1      36.498  12.773  10.985  0.00  0.00    -0.013 C 
HETATM   11  C   UNK N   1      35.764  13.773  11.557  0.00  0.00     0.117 C 
HETATM   12  C   UNK N   1      34.778  15.865  10.745  0.00  0.00     0.251 A 
HETATM   13  O   UNK N   1      35.157  16.610  11.634  0.00  0.00    -0.271 OA
BRANCH  10  14
HETATM   14  C   UNK N   1      37.546  12.007  11.733  0.00  0.00     0.204 C 
BRANCH  14  15
HETATM   15  O   UNK N   1      37.029  10.836  12.280  0.00  0.00    -0.392 OA
HETATM   16  C   UNK N   1      37.569  10.805  13.565  0.00  0.00     0.201 C 
ENDBRANCH  14  15
ENDBRANCH  10  14
BRANCH  11  17
HETATM   17  C   UNK N   1      35.896  14.113  13.021  0.00  0.00     0.194 C 
HETATM   18  O   UNK N   1      35.144  13.611  13.838  0.00  0.00    -0.645 OA
BRANCH  17  19
HETATM   19  O   UNK N   1      36.872  14.929  13.465  0.00  0.00    -0.772 OA
HETATM   20  H   UNK N   1      36.676  15.802  13.743  0.00  0.00     0.167 HD
ENDBRANCH  17  19
ENDBRANCH  11  17
ENDBRANCH   2   5
BRANCH   3  21
HETATM   21  C   UNK N   1      32.273  17.396   6.711  0.00  0.00     0.149 C 
HETATM   22  N   UNK N   1      31.165  17.625   7.357  0.00  0.00    -0.260 N 
ATOM     23  HN  UNK N   1      30.291  17.606   6.832  1.00  0.00     0.194 HD
BRANCH  22  24
HETATM   24  O   UNK N   1      31.109  17.880   8.651  0.00  0.00    -0.285 OA
HETATM   25  C   UNK N   1      30.110  18.664   9.181  0.00  0.00     0.237 C 
ENDBRANCH  22  24
BRANCH  21  26
HETATM   26  C   UNK N   1      32.195  17.057   5.273  0.00  0.00     0.075 A 
HETATM   27  N   UNK N   1      33.249  16.453   4.614  0.00  0.00    -0.335 N 
HETATM   28  C   UNK N   1      32.931  16.122   3.348  0.00  0.00     0.142 A 
ATOM     29  HN  UNK N   1      34.161  16.278   5.037  1.00  0.00     0.168 HD
HETATM   30  S   UNK N   1      31.374  16.544   3.032  0.00  0.00    -0.064 SA
HETATM   31  C   UNK N   1      31.010  17.196   4.516  0.00  0.00     0.085 A 
BRANCH  28  32
HETATM   32  N   UNK N   1      33.810  15.473   2.460  0.00  0.00    -0.380 N 
HETATM   33  H   UNK N   1      34.366  15.998   1.840  0.00  0.00     0.158 HD
HETATM   34  H   UNK N   1      33.869  14.490   2.460  0.00  0.00     0.158 HD
ENDBRANCH  28  32
ENDBRANCH  21  26
ENDBRANCH   3  21
TORSDOF 9
ENDMDL
MODEL 2
REMARK VINA RESULT:      -6.3      2.225      3.656
REMARK  9 active torsions:
REMARK  status: ('A' for Active; 'I' for Inactive)
REMARK    1  A    between atoms: O_4  and  C_22 
REMARK    2  A    between atoms: O_5  and  C_23 
REMARK    3  A    between atoms: O_8  and  N_11 
REMARK    4  A    between atoms: C_17  and  N_10 
REMARK       I    between atoms: N_10  and  C_24 
REMARK    5  A    between atoms: N_15  and  C_29 
REMARK    6  A    between atoms: C_19  and  C_23 
REMARK    7  A    between atoms: C_20  and  C_22 
REMARK    8  A    between atoms: C_24  and  C_25 
REMARK    9  A    between atoms: C_25  and  C_26 
ROOT
HETATM    1  O   UNK N   1      34.774  17.151   9.705  0.00  0.00    -0.266 OA
HETATM    2  N   UNK N   1      34.667  14.929   9.492  0.00  0.00    -0.340 N 
HETATM    3  C   UNK N   1      34.313  16.178   9.122  0.00  0.00     0.273 C 
HETATM    4  H   UNK N   1      34.136  14.193   9.109  0.00  0.00     0.163 HD
ENDROOT
BRANCH   2   5
HETATM    5  C   UNK N   1      35.738  14.552  10.389  0.00  0.00     0.211 A 
HETATM    6  C   UNK N   1      35.687  13.027  10.851  0.00  0.00     0.187 A 
HETATM    7  S   UNK N   1      37.245  12.182  10.447  0.00  0.00    -0.136 SA
HETATM    8  N   UNK N   1      35.667  13.512  12.211  0.00  0.00    -0.293 N 
HETATM    9  C   UNK N   1      37.034  11.096  11.877  0.00  0.00     0.115 C 
HETATM   10  C   UNK N   1      37.132  11.862  13.166  0.00  0.00    -0.013 C 
HETATM   11  C   UNK N   1      36.405  13.005  13.344  0.00  0.00     0.117 C 
HETATM   12  C   UNK N   1      35.595  14.775  11.855  0.00  0.00     0.251 A 
HETATM   13  O   UNK N   1      35.937  15.745  12.511  0.00  0.00    -0.271 OA
BRANCH  10  14
HETATM   14  C   UNK N   1      38.077  11.334  14.203  0.00  0.00     0.204 C 
BRANCH  14  15
HETATM   15  O   UNK N   1      37.436  10.468  15.084  0.00  0.00    -0.392 OA
HETATM   16  C   UNK N   1      38.196   9.301  15.013  0.00  0.00     0.201 C 
ENDBRANCH  14  15
ENDBRANCH  10  14
BRANCH  11  17
HETATM   17  C   UNK N   1      36.436  13.769  14.644  0.00  0.00     0.194 C 
HETATM   18  O   UNK N   1      35.664  13.482  15.543  0.00  0.00    -0.645 OA
BRANCH  17  19
HETATM   19  O   UNK N   1      37.342  14.741  14.864  0.00  0.00    -0.772 OA
HETATM   20  H   UNK N   1      37.975  14.963  14.209  0.00  0.00     0.167 HD
ENDBRANCH  17  19
ENDBRANCH  11  17
ENDBRANCH   2   5
BRANCH   3  21
HETATM   21  C   UNK N   1      33.504  16.368   7.879  0.00  0.00     0.149 C 
HETATM   22  N   UNK N   1      34.034  16.309   6.691  0.00  0.00    -0.260 N 
ATOM     23  HN  UNK N   1      33.446  16.544   5.890  1.00  0.00     0.194 HD
BRANCH  22  24
HETATM   24  O   UNK N   1      35.287  15.961   6.462  0.00  0.00    -0.285 OA
HETATM   25  C   UNK N   1      35.594  14.825   5.749  0.00  0.00     0.237 C 
ENDBRANCH  22  24
BRANCH  21  26
HETATM   26  C   UNK N   1      32.106  16.836   8.006  0.00  0.00     0.075 A 
HETATM   27  N   UNK N   1      31.666  17.505   9.132  0.00  0.00    -0.335 N 
HETATM   28  C   UNK N   1      30.401  17.948   8.997  0.00  0.00     0.142 A 
ATOM     29  HN  UNK N   1      32.233  17.648   9.968  1.00  0.00     0.168 HD
HETATM   30  S   UNK N   1      29.822  17.544   7.512  0.00  0.00    -0.064 SA
HETATM   31  C   UNK N   1      31.172  16.757   6.948  0.00  0.00     0.085 A 
BRANCH  28  32
HETATM   32  N   UNK N   1      29.715  18.681   9.983  0.00  0.00    -0.380 N 
HETATM   33  H   UNK N   1      29.025  19.334   9.725  0.00  0.00     0.158 HD
HETATM   34  H   UNK N   1      29.926  18.541  10.934  0.00  0.00     0.158 HD
ENDBRANCH  28  32
ENDBRANCH  21  26
ENDBRANCH   3  21
TORSDOF 9
ENDMDL
MODEL 3
REMARK VINA RESULT:      -6.1      1.728      3.213
REMARK  9 active torsions:
REMARK  status: ('A' for Active; 'I' for Inactive)
REMARK    1  A    between atoms: O_4  and  C_22 
REMARK    2  A    between atoms: O_5  and  C_23 
REMARK    3  A    between atoms: O_8  and  N_11 
REMARK    4  A    between atoms: C_17  and  N_10 
REMARK       I    between atoms: N_10  and  C_24 
REMARK    5  A    between atoms: N_15  and  C_29 
REMARK    6  A    between atoms: C_19  and  C_23 
REMARK    7  A    between atoms: C_20  and  C_22 
REMARK    8  A    between atoms: C_24  and  C_25 
REMARK    9  A    between atoms: C_25  and  C_26 
ROOT
HETATM    1  O   UNK N   1      32.911  17.939   8.047  0.00  0.00    -0.266 OA
HETATM    2  N   UNK N   1      33.170  15.755   7.642  0.00  0.00    -0.340 N 
HETATM    3  C   UNK N   1      32.564  16.942   7.425  0.00  0.00     0.273 C 
HETATM    4  H   UNK N   1      32.736  14.964   7.248  0.00  0.00     0.163 HD
ENDROOT
BRANCH   2   5
HETATM    5  C   UNK N   1      34.387  15.518   8.388  0.00  0.00     0.211 A 
HETATM    6  C   UNK N   1      34.745  13.975   8.567  0.00  0.00     0.187 A 
HETATM    7  S   UNK N   1      36.408  13.623   7.922  0.00  0.00    -0.136 SA
HETATM    8  N   UNK N   1      34.752  14.213   9.991  0.00  0.00    -0.293 N 
HETATM    9  C   UNK N   1      36.608  12.302   9.139  0.00  0.00     0.115 C 
HETATM   10  C   UNK N   1      36.656  12.850  10.539  0.00  0.00    -0.013 C 
HETATM   11  C   UNK N   1      35.702  13.730  10.965  0.00  0.00     0.117 C 
HETATM   12  C   UNK N   1      34.348  15.458   9.876  0.00  0.00     0.251 A 
HETATM   13  O   UNK N   1      34.519  16.364  10.676  0.00  0.00    -0.271 OA
BRANCH  10  14
HETATM   14  C   UNK N   1      37.800  12.414  11.403  0.00  0.00     0.204 C 
BRANCH  14  15
HETATM   15  O   UNK N   1      37.705  11.065  11.733  0.00  0.00    -0.392 OA
HETATM   16  C   UNK N   1      37.525  11.074  13.115  0.00  0.00     0.201 C 
ENDBRANCH  14  15
ENDBRANCH  10  14
BRANCH  11  17
HETATM   17  C   UNK N   1      35.687  14.256  12.379  0.00  0.00     0.194 C 
HETATM   18  O   UNK N   1      34.998  13.715  13.227  0.00  0.00    -0.645 OA
BRANCH  17  19
HETATM   19  O   UNK N   1      36.465  15.291  12.750  0.00  0.00    -0.772 OA
HETATM   20  H   UNK N   1      36.395  15.659  13.609  0.00  0.00     0.167 HD
ENDBRANCH  17  19
ENDBRANCH  11  17
ENDBRANCH   2   5
BRANCH   3  21
HETATM   21  C   UNK N   1      31.595  17.069   6.293  0.00  0.00     0.149 C 
HETATM   22  N   UNK N   1      31.980  17.063   5.049  0.00  0.00    -0.260 N 
ATOM     23  HN  UNK N   1      31.281  17.252   4.329  1.00  0.00     0.194 HD
BRANCH  22  24
HETATM   24  O   UNK N   1      33.220  16.826   4.664  0.00  0.00    -0.285 OA
HETATM   25  C   UNK N   1      33.522  15.767   3.839  0.00  0.00     0.237 C 
ENDBRANCH  22  24
BRANCH  21  26
HETATM   26  C   UNK N   1      30.189  17.414   6.596  0.00  0.00     0.075 A 
HETATM   27  N   UNK N   1      29.764  17.650   7.890  0.00  0.00    -0.335 N 
HETATM   28  C   UNK N   1      28.483  18.064   7.934  0.00  0.00     0.142 A 
ATOM     29  HN  UNK N   1      30.351  17.526   8.714  1.00  0.00     0.168 HD
HETATM   30  S   UNK N   1      27.871  18.160   6.411  0.00  0.00    -0.064 SA
HETATM   31  C   UNK N   1      29.226  17.660   5.590  0.00  0.00     0.085 A 
BRANCH  28  32
HETATM   32  N   UNK N   1      27.805  18.398   9.122  0.00  0.00    -0.380 N 
HETATM   33  H   UNK N   1      27.469  17.690   9.717  0.00  0.00     0.158 HD
HETATM   34  H   UNK N   1      27.668  19.344   9.359  0.00  0.00     0.158 HD
ENDBRANCH  28  32
ENDBRANCH  21  26
ENDBRANCH   3  21
TORSDOF 9
ENDMDL
MODEL 4
REMARK VINA RESULT:      -6.0      3.200      8.880
REMARK  9 active torsions:
REMARK  status: ('A' for Active; 'I' for Inactive)
REMARK    1  A    between atoms: O_4  and  C_22 
REMARK    2  A    between atoms: O_5  and  C_23 
REMARK    3  A    between atoms: O_8  and  N_11 
REMARK    4  A    between atoms: C_17  and  N_10 
REMARK       I    between atoms: N_10  and  C_24 
REMARK    5  A    between atoms: N_15  and  C_29 
REMARK    6  A    between atoms: C_19  and  C_23 
REMARK    7  A    between atoms: C_20  and  C_22 
REMARK    8  A    between atoms: C_24  and  C_25 
REMARK    9  A    between atoms: C_25  and  C_26 
ROOT
HETATM    1  O   UNK N   1      32.547  14.190   8.955  0.00  0.00    -0.266 OA
HETATM    2  N   UNK N   1      31.899  16.329   9.021  0.00  0.00    -0.340 N 
HETATM    3  C   UNK N   1      32.786  15.346   9.284  0.00  0.00     0.273 C 
HETATM    4  H   UNK N   1      32.063  17.195   9.459  0.00  0.00     0.163 HD
ENDROOT
BRANCH   2   5
HETATM    5  C   UNK N   1      30.734  16.250   8.166  0.00  0.00     0.211 A 
HETATM    6  C   UNK N   1      31.050  16.475   6.620  0.00  0.00     0.187 A 
HETATM    7  S   UNK N   1      30.474  15.061   5.634  0.00  0.00    -0.136 SA
HETATM    8  N   UNK N   1      30.085  17.549   6.650  0.00  0.00    -0.293 N 
HETATM    9  C   UNK N   1      30.175  16.155   4.227  0.00  0.00     0.115 C 
HETATM   10  C   UNK N   1      29.063  17.126   4.514  0.00  0.00    -0.013 C 
HETATM   11  C   UNK N   1      29.067  17.852   5.671  0.00  0.00     0.117 C 
HETATM   12  C   UNK N   1      29.889  17.457   7.947  0.00  0.00     0.251 A 
HETATM   13  O   UNK N   1      28.902  17.816   8.568  0.00  0.00    -0.271 OA
BRANCH  10  14
HETATM   14  C   UNK N   1      27.962  17.220   3.503  0.00  0.00     0.204 C 
BRANCH  14  15
HETATM   15  O   UNK N   1      27.455  15.964   3.181  0.00  0.00    -0.392 OA
HETATM   16  C   UNK N   1      26.365  15.818   4.038  0.00  0.00     0.201 C 
ENDBRANCH  14  15
ENDBRANCH  10  14
BRANCH  11  17
HETATM   17  C   UNK N   1      27.999  18.875   5.967  0.00  0.00     0.194 C 
HETATM   18  O   UNK N   1      28.135  20.029   5.597  0.00  0.00    -0.645 OA
BRANCH  17  19
HETATM   19  O   UNK N   1      26.856  18.533   6.593  0.00  0.00    -0.772 OA
HETATM   20  H   UNK N   1      26.174  19.164   6.721  0.00  0.00     0.167 HD
ENDBRANCH  17  19
ENDBRANCH  11  17
ENDBRANCH   2   5
BRANCH   3  21
HETATM   21  C   UNK N   1      34.138  15.707   9.810  0.00  0.00     0.149 C 
HETATM   22  N   UNK N   1      34.945  16.499   9.163  0.00  0.00    -0.260 N 
ATOM     23  HN  UNK N   1      35.889  16.626   9.529  1.00  0.00     0.194 HD
BRANCH  22  24
HETATM   24  O   UNK N   1      34.611  17.147   8.062  0.00  0.00    -0.285 OA
HETATM   25  C   UNK N   1      34.450  18.514   8.059  0.00  0.00     0.237 C 
ENDBRANCH  22  24
BRANCH  21  26
HETATM   26  C   UNK N   1      34.656  14.988  10.995  0.00  0.00     0.075 A 
HETATM   27  N   UNK N   1      34.187  13.734  11.342  0.00  0.00    -0.335 N 
HETATM   28  C   UNK N   1      34.870  13.208  12.377  0.00  0.00     0.142 A 
ATOM     29  HN  UNK N   1      33.416  13.263  10.870  1.00  0.00     0.168 HD
HETATM   30  S   UNK N   1      36.047  14.248  12.860  0.00  0.00    -0.064 SA
HETATM   31  C   UNK N   1      35.743  15.460  11.764  0.00  0.00     0.085 A 
BRANCH  28  32
HETATM   32  N   UNK N   1      34.618  11.933  12.917  0.00  0.00    -0.380 N 
HETATM   33  H   UNK N   1      35.325  11.451  13.404  0.00  0.00     0.158 HD
HETATM   34  H   UNK N   1      33.730  11.521  12.809  0.00  0.00     0.158 HD
ENDBRANCH  28  32
ENDBRANCH  21  26
ENDBRANCH   3  21
TORSDOF 9
ENDMDL
MODEL 5
REMARK VINA RESULT:      -5.9      4.127      9.915
REMARK  9 active torsions:
REMARK  status: ('A' for Active; 'I' for Inactive)
REMARK    1  A    between atoms: O_4  and  C_22 
REMARK    2  A    between atoms: O_5  and  C_23 
REMARK    3  A    between atoms: O_8  and  N_11 
REMARK    4  A    between atoms: C_17  and  N_10 
REMARK       I    between atoms: N_10  and  C_24 
REMARK    5  A    between atoms: N_15  and  C_29 
REMARK    6  A    between atoms: C_19  and  C_23 
REMARK    7  A    between atoms: C_20  and  C_22 
REMARK    8  A    between atoms: C_24  and  C_25 
REMARK    9  A    between atoms: C_25  and  C_26 
ROOT
HETATM    1  O   UNK N   1      30.865  16.241   8.765  0.00  0.00    -0.266 OA
HETATM    2  N   UNK N   1      30.461  16.181   6.567  0.00  0.00    -0.340 N 
HETATM    3  C   UNK N   1      31.218  15.888   7.646  0.00  0.00     0.273 C 
HETATM    4  H   UNK N   1      30.877  16.029   5.688  0.00  0.00     0.163 HD
ENDROOT
BRANCH   2   5
HETATM    5  C   UNK N   1      29.108  16.692   6.560  0.00  0.00     0.211 A 
HETATM    6  C   UNK N   1      28.580  17.104   5.113  0.00  0.00     0.187 A 
HETATM    7  S   UNK N   1      27.045  16.215   4.713  0.00  0.00    -0.136 SA
HETATM    8  N   UNK N   1      28.324  18.417   5.656  0.00  0.00    -0.293 N 
HETATM    9  C   UNK N   1      26.495  17.608   3.701  0.00  0.00     0.115 C 
HETATM   10  C   UNK N   1      26.232  18.826   4.543  0.00  0.00    -0.013 C 
HETATM   11  C   UNK N   1      27.164  19.251   5.446  0.00  0.00     0.117 C 
HETATM   12  C   UNK N   1      28.857  18.136   6.825  0.00  0.00     0.251 A 
HETATM   13  O   UNK N   1      28.621  18.682   7.890  0.00  0.00    -0.271 OA
BRANCH  10  14
HETATM   14  C   UNK N   1      24.908  19.505   4.364  0.00  0.00     0.204 C 
BRANCH  14  15
HETATM   15  O   UNK N   1      23.889  18.817   5.017  0.00  0.00    -0.392 OA
HETATM   16  C   UNK N   1      22.924  18.639   4.027  0.00  0.00     0.201 C 
ENDBRANCH  14  15
ENDBRANCH  10  14
BRANCH  11  17
HETATM   17  C   UNK N   1      26.959  20.500   6.267  0.00  0.00     0.194 C 
HETATM   18  O   UNK N   1      27.354  21.578   5.854  0.00  0.00    -0.645 OA
BRANCH  17  19
HETATM   19  O   UNK N   1      26.294  20.467   7.438  0.00  0.00    -0.772 OA
HETATM   20  H   UNK N   1      25.885  21.239   7.778  0.00  0.00     0.167 HD
ENDBRANCH  17  19
ENDBRANCH  11  17
ENDBRANCH   2   5
BRANCH   3  21
HETATM   21  C   UNK N   1      32.390  14.973   7.488  0.00  0.00     0.149 C 
HETATM   22  N   UNK N   1      32.324  13.878   6.786  0.00  0.00    -0.260 N 
ATOM     23  HN  UNK N   1      33.129  13.250   6.799  1.00  0.00     0.194 HD
BRANCH  22  24
HETATM   24  O   UNK N   1      31.278  13.534   6.059  0.00  0.00    -0.285 OA
HETATM   25  C   UNK N   1      31.428  13.013   4.793  0.00  0.00     0.237 C 
ENDBRANCH  22  24
BRANCH  21  26
HETATM   26  C   UNK N   1      33.595  15.211   8.314  0.00  0.00     0.075 A 
HETATM   27  N   UNK N   1      33.653  16.248   9.226  0.00  0.00    -0.335 N 
HETATM   28  C   UNK N   1      34.785  16.217   9.956  0.00  0.00     0.142 A 
ATOM     29  HN  UNK N   1      32.925  16.954   9.334  1.00  0.00     0.168 HD
HETATM   30  S   UNK N   1      35.704  14.929   9.510  0.00  0.00    -0.064 SA
HETATM   31  C   UNK N   1      34.699  14.329   8.330  0.00  0.00     0.085 A 
BRANCH  28  32
HETATM   32  N   UNK N   1      35.090  17.141  10.973  0.00  0.00    -0.380 N 
HETATM   33  H   UNK N   1      35.550  16.844  11.791  0.00  0.00     0.158 HD
HETATM   34  H   UNK N   1      34.843  18.088  10.866  0.00  0.00     0.158 HD
ENDBRANCH  28  32
ENDBRANCH  21  26
ENDBRANCH   3  21
TORSDOF 9
ENDMDL
MODEL 6
REMARK VINA RESULT:      -5.9      2.958      8.898
REMARK  9 active torsions:
REMARK  status: ('A' for Active; 'I' for Inactive)
REMARK    1  A    between atoms: O_4  and  C_22 
REMARK    2  A    between atoms: O_5  and  C_23 
REMARK    3  A    between atoms: O_8  and  N_11 
REMARK    4  A    between atoms: C_17  and  N_10 
REMARK       I    between atoms: N_10  and  C_24 
REMARK    5  A    between atoms: N_15  and  C_29 
REMARK    6  A    between atoms: C_19  and  C_23 
REMARK    7  A    between atoms: C_20  and  C_22 
REMARK    8  A    between atoms: C_24  and  C_25 
REMARK    9  A    between atoms: C_25  and  C_26 
ROOT
HETATM    1  O   UNK N   1      34.579  13.018  12.908  0.00  0.00    -0.266 OA
HETATM    2  N   UNK N   1      35.720  14.306  11.481  0.00  0.00    -0.340 N 
HETATM    3  C   UNK N   1      35.661  13.382  12.463  0.00  0.00     0.273 C 
HETATM    4  H   UNK N   1      36.609  14.684  11.290  0.00  0.00     0.163 HD
ENDROOT
BRANCH   2   5
HETATM    5  C   UNK N   1      34.623  14.802  10.679  0.00  0.00     0.211 A 
HETATM    6  C   UNK N   1      34.526  14.138   9.234  0.00  0.00     0.187 A 
HETATM    7  S   UNK N   1      32.891  13.386   8.980  0.00  0.00    -0.136 SA
HETATM    8  N   UNK N   1      34.603  15.473   8.691  0.00  0.00    -0.293 N 
HETATM    9  C   UNK N   1      33.003  13.723   7.208  0.00  0.00     0.115 C 
HETATM   10  C   UNK N   1      32.988  15.200   6.929  0.00  0.00    -0.013 C 
HETATM   11  C   UNK N   1      33.825  16.037   7.612  0.00  0.00     0.117 C 
HETATM   12  C   UNK N   1      34.796  16.036   9.863  0.00  0.00     0.251 A 
HETATM   13  O   UNK N   1      34.553  17.191  10.173  0.00  0.00    -0.271 OA
BRANCH  10  14
HETATM   14  C   UNK N   1      32.003  15.692   5.913  0.00  0.00     0.204 C 
BRANCH  14  15
HETATM   15  O   UNK N   1      30.949  16.375   6.513  0.00  0.00    -0.392 OA
HETATM   16  C   UNK N   1      30.500  17.236   5.512  0.00  0.00     0.201 C 
ENDBRANCH  14  15
ENDBRANCH  10  14
BRANCH  11  17
HETATM   17  C   UNK N   1      33.877  17.515   7.320  0.00  0.00     0.194 C 
HETATM   18  O   UNK N   1      34.627  17.945   6.460  0.00  0.00    -0.645 OA
BRANCH  17  19
HETATM   19  O   UNK N   1      33.066  18.384   7.955  0.00  0.00    -0.772 OA
HETATM   20  H   UNK N   1      33.159  18.541   8.875  0.00  0.00     0.167 HD
ENDBRANCH  17  19
ENDBRANCH  11  17
ENDBRANCH   2   5
BRANCH   3  21
HETATM   21  C   UNK N   1      36.912  12.673  12.873  0.00  0.00     0.149 C 
HETATM   22  N   UNK N   1      37.949  12.587  12.089  0.00  0.00    -0.260 N 
ATOM     23  HN  UNK N   1      38.732  12.007  12.390  1.00  0.00     0.194 HD
BRANCH  22  24
HETATM   24  O   UNK N   1      38.044  13.208  10.928  0.00  0.00    -0.285 OA
HETATM   25  C   UNK N   1      38.296  12.515   9.766  0.00  0.00     0.237 C 
ENDBRANCH  22  24
BRANCH  21  26
HETATM   26  C   UNK N   1      36.902  11.874  14.119  0.00  0.00     0.075 A 
HETATM   27  N   UNK N   1      36.225  12.301  15.246  0.00  0.00    -0.335 N 
HETATM   28  C   UNK N   1      36.242  11.377  16.226  0.00  0.00     0.142 A 
ATOM     29  HN  UNK N   1      35.767  13.209  15.326  1.00  0.00     0.168 HD
HETATM   30  S   UNK N   1      37.058  10.042  15.724  0.00  0.00    -0.064 SA
HETATM   31  C   UNK N   1      37.455  10.577  14.202  0.00  0.00     0.085 A 
BRANCH  28  32
HETATM   32  N   UNK N   1      35.608  11.542  17.472  0.00  0.00    -0.380 N 
HETATM   33  H   UNK N   1      35.928  12.225  18.105  0.00  0.00     0.158 HD
HETATM   34  H   UNK N   1      34.841  10.973  17.712  0.00  0.00     0.158 HD
ENDBRANCH  28  32
ENDBRANCH  21  26
ENDBRANCH   3  21
TORSDOF 9
ENDMDL
MODEL 7
REMARK VINA RESULT:      -5.8      6.107      9.228
REMARK  9 active torsions:
REMARK  status: ('A' for Active; 'I' for Inactive)
REMARK    1  A    between atoms: O_4  and  C_22 
REMARK    2  A    between atoms: O_5  and  C_23 
REMARK    3  A    between atoms: O_8  and  N_11 
REMARK    4  A    between atoms: C_17  and  N_10 
REMARK       I    between atoms: N_10  and  C_24 
REMARK    5  A    between atoms: N_15  and  C_29 
REMARK    6  A    between atoms: C_19  and  C_23 
REMARK    7  A    between atoms: C_20  and  C_22 
REMARK    8  A    between atoms: C_24  and  C_25 
REMARK    9  A    between atoms: C_25  and  C_26 
ROOT
HETATM    1  O   UNK N   1      25.315  15.817   4.783  0.00  0.00    -0.266 OA
HETATM    2  N   UNK N   1      26.163  17.619   5.797  0.00  0.00    -0.340 N 
HETATM    3  C   UNK N   1      25.178  16.984   5.128  0.00  0.00     0.273 C 
HETATM    4  H   UNK N   1      26.069  18.594   5.892  0.00  0.00     0.163 HD
ENDROOT
BRANCH   2   5
HETATM    5  C   UNK N   1      27.341  17.025   6.391  0.00  0.00     0.211 A 
HETATM    6  C   UNK N   1      28.265  18.063   7.172  0.00  0.00     0.187 A 
HETATM    7  S   UNK N   1      28.511  17.537   8.894  0.00  0.00    -0.136 SA
HETATM    8  N   UNK N   1      29.346  17.641   6.313  0.00  0.00    -0.293 N 
HETATM    9  C   UNK N   1      30.142  18.317   8.907  0.00  0.00     0.115 C 
HETATM   10  C   UNK N   1      31.089  17.622   7.970  0.00  0.00    -0.013 C 
HETATM   11  C   UNK N   1      30.713  17.359   6.683  0.00  0.00     0.117 C 
HETATM   12  C   UNK N   1      28.581  16.861   5.582  0.00  0.00     0.251 A 
HETATM   13  O   UNK N   1      28.932  15.899   4.918  0.00  0.00    -0.271 OA
BRANCH  10  14
HETATM   14  C   UNK N   1      32.419  17.212   8.525  0.00  0.00     0.204 C 
BRANCH  14  15
HETATM   15  O   UNK N   1      33.266  18.305   8.682  0.00  0.00    -0.392 OA
HETATM   16  C   UNK N   1      34.394  17.960   7.939  0.00  0.00     0.201 C 
ENDBRANCH  14  15
ENDBRANCH  10  14
BRANCH  11  17
HETATM   17  C   UNK N   1      31.657  16.714   5.699  0.00  0.00     0.194 C 
HETATM   18  O   UNK N   1      32.372  17.403   4.991  0.00  0.00    -0.645 OA
BRANCH  17  19
HETATM   19  O   UNK N   1      31.774  15.374   5.615  0.00  0.00    -0.772 OA
HETATM   20  H   UNK N   1      32.526  14.936   5.964  0.00  0.00     0.167 HD
ENDBRANCH  17  19
ENDBRANCH  11  17
ENDBRANCH   2   5
BRANCH   3  21
HETATM   21  C   UNK N   1      23.850  17.655   4.975  0.00  0.00     0.149 C 
HETATM   22  N   UNK N   1      23.707  18.762   4.304  0.00  0.00    -0.260 N 
ATOM     23  HN  UNK N   1      22.795  19.220   4.321  1.00  0.00     0.194 HD
BRANCH  22  24
HETATM   24  O   UNK N   1      24.672  19.326   3.603  0.00  0.00    -0.285 OA
HETATM   25  C   UNK N   1      24.457  20.487   2.895  0.00  0.00     0.237 C 
ENDBRANCH  22  24
BRANCH  21  26
HETATM   26  C   UNK N   1      22.708  17.162   5.775  0.00  0.00     0.075 A 
HETATM   27  N   UNK N   1      22.745  15.935   6.411  0.00  0.00    -0.335 N 
HETATM   28  C   UNK N   1      21.659  15.729   7.179  0.00  0.00     0.142 A 
ATOM     29  HN  UNK N   1      23.507  15.264   6.310  1.00  0.00     0.168 HD
HETATM   30  S   UNK N   1      20.663  17.035   7.104  0.00  0.00    -0.064 SA
HETATM   31  C   UNK N   1      21.571  17.953   6.058  0.00  0.00     0.085 A 
BRANCH  28  32
HETATM   32  N   UNK N   1      21.452  14.573   7.956  0.00  0.00    -0.380 N 
HETATM   33  H   UNK N   1      21.253  14.650   8.917  0.00  0.00     0.158 HD
HETATM   34  H   UNK N   1      21.508  13.684   7.537  0.00  0.00     0.158 HD
ENDBRANCH  28  32
ENDBRANCH  21  26
ENDBRANCH   3  21
TORSDOF 9
ENDMDL
MODEL 8
REMARK VINA RESULT:      -5.8      2.705      3.545
REMARK  9 active torsions:
REMARK  status: ('A' for Active; 'I' for Inactive)
REMARK    1  A    between atoms: O_4  and  C_22 
REMARK    2  A    between atoms: O_5  and  C_23 
REMARK    3  A    between atoms: O_8  and  N_11 
REMARK    4  A    between atoms: C_17  and  N_10 
REMARK       I    between atoms: N_10  and  C_24 
REMARK    5  A    between atoms: N_15  and  C_29 
REMARK    6  A    between atoms: C_19  and  C_23 
REMARK    7  A    between atoms: C_20  and  C_22 
REMARK    8  A    between atoms: C_24  and  C_25 
REMARK    9  A    between atoms: C_25  and  C_26 
ROOT
HETATM    1  O   UNK N   1      30.616  16.447   6.618  0.00  0.00    -0.266 OA
HETATM    2  N   UNK N   1      31.718  17.553   8.218  0.00  0.00    -0.340 N 
HETATM    3  C   UNK N   1      30.610  17.311   7.486  0.00  0.00     0.273 C 
HETATM    4  H   UNK N   1      31.707  18.367   8.771  0.00  0.00     0.163 HD
ENDROOT
BRANCH   2   5
HETATM    5  C   UNK N   1      32.918  16.748   8.280  0.00  0.00     0.211 A 
HETATM    6  C   UNK N   1      32.702  15.314   8.942  0.00  0.00     0.187 A 
HETATM    7  S   UNK N   1      33.230  13.996   7.806  0.00  0.00    -0.136 SA
HETATM    8  N   UNK N   1      33.737  15.669   9.884  0.00  0.00    -0.293 N 
HETATM    9  C   UNK N   1      33.679  12.954   9.214  0.00  0.00     0.115 C 
HETATM   10  C   UNK N   1      34.839  13.534   9.975  0.00  0.00    -0.013 C 
HETATM   11  C   UNK N   1      34.824  14.845  10.358  0.00  0.00     0.117 C 
HETATM   12  C   UNK N   1      33.856  16.896   9.428  0.00  0.00     0.251 A 
HETATM   13  O   UNK N   1      34.831  17.624   9.521  0.00  0.00    -0.271 OA
BRANCH  10  14
HETATM   14  C   UNK N   1      35.997  12.623  10.251  0.00  0.00     0.204 C 
BRANCH  14  15
HETATM   15  O   UNK N   1      35.606  11.507  10.983  0.00  0.00    -0.392 OA
HETATM   16  C   UNK N   1      35.993  11.814  12.287  0.00  0.00     0.201 C 
ENDBRANCH  14  15
ENDBRANCH  10  14
BRANCH  11  17
HETATM   17  C   UNK N   1      35.943  15.445  11.171  0.00  0.00     0.194 C 
HETATM   18  O   UNK N   1      35.898  15.422  12.389  0.00  0.00    -0.645 OA
BRANCH  17  19
HETATM   19  O   UNK N   1      37.036  15.969  10.580  0.00  0.00    -0.772 OA
HETATM   20  H   UNK N   1      36.997  16.805  10.159  0.00  0.00     0.167 HD
ENDBRANCH  17  19
ENDBRANCH  11  17
ENDBRANCH   2   5
BRANCH   3  21
HETATM   21  C   UNK N   1      29.326  17.976   7.867  0.00  0.00     0.149 C 
HETATM   22  N   UNK N   1      28.886  17.983   9.093  0.00  0.00    -0.260 N 
ATOM     23  HN  UNK N   1      27.957  18.367   9.268  1.00  0.00     0.194 HD
BRANCH  22  24
HETATM   24  O   UNK N   1      29.573  17.522  10.122  0.00  0.00    -0.285 OA
HETATM   25  C   UNK N   1      29.208  16.360  10.762  0.00  0.00     0.237 C 
ENDBRANCH  22  24
BRANCH  21  26
HETATM   26  C   UNK N   1      28.430  18.462   6.794  0.00  0.00     0.075 A 
HETATM   27  N   UNK N   1      28.073  17.656   5.729  0.00  0.00    -0.335 N 
HETATM   28  C   UNK N   1      27.161  18.245   4.932  0.00  0.00     0.142 A 
ATOM     29  HN  UNK N   1      28.454  16.723   5.567  1.00  0.00     0.168 HD
HETATM   30  S   UNK N   1      26.777  19.730   5.522  0.00  0.00    -0.064 SA
HETATM   31  C   UNK N   1      27.777  19.714   6.849  0.00  0.00     0.085 A 
BRANCH  28  32
HETATM   32  N   UNK N   1      26.606  17.637   3.790  0.00  0.00    -0.380 N 
HETATM   33  H   UNK N   1      26.396  16.675   3.793  0.00  0.00     0.158 HD
HETATM   34  H   UNK N   1      26.426  18.176   2.986  0.00  0.00     0.158 HD
ENDBRANCH  28  32
ENDBRANCH  21  26
ENDBRANCH   3  21
TORSDOF 9
ENDMDL
MODEL 9
REMARK VINA RESULT:      -5.8      3.013      8.434
REMARK  9 active torsions:
REMARK  status: ('A' for Active; 'I' for Inactive)
REMARK    1  A    between atoms: O_4  and  C_22 
REMARK    2  A    between atoms: O_5  and  C_23 
REMARK    3  A    between atoms: O_8  and  N_11 
REMARK    4  A    between atoms: C_17  and  N_10 
REMARK       I    between atoms: N_10  and  C_24 
REMARK    5  A    between atoms: N_15  and  C_29 
REMARK    6  A    between atoms: C_19  and  C_23 
REMARK    7  A    between atoms: C_20  and  C_22 
REMARK    8  A    between atoms: C_24  and  C_25 
REMARK    9  A    between atoms: C_25  and  C_26 
ROOT
HETATM    1  O   UNK N   1      36.537  16.000  10.557  0.00  0.00    -0.266 OA
HETATM    2  N   UNK N   1      36.127  14.386   9.065  0.00  0.00    -0.340 N 
HETATM    3  C   UNK N   1      36.627  14.819  10.242  0.00  0.00     0.273 C 
HETATM    4  H   UNK N   1      36.382  13.476   8.791  0.00  0.00     0.163 HD
ENDROOT
BRANCH   2   5
HETATM    5  C   UNK N   1      35.258  15.111   8.164  0.00  0.00     0.211 A 
HETATM    6  C   UNK N   1      33.850  15.504   8.799  0.00  0.00     0.187 A 
HETATM    7  S   UNK N   1      33.579  17.299   8.701  0.00  0.00    -0.136 SA
HETATM    8  N   UNK N   1      33.235  14.799   7.699  0.00  0.00    -0.293 N 
HETATM    9  C   UNK N   1      31.796  17.030   8.578  0.00  0.00     0.115 C 
HETATM   10  C   UNK N   1      31.434  16.339   7.293  0.00  0.00    -0.013 C 
HETATM   11  C   UNK N   1      32.098  15.209   6.909  0.00  0.00     0.117 C 
HETATM   12  C   UNK N   1      34.380  14.368   7.218  0.00  0.00     0.251 A 
HETATM   13  O   UNK N   1      34.615  14.033   6.068  0.00  0.00    -0.271 OA
BRANCH  10  14
HETATM   14  C   UNK N   1      30.355  16.966   6.462  0.00  0.00     0.204 C 
BRANCH  14  15
HETATM   15  O   UNK N   1      29.098  16.769   7.025  0.00  0.00    -0.392 OA
HETATM   16  C   UNK N   1      28.543  18.048   7.051  0.00  0.00     0.201 C 
ENDBRANCH  14  15
ENDBRANCH  10  14
BRANCH  11  17
HETATM   17  C   UNK N   1      31.725  14.459   5.655  0.00  0.00     0.194 C 
HETATM   18  O   UNK N   1      30.891  13.570   5.697  0.00  0.00    -0.645 OA
BRANCH  17  19
HETATM   19  O   UNK N   1      32.256  14.782   4.460  0.00  0.00    -0.772 OA
HETATM   20  H   UNK N   1      32.669  14.131   3.928  0.00  0.00     0.167 HD
ENDBRANCH  17  19
ENDBRANCH  11  17
ENDBRANCH   2   5
BRANCH   3  21
HETATM   21  C   UNK N   1      37.124  13.818  11.236  0.00  0.00     0.149 C 
HETATM   22  N   UNK N   1      38.241  13.171  11.067  0.00  0.00    -0.260 N 
ATOM     23  HN  UNK N   1      38.473  12.432  11.732  1.00  0.00     0.194 HD
BRANCH  22  24
HETATM   24  O   UNK N   1      39.091  13.415  10.087  0.00  0.00    -0.285 OA
HETATM   25  C   UNK N   1      39.390  12.458   9.145  0.00  0.00     0.237 C 
ENDBRANCH  22  24
BRANCH  21  26
HETATM   26  C   UNK N   1      36.227  13.403  12.337  0.00  0.00     0.075 A 
HETATM   27  N   UNK N   1      35.373  12.324  12.207  0.00  0.00    -0.335 N 
HETATM   28  C   UNK N   1      34.734  12.042  13.358  0.00  0.00     0.142 A 
ATOM     29  HN  UNK N   1      35.243  11.801  11.340  1.00  0.00     0.168 HD
HETATM   30  S   UNK N   1      35.212  13.086  14.535  0.00  0.00    -0.064 SA
HETATM   31  C   UNK N   1      36.275  13.983  13.625  0.00  0.00     0.085 A 
BRANCH  28  32
HETATM   32  N   UNK N   1      33.826  10.978  13.514  0.00  0.00    -0.380 N 
HETATM   33  H   UNK N   1      34.146  10.047  13.499  0.00  0.00     0.158 HD
HETATM   34  H   UNK N   1      32.868  11.165  13.638  0.00  0.00     0.158 HD
ENDBRANCH  28  32
ENDBRANCH  21  26
ENDBRANCH   3  21
TORSDOF 9
ENDMDL
