REMARK  9 active torsions:
REMARK  status: ('A' for Active; 'I' for Inactive)
REMARK    1  A    between atoms: O_4  and  C_22 
REMARK    2  A    between atoms: O_5  and  C_23 
REMARK    3  A    between atoms: O_8  and  N_11 
REMARK    4  A    between atoms: C_17  and  N_10 
REMARK       I    between atoms: N_10  and  C_24 
REMARK    5  A    between atoms: N_15  and  C_29 
REMARK    6  A    between atoms: C_19  and  C_23 
REMARK    7  A    between atoms: C_20  and  C_22 
REMARK    8  A    between atoms: C_24  and  C_25 
REMARK    9  A    between atoms: C_25  and  C_26 
ROOT
HETATM    1  O   UNK N   1       8.108  -0.010  -0.512  0.00  0.00    -0.266 OA
HETATM    2  N   UNK N   1       6.815  -1.478   0.570  0.00  0.00    -0.340 N 
HETATM    3  C   UNK N   1       7.966  -1.134  -0.046  0.00  0.00     0.273 C 
HETATM    4  H   UNK N   1       6.693  -2.435   0.765  0.00  0.00     0.163 HD
ENDROOT
BRANCH   2   5
HETATM    5  C   UNK N   1       5.742  -0.596   0.975  0.00  0.00     0.211 A 
HETATM    6  C   UNK N   1       4.448  -0.684   0.048  0.00  0.00     0.187 A 
HETATM    7  S   UNK N   1       2.976  -1.086   1.036  0.00  0.00    -0.136 SA
HETATM    8  N   UNK N   1       4.590   0.737  -0.166  0.00  0.00    -0.293 N 
HETATM    9  C   UNK N   1       1.940  -0.156  -0.117  0.00  0.00     0.115 C 
HETATM   10  C   UNK N   1       2.257   1.313  -0.075  0.00  0.00    -0.013 C 
HETATM   11  C   UNK N   1       3.551   1.740  -0.170  0.00  0.00     0.117 C 
HETATM   12  C   UNK N   1       5.720   0.816   0.501  0.00  0.00     0.251 A 
HETATM   13  O   UNK N   1       6.187   1.805   1.042  0.00  0.00    -0.271 OA
BRANCH  10  14
HETATM   14  C   UNK N   1       1.105   2.254   0.109  0.00  0.00     0.204 C 
BRANCH  14  15
HETATM   15  O   UNK N   1       0.139   2.077  -0.877  0.00  0.00    -0.392 OA
HETATM   16  C   UNK N   1      -0.991   2.700  -0.349  0.00  0.00     0.201 C 
ENDBRANCH  14  15
ENDBRANCH  10  14
BRANCH  11  17
HETATM   17  C   UNK N   1       3.901   3.207  -0.188  0.00  0.00     0.194 C 
HETATM   18  O   UNK N   1       5.042   3.563  -0.429  0.00  0.00    -0.645 OA
BRANCH  17  19
HETATM   19  O   UNK N   1       2.962   4.154   0.006  0.00  0.00    -0.772 OA
HETATM   20  H   UNK N   1       3.206   5.049   0.140  0.00  0.00     0.167 HD
ENDBRANCH  17  19
ENDBRANCH  11  17
ENDBRANCH   2   5
BRANCH   3  21
HETATM   21  C   UNK N   1       9.130  -2.071   0.009  0.00  0.00     0.149 C 
HETATM   22  N   UNK N   1       8.989  -3.336   0.285  0.00  0.00    -0.260 N 
ATOM     23  HN  UNK N   1       9.832  -3.899   0.403  1.00  0.00     0.194 HD
BRANCH  22  24
HETATM   24  O   UNK N   1       7.819  -3.932   0.420  0.00  0.00    -0.285 OA
HETATM   25  C   UNK N   1       6.987  -4.126  -0.659  0.00  0.00     0.237 C 
ENDBRANCH  22  24
BRANCH  21  26
HETATM   26  C   UNK N   1      10.498  -1.510  -0.051  0.00  0.00     0.075 A 
HETATM   27  N   UNK N   1      10.718  -0.156  -0.222  0.00  0.00    -0.335 N 
HETATM   28  C   UNK N   1      12.024   0.160  -0.129  0.00  0.00     0.142 A 
ATOM     29  HN  UNK N   1       9.978   0.524  -0.397  1.00  0.00     0.168 HD
HETATM   30  S   UNK N   1      12.908  -1.192   0.175  0.00  0.00    -0.064 SA
HETATM   31  C   UNK N   1      11.655  -2.283   0.196  0.00  0.00     0.085 A 
BRANCH  28  32
HETATM   32  N   UNK N   1      12.525   1.471  -0.239  0.00  0.00    -0.380 N 
HETATM   33  H   UNK N   1      13.494   1.627  -0.316  0.00  0.00     0.158 HD
HETATM   34  H   UNK N   1      11.904   2.235  -0.239  0.00  0.00     0.158 HD
ENDBRANCH  28  32
ENDBRANCH  21  26
ENDBRANCH   3  21
TORSDOF 9
