REMARK  10 active torsions:
REMARK  status: ('A' for Active; 'I' for Inactive)
REMARK    1  A    between atoms: O_7  and  C_20 
REMARK    2  A    between atoms: O_7  and  C_27 
REMARK    3  A    between atoms: N_9  and  C_18 
REMARK    4  A    between atoms: N_10  and  C_19 
REMARK    5  A    between atoms: N_11  and  C_29 
REMARK    6  A    between atoms: N_11  and  C_30 
REMARK    7  A    between atoms: C_18  and  C_20 
REMARK    8  A    between atoms: C_23  and  C_26 
REMARK    9  A    between atoms: C_27  and  C_28 
REMARK   10  A    between atoms: C_39  and  C_43 
ROOT
HETATM    1  C   UNK N   1       8.668   1.134  -0.173  0.00  0.00     0.066 A 
HETATM    2  C   UNK N   1       8.866   2.352   0.527  0.00  0.00     0.049 A 
HETATM    3  C   UNK N   1       9.789   0.347  -0.477  0.00  0.00     0.020 A 
HETATM    4  C   UNK N   1      10.156   2.754   0.895  0.00  0.00     0.030 A 
HETATM    5  C   UNK N   1      11.072   0.751  -0.102  0.00  0.00     0.001 A 
HETATM    6  C   UNK N   1      11.256   1.955   0.578  0.00  0.00     0.002 A 
ENDROOT
BRANCH   1   7
HETATM    7  C   UNK N   1       7.294   0.718  -0.641  0.00  0.00     0.295 C 
HETATM    8  O   UNK N   1       6.376   1.520  -0.596  0.00  0.00    -0.259 OA
BRANCH   7   9
HETATM    9  O   UNK N   1       7.020  -0.515  -1.144  0.00  0.00    -0.316 OA
BRANCH   9  10
HETATM   10  C   UNK N   1       7.746  -1.653  -0.888  0.00  0.00     0.198 C 
BRANCH  10  11
HETATM   11  C   UNK N   1       7.676  -1.995   0.601  0.00  0.00     0.143 C 
BRANCH  11  12
HETATM   12  N   UNK N   1       6.361  -2.464   1.042  0.00  0.00    -0.407 N 
HETATM   13  C   UNK N   1       5.978  -3.763   0.472  0.00  0.00     0.136 C 
HETATM   14  C   UNK N   1       5.103  -3.615  -0.763  0.00  0.00     0.142 C 
HETATM   15  N   UNK N   1       4.023  -2.724  -0.431  0.00  0.00    -0.378 N 
HETATM   16  C   UNK N   1       4.376  -1.375  -0.076  0.00  0.00     0.142 C 
HETATM   17  C   UNK N   1       5.313  -1.425   1.140  0.00  0.00     0.136 C 
BRANCH  15  18
HETATM   18  C   UNK N   1       2.714  -3.235  -0.185  0.00  0.00     0.030 A 
HETATM   19  C   UNK N   1       2.496  -4.620  -0.196  0.00  0.00     0.045 A 
HETATM   20  C   UNK N   1       1.252  -5.156   0.141  0.00  0.00     0.050 A 
HETATM   21  C   UNK N   1       0.198  -4.294   0.474  0.00  0.00     0.016 A 
HETATM   22  C   UNK N   1       0.397  -2.909   0.473  0.00  0.00     0.003 A 
HETATM   23  C   UNK N   1       1.654  -2.381   0.160  0.00  0.00     0.029 A 
BRANCH  20  24
HETATM   24  C   UNK N   1       1.088  -6.646   0.181  0.00  0.00     0.417 C 
HETATM   25  F   UNK N   1       1.992  -7.178   1.083  0.00  0.00    -0.166 F 
HETATM   26  F   UNK N   1      -0.191  -6.999   0.574  0.00  0.00    -0.166 F 
HETATM   27  F   UNK N   1       1.337  -7.175  -1.072  0.00  0.00    -0.166 F 
ENDBRANCH  20  24
ENDBRANCH  15  18
ENDBRANCH  11  12
ENDBRANCH  10  11
ENDBRANCH   9  10
ENDBRANCH   7   9
ENDBRANCH   1   7
BRANCH   2  28
HETATM   28  N   UNK N   1       7.744   3.140   0.871  0.00  0.00    -0.355 N 
HETATM   29  H   UNK N   1       7.090   2.759   1.501  0.00  0.00     0.166 HD
BRANCH  28  30
HETATM   30  C   UNK N   1       7.499   4.440   0.368  0.00  0.00     0.046 A 
HETATM   31  C   UNK N   1       6.174   4.869   0.239  0.00  0.00     0.017 A 
HETATM   32  C   UNK N   1       5.904   6.107  -0.377  0.00  0.00     0.045 A 
HETATM   33  C   UNK N   1       5.113   4.057   0.663  0.00  0.00     0.017 A 
HETATM   34  N   UNK N   1       6.930   6.889  -0.808  0.00  0.00    -0.365 N 
HETATM   35  C   UNK N   1       4.578   6.504  -0.584  0.00  0.00     0.046 A 
HETATM   36  C   UNK N   1       8.227   6.494  -0.676  0.00  0.00     0.090 A 
ATOM     37  HN  UNK N   1       6.724   7.789  -1.240  1.00  0.00     0.165 HD
HETATM   38  C   UNK N   1       8.534   5.255  -0.107  0.00  0.00     0.047 A 
HETATM   39  C   UNK N   1       3.519   5.674  -0.177  0.00  0.00     0.050 A 
HETATM   40  C   UNK N   1       3.795   4.459   0.458  0.00  0.00     0.017 A 
BRANCH  39  41
HETATM   41  C   UNK N   1       2.092   6.052  -0.443  0.00  0.00     0.417 C 
HETATM   42  F   UNK N   1       1.501   5.075  -1.225  0.00  0.00    -0.166 F 
HETATM   43  F   UNK N   1       1.406   6.149   0.753  0.00  0.00    -0.166 F 
HETATM   44  F   UNK N   1       2.011   7.263  -1.109  0.00  0.00    -0.166 F 
ENDBRANCH  39  41
ENDBRANCH  28  30
ENDBRANCH   2  28
TORSDOF 10
