MODEL 1
REMARK VINA RESULT:      -8.3      0.000      0.000
REMARK  10 active torsions:
REMARK  status: ('A' for Active; 'I' for Inactive)
REMARK    1  A    between atoms: O_7  and  C_20 
REMARK    2  A    between atoms: O_7  and  C_27 
REMARK    3  A    between atoms: N_9  and  C_18 
REMARK    4  A    between atoms: N_10  and  C_19 
REMARK    5  A    between atoms: N_11  and  C_29 
REMARK    6  A    between atoms: N_11  and  C_30 
REMARK    7  A    between atoms: C_18  and  C_20 
REMARK    8  A    between atoms: C_23  and  C_26 
REMARK    9  A    between atoms: C_27  and  C_28 
REMARK   10  A    between atoms: C_39  and  C_43 
ROOT
HETATM    1  C   UNK N   1      22.136  12.574   9.081  0.00  0.00     0.066 A 
HETATM    2  C   UNK N   1      23.496  12.340   8.754  0.00  0.00     0.049 A 
HETATM    3  C   UNK N   1      21.753  12.526  10.430  0.00  0.00     0.020 A 
HETATM    4  C   UNK N   1      24.427  12.061   9.762  0.00  0.00     0.030 A 
HETATM    5  C   UNK N   1      22.688  12.253  11.431  0.00  0.00     0.001 A 
HETATM    6  C   UNK N   1      24.022  12.015  11.097  0.00  0.00     0.002 A 
ENDROOT
BRANCH   1   7
HETATM    7  C   UNK N   1      21.103  12.806   8.004  0.00  0.00     0.295 C 
HETATM    8  O   UNK N   1      21.047  12.045   7.052  0.00  0.00    -0.259 OA
BRANCH   7   9
HETATM    9  O   UNK N   1      20.198  13.820   8.045  0.00  0.00    -0.316 OA
BRANCH   9  10
HETATM   10  C   UNK N   1      20.419  15.097   7.591  0.00  0.00     0.198 C 
BRANCH  10  11
HETATM   11  C   UNK N   1      20.333  15.132   6.064  0.00  0.00     0.143 C 
BRANCH  11  12
HETATM   12  N   UNK N   1      21.511  15.712   5.416  0.00  0.00    -0.407 N 
HETATM   13  C   UNK N   1      22.249  16.654   6.270  0.00  0.00     0.136 C 
HETATM   14  C   UNK N   1      21.851  18.099   6.012  0.00  0.00     0.142 C 
HETATM   15  N   UNK N   1      21.932  18.330   4.594  0.00  0.00    -0.378 N 
HETATM   16  C   UNK N   1      21.052  17.559   3.756  0.00  0.00     0.142 C 
HETATM   17  C   UNK N   1      21.344  16.069   3.991  0.00  0.00     0.136 C 
BRANCH  15  18
HETATM   18  C   UNK N   1      23.025  19.062   4.043  0.00  0.00     0.030 A 
HETATM   19  C   UNK N   1      24.338  18.729   4.405  0.00  0.00     0.045 A 
HETATM   20  C   UNK N   1      25.432  19.356   3.807  0.00  0.00     0.050 A 
HETATM   21  C   UNK N   1      25.213  20.352   2.845  0.00  0.00     0.016 A 
HETATM   22  C   UNK N   1      23.908  20.707   2.486  0.00  0.00     0.003 A 
HETATM   23  C   UNK N   1      22.818  20.054   3.071  0.00  0.00     0.029 A 
BRANCH  20  24
HETATM   24  C   UNK N   1      26.816  18.916   4.178  0.00  0.00     0.417 C 
HETATM   25  F   UNK N   1      27.126  17.760   3.485  0.00  0.00    -0.166 F 
HETATM   26  F   UNK N   1      27.752  19.887   3.864  0.00  0.00    -0.166 F 
HETATM   27  F   UNK N   1      26.874  18.658   5.535  0.00  0.00    -0.166 F 
ENDBRANCH  20  24
ENDBRANCH  15  18
ENDBRANCH  11  12
ENDBRANCH  10  11
ENDBRANCH   9  10
ENDBRANCH   7   9
ENDBRANCH   1   7
BRANCH   2  28
HETATM   28  N   UNK N   1      23.904  12.418   7.403  0.00  0.00    -0.355 N 
HETATM   29  H   UNK N   1      23.747  11.634   6.829  0.00  0.00     0.166 HD
BRANCH  28  30
HETATM   30  C   UNK N   1      24.525  13.550   6.823  0.00  0.00     0.046 A 
HETATM   31  C   UNK N   1      24.380  13.761   5.448  0.00  0.00     0.017 A 
HETATM   32  C   UNK N   1      25.092  14.808   4.829  0.00  0.00     0.045 A 
HETATM   33  C   UNK N   1      23.581  12.910   4.672  0.00  0.00     0.017 A 
HETATM   34  N   UNK N   1      25.885  15.624   5.575  0.00  0.00    -0.365 N 
HETATM   35  C   UNK N   1      25.017  14.972   3.441  0.00  0.00     0.046 A 
HETATM   36  C   UNK N   1      26.025  15.442   6.918  0.00  0.00     0.090 A 
ATOM     37  HN  UNK N   1      26.385  16.386   5.120  1.00  0.00     0.165 HD
HETATM   38  C   UNK N   1      25.366  14.391   7.562  0.00  0.00     0.047 A 
HETATM   39  C   UNK N   1      24.232  14.101   2.667  0.00  0.00     0.050 A 
HETATM   40  C   UNK N   1      23.506  13.081   3.291  0.00  0.00     0.017 A 
BRANCH  39  41
HETATM   41  C   UNK N   1      24.184  14.222   1.172  0.00  0.00     0.417 C 
HETATM   42  F   UNK N   1      22.938  14.690   0.794  0.00  0.00    -0.166 F 
HETATM   43  F   UNK N   1      25.150  15.114   0.747  0.00  0.00    -0.166 F 
HETATM   44  F   UNK N   1      24.402  12.997   0.564  0.00  0.00    -0.166 F 
ENDBRANCH  39  41
ENDBRANCH  28  30
ENDBRANCH   2  28
TORSDOF 10
ENDMDL
MODEL 2
REMARK VINA RESULT:      -8.2      2.844      6.153
REMARK  10 active torsions:
REMARK  status: ('A' for Active; 'I' for Inactive)
REMARK    1  A    between atoms: O_7  and  C_20 
REMARK    2  A    between atoms: O_7  and  C_27 
REMARK    3  A    between atoms: N_9  and  C_18 
REMARK    4  A    between atoms: N_10  and  C_19 
REMARK    5  A    between atoms: N_11  and  C_29 
REMARK    6  A    between atoms: N_11  and  C_30 
REMARK    7  A    between atoms: C_18  and  C_20 
REMARK    8  A    between atoms: C_23  and  C_26 
REMARK    9  A    between atoms: C_27  and  C_28 
REMARK   10  A    between atoms: C_39  and  C_43 
ROOT
HETATM    1  C   UNK N   1      19.572  14.871   3.683  0.00  0.00     0.066 A 
HETATM    2  C   UNK N   1      20.391  15.873   3.101  0.00  0.00     0.049 A 
HETATM    3  C   UNK N   1      19.195  13.774   2.894  0.00  0.00     0.020 A 
HETATM    4  C   UNK N   1      20.800  15.764   1.767  0.00  0.00     0.030 A 
HETATM    5  C   UNK N   1      19.611  13.669   1.566  0.00  0.00     0.001 A 
HETATM    6  C   UNK N   1      20.408  14.665   1.001  0.00  0.00     0.002 A 
ENDROOT
BRANCH   1   7
HETATM    7  C   UNK N   1      19.062  15.005   5.098  0.00  0.00     0.295 C 
HETATM    8  O   UNK N   1      18.177  15.809   5.343  0.00  0.00    -0.259 OA
BRANCH   7   9
HETATM    9  O   UNK N   1      19.521  14.250   6.131  0.00  0.00    -0.316 OA
BRANCH   9  10
HETATM   10  C   UNK N   1      20.644  14.525   6.874  0.00  0.00     0.198 C 
BRANCH  10  11
HETATM   11  C   UNK N   1      21.856  13.812   6.274  0.00  0.00     0.143 C 
BRANCH  11  12
HETATM   12  N   UNK N   1      22.798  14.706   5.599  0.00  0.00    -0.407 N 
HETATM   13  C   UNK N   1      23.367  14.142   4.367  0.00  0.00     0.136 C 
HETATM   14  C   UNK N   1      24.722  13.493   4.603  0.00  0.00     0.142 C 
HETATM   15  N   UNK N   1      25.545  14.440   5.306  0.00  0.00    -0.378 N 
HETATM   16  C   UNK N   1      25.106  14.840   6.616  0.00  0.00     0.142 C 
HETATM   17  C   UNK N   1      23.707  15.463   6.487  0.00  0.00     0.136 C 
BRANCH  15  18
HETATM   18  C   UNK N   1      26.572  15.154   4.620  0.00  0.00     0.030 A 
HETATM   19  C   UNK N   1      27.434  15.993   5.341  0.00  0.00     0.045 A 
HETATM   20  C   UNK N   1      28.511  16.626   4.717  0.00  0.00     0.050 A 
HETATM   21  C   UNK N   1      28.720  16.436   3.344  0.00  0.00     0.016 A 
HETATM   22  C   UNK N   1      27.858  15.615   2.610  0.00  0.00     0.003 A 
HETATM   23  C   UNK N   1      26.797  14.964   3.247  0.00  0.00     0.029 A 
BRANCH  20  24
HETATM   24  C   UNK N   1      29.445  17.458   5.544  0.00  0.00     0.417 C 
HETATM   25  F   UNK N   1      28.772  18.579   5.998  0.00  0.00    -0.166 F 
HETATM   26  F   UNK N   1      29.913  16.749   6.637  0.00  0.00    -0.166 F 
HETATM   27  F   UNK N   1      30.519  17.858   4.772  0.00  0.00    -0.166 F 
ENDBRANCH  20  24
ENDBRANCH  15  18
ENDBRANCH  11  12
ENDBRANCH  10  11
ENDBRANCH   9  10
ENDBRANCH   7   9
ENDBRANCH   1   7
BRANCH   2  28
HETATM   28  N   UNK N   1      20.808  16.968   3.892  0.00  0.00    -0.355 N 
HETATM   29  H   UNK N   1      20.933  16.816   4.857  0.00  0.00     0.166 HD
BRANCH  28  30
HETATM   30  C   UNK N   1      21.057  18.266   3.388  0.00  0.00     0.046 A 
HETATM   31  C   UNK N   1      22.373  18.739   3.376  0.00  0.00     0.017 A 
HETATM   32  C   UNK N   1      22.627  20.072   2.998  0.00  0.00     0.045 A 
HETATM   33  C   UNK N   1      23.433  17.920   3.789  0.00  0.00     0.017 A 
HETATM   34  N   UNK N   1      21.599  20.877   2.615  0.00  0.00    -0.365 N 
HETATM   35  C   UNK N   1      23.931  20.576   3.063  0.00  0.00     0.046 A 
HETATM   36  C   UNK N   1      20.313  20.428   2.606  0.00  0.00     0.090 A 
ATOM     37  HN  UNK N   1      21.795  21.835   2.331  1.00  0.00     0.165 HD
HETATM   38  C   UNK N   1      20.016  19.124   3.012  0.00  0.00     0.047 A 
HETATM   39  C   UNK N   1      24.985  19.755   3.501  0.00  0.00     0.050 A 
HETATM   40  C   UNK N   1      24.730  18.425   3.848  0.00  0.00     0.017 A 
BRANCH  39  41
HETATM   41  C   UNK N   1      26.380  20.291   3.636  0.00  0.00     0.417 C 
HETATM   42  F   UNK N   1      26.520  20.886   4.877  0.00  0.00    -0.166 F 
HETATM   43  F   UNK N   1      27.288  19.255   3.526  0.00  0.00    -0.166 F 
HETATM   44  F   UNK N   1      26.650  21.233   2.658  0.00  0.00    -0.166 F 
ENDBRANCH  39  41
ENDBRANCH  28  30
ENDBRANCH   2  28
TORSDOF 10
ENDMDL
MODEL 3
REMARK VINA RESULT:      -8.2      2.768      4.811
REMARK  10 active torsions:
REMARK  status: ('A' for Active; 'I' for Inactive)
REMARK    1  A    between atoms: O_7  and  C_20 
REMARK    2  A    between atoms: O_7  and  C_27 
REMARK    3  A    between atoms: N_9  and  C_18 
REMARK    4  A    between atoms: N_10  and  C_19 
REMARK    5  A    between atoms: N_11  and  C_29 
REMARK    6  A    between atoms: N_11  and  C_30 
REMARK    7  A    between atoms: C_18  and  C_20 
REMARK    8  A    between atoms: C_23  and  C_26 
REMARK    9  A    between atoms: C_27  and  C_28 
REMARK   10  A    between atoms: C_39  and  C_43 
ROOT
HETATM    1  C   UNK N   1      21.920  13.046   7.794  0.00  0.00     0.066 A 
HETATM    2  C   UNK N   1      21.715  14.339   7.249  0.00  0.00     0.049 A 
HETATM    3  C   UNK N   1      21.440  12.780   9.086  0.00  0.00     0.020 A 
HETATM    4  C   UNK N   1      21.053  15.323   7.994  0.00  0.00     0.030 A 
HETATM    5  C   UNK N   1      20.776  13.764   9.821  0.00  0.00     0.001 A 
HETATM    6  C   UNK N   1      20.588  15.035   9.279  0.00  0.00     0.002 A 
ENDROOT
BRANCH   1   7
HETATM    7  C   UNK N   1      22.693  11.994   7.036  0.00  0.00     0.295 C 
HETATM    8  O   UNK N   1      22.089  11.119   6.438  0.00  0.00    -0.259 OA
BRANCH   7   9
HETATM    9  O   UNK N   1      24.051  11.979   6.957  0.00  0.00    -0.316 OA
BRANCH   9  10
HETATM   10  C   UNK N   1      24.774  11.748   5.811  0.00  0.00     0.198 C 
BRANCH  10  11
HETATM   11  C   UNK N   1      25.886  12.789   5.675  0.00  0.00     0.143 C 
BRANCH  11  12
HETATM   12  N   UNK N   1      25.402  14.168   5.592  0.00  0.00    -0.407 N 
HETATM   13  C   UNK N   1      25.336  14.686   4.219  0.00  0.00     0.136 C 
HETATM   14  C   UNK N   1      26.573  15.487   3.844  0.00  0.00     0.142 C 
HETATM   15  N   UNK N   1      26.796  16.460   4.881  0.00  0.00    -0.378 N 
HETATM   16  C   UNK N   1      27.077  15.957   6.199  0.00  0.00     0.142 C 
HETATM   17  C   UNK N   1      25.896  15.082   6.644  0.00  0.00     0.136 C 
BRANCH  15  18
HETATM   18  C   UNK N   1      26.464  17.831   4.668  0.00  0.00     0.030 A 
HETATM   19  C   UNK N   1      26.743  18.776   5.665  0.00  0.00     0.045 A 
HETATM   20  C   UNK N   1      26.525  20.138   5.449  0.00  0.00     0.050 A 
HETATM   21  C   UNK N   1      25.997  20.564   4.222  0.00  0.00     0.016 A 
HETATM   22  C   UNK N   1      25.699  19.631   3.224  0.00  0.00     0.003 A 
HETATM   23  C   UNK N   1      25.945  18.271   3.439  0.00  0.00     0.029 A 
BRANCH  20  24
HETATM   24  C   UNK N   1      26.903  21.115   6.521  0.00  0.00     0.417 C 
HETATM   25  F   UNK N   1      26.973  20.454   7.734  0.00  0.00    -0.166 F 
HETATM   26  F   UNK N   1      28.133  21.694   6.260  0.00  0.00    -0.166 F 
HETATM   27  F   UNK N   1      25.946  22.109   6.603  0.00  0.00    -0.166 F 
ENDBRANCH  20  24
ENDBRANCH  15  18
ENDBRANCH  11  12
ENDBRANCH  10  11
ENDBRANCH   9  10
ENDBRANCH   7   9
ENDBRANCH   1   7
BRANCH   2  28
HETATM   28  N   UNK N   1      22.162  14.614   5.937  0.00  0.00    -0.355 N 
HETATM   29  H   UNK N   1      23.132  14.593   5.767  0.00  0.00     0.166 HD
BRANCH  28  30
HETATM   30  C   UNK N   1      21.307  14.917   4.851  0.00  0.00     0.046 A 
HETATM   31  C   UNK N   1      21.384  16.188   4.272  0.00  0.00     0.017 A 
HETATM   32  C   UNK N   1      20.456  16.553   3.277  0.00  0.00     0.045 A 
HETATM   33  C   UNK N   1      22.334  17.119   4.712  0.00  0.00     0.017 A 
HETATM   34  N   UNK N   1      19.519  15.659   2.861  0.00  0.00    -0.365 N 
HETATM   35  C   UNK N   1      20.475  17.851   2.754  0.00  0.00     0.046 A 
HETATM   36  C   UNK N   1      19.440  14.411   3.402  0.00  0.00     0.090 A 
ATOM     37  HN  UNK N   1      18.861  15.929   2.131  1.00  0.00     0.165 HD
HETATM   38  C   UNK N   1      20.316  14.025   4.420  0.00  0.00     0.047 A 
HETATM   39  C   UNK N   1      21.416  18.787   3.216  0.00  0.00     0.050 A 
HETATM   40  C   UNK N   1      22.351  18.409   4.185  0.00  0.00     0.017 A 
BRANCH  39  41
HETATM   41  C   UNK N   1      21.416  20.200   2.713  0.00  0.00     0.417 C 
HETATM   42  F   UNK N   1      21.092  20.204   1.368  0.00  0.00    -0.166 F 
HETATM   43  F   UNK N   1      20.476  20.939   3.406  0.00  0.00    -0.166 F 
HETATM   44  F   UNK N   1      22.659  20.788   2.873  0.00  0.00    -0.166 F 
ENDBRANCH  39  41
ENDBRANCH  28  30
ENDBRANCH   2  28
TORSDOF 10
ENDMDL
MODEL 4
REMARK VINA RESULT:      -8.2      4.803      8.408
REMARK  10 active torsions:
REMARK  status: ('A' for Active; 'I' for Inactive)
REMARK    1  A    between atoms: O_7  and  C_20 
REMARK    2  A    between atoms: O_7  and  C_27 
REMARK    3  A    between atoms: N_9  and  C_18 
REMARK    4  A    between atoms: N_10  and  C_19 
REMARK    5  A    between atoms: N_11  and  C_29 
REMARK    6  A    between atoms: N_11  and  C_30 
REMARK    7  A    between atoms: C_18  and  C_20 
REMARK    8  A    between atoms: C_23  and  C_26 
REMARK    9  A    between atoms: C_27  and  C_28 
REMARK   10  A    between atoms: C_39  and  C_43 
ROOT
HETATM    1  C   UNK N   1      26.864  18.594   4.567  0.00  0.00     0.066 A 
HETATM    2  C   UNK N   1      27.174  18.759   5.941  0.00  0.00     0.049 A 
HETATM    3  C   UNK N   1      26.640  19.739   3.789  0.00  0.00     0.020 A 
HETATM    4  C   UNK N   1      27.246  20.041   6.500  0.00  0.00     0.030 A 
HETATM    5  C   UNK N   1      26.719  21.015   4.351  0.00  0.00     0.001 A 
HETATM    6  C   UNK N   1      27.016  21.166   5.706  0.00  0.00     0.002 A 
ENDROOT
BRANCH   1   7
HETATM    7  C   UNK N   1      26.711  17.219   3.962  0.00  0.00     0.295 C 
HETATM    8  O   UNK N   1      27.701  16.621   3.572  0.00  0.00    -0.259 OA
BRANCH   7   9
HETATM    9  O   UNK N   1      25.515  16.583   3.848  0.00  0.00    -0.316 OA
BRANCH   9  10
HETATM   10  C   UNK N   1      25.331  15.332   3.311  0.00  0.00     0.198 C 
BRANCH  10  11
HETATM   11  C   UNK N   1      23.857  15.123   2.962  0.00  0.00     0.143 C 
BRANCH  11  12
HETATM   12  N   UNK N   1      23.091  14.437   4.004  0.00  0.00    -0.407 N 
HETATM   13  C   UNK N   1      22.099  15.294   4.667  0.00  0.00     0.136 C 
HETATM   14  C   UNK N   1      22.627  15.890   5.963  0.00  0.00     0.142 C 
HETATM   15  N   UNK N   1      23.166  14.815   6.752  0.00  0.00    -0.378 N 
HETATM   16  C   UNK N   1      24.287  14.099   6.202  0.00  0.00     0.142 C 
HETATM   17  C   UNK N   1      23.863  13.503   4.852  0.00  0.00     0.136 C 
BRANCH  15  18
HETATM   18  C   UNK N   1      22.442  14.307   7.872  0.00  0.00     0.030 A 
HETATM   19  C   UNK N   1      23.071  13.426   8.764  0.00  0.00     0.045 A 
HETATM   20  C   UNK N   1      22.425  12.992   9.923  0.00  0.00     0.050 A 
HETATM   21  C   UNK N   1      21.119  13.427  10.187  0.00  0.00     0.016 A 
HETATM   22  C   UNK N   1      20.474  14.293   9.298  0.00  0.00     0.003 A 
HETATM   23  C   UNK N   1      21.138  14.744   8.152  0.00  0.00     0.029 A 
BRANCH  20  24
HETATM   24  C   UNK N   1      23.165  12.105  10.879  0.00  0.00     0.417 C 
HETATM   25  F   UNK N   1      22.939  10.783  10.539  0.00  0.00    -0.166 F 
HETATM   26  F   UNK N   1      24.527  12.348  10.837  0.00  0.00    -0.166 F 
HETATM   27  F   UNK N   1      22.707  12.324  12.165  0.00  0.00    -0.166 F 
ENDBRANCH  20  24
ENDBRANCH  15  18
ENDBRANCH  11  12
ENDBRANCH  10  11
ENDBRANCH   9  10
ENDBRANCH   7   9
ENDBRANCH   1   7
BRANCH   2  28
HETATM   28  N   UNK N   1      27.436  17.617   6.732  0.00  0.00    -0.355 N 
HETATM   29  H   UNK N   1      26.931  16.795   6.533  0.00  0.00     0.166 HD
BRANCH  28  30
HETATM   30  C   UNK N   1      28.375  17.578   7.790  0.00  0.00     0.046 A 
HETATM   31  C   UNK N   1      29.731  17.437   7.477  0.00  0.00     0.017 A 
HETATM   32  C   UNK N   1      30.667  17.268   8.516  0.00  0.00     0.045 A 
HETATM   33  C   UNK N   1      30.159  17.404   6.142  0.00  0.00     0.017 A 
HETATM   34  N   UNK N   1      30.254  17.279   9.811  0.00  0.00    -0.365 N 
HETATM   35  C   UNK N   1      32.014  17.043   8.206  0.00  0.00     0.046 A 
HETATM   36  C   UNK N   1      28.939  17.432  10.135  0.00  0.00     0.090 A 
ATOM     37  HN  UNK N   1      30.941  17.170  10.556  1.00  0.00     0.165 HD
HETATM   38  C   UNK N   1      27.975  17.561   9.132  0.00  0.00     0.047 A 
HETATM   39  C   UNK N   1      32.432  16.988   6.865  0.00  0.00     0.050 A 
HETATM   40  C   UNK N   1      31.501  17.183   5.840  0.00  0.00     0.017 A 
BRANCH  39  41
HETATM   41  C   UNK N   1      33.858  16.689   6.510  0.00  0.00     0.417 C 
HETATM   42  F   UNK N   1      34.068  15.323   6.585  0.00  0.00    -0.166 F 
HETATM   43  F   UNK N   1      34.115  17.114   5.220  0.00  0.00    -0.166 F 
HETATM   44  F   UNK N   1      34.733  17.321   7.376  0.00  0.00    -0.166 F 
ENDBRANCH  39  41
ENDBRANCH  28  30
ENDBRANCH   2  28
TORSDOF 10
ENDMDL
MODEL 5
REMARK VINA RESULT:      -8.1      3.965      7.132
REMARK  10 active torsions:
REMARK  status: ('A' for Active; 'I' for Inactive)
REMARK    1  A    between atoms: O_7  and  C_20 
REMARK    2  A    between atoms: O_7  and  C_27 
REMARK    3  A    between atoms: N_9  and  C_18 
REMARK    4  A    between atoms: N_10  and  C_19 
REMARK    5  A    between atoms: N_11  and  C_29 
REMARK    6  A    between atoms: N_11  and  C_30 
REMARK    7  A    between atoms: C_18  and  C_20 
REMARK    8  A    between atoms: C_23  and  C_26 
REMARK    9  A    between atoms: C_27  and  C_28 
REMARK   10  A    between atoms: C_39  and  C_43 
ROOT
HETATM    1  C   UNK N   1      21.103  17.602   3.321  0.00  0.00     0.066 A 
HETATM    2  C   UNK N   1      21.405  16.466   4.115  0.00  0.00     0.049 A 
HETATM    3  C   UNK N   1      20.455  17.407   2.092  0.00  0.00     0.020 A 
HETATM    4  C   UNK N   1      21.065  15.182   3.669  0.00  0.00     0.030 A 
HETATM    5  C   UNK N   1      20.114  16.125   1.656  0.00  0.00     0.001 A 
HETATM    6  C   UNK N   1      20.424  15.014   2.441  0.00  0.00     0.002 A 
ENDROOT
BRANCH   1   7
HETATM    7  C   UNK N   1      21.524  18.987   3.750  0.00  0.00     0.295 C 
HETATM    8  O   UNK N   1      20.972  19.515   4.701  0.00  0.00    -0.259 OA
BRANCH   7   9
HETATM    9  O   UNK N   1      22.521  19.685   3.143  0.00  0.00    -0.316 OA
BRANCH   9  10
HETATM   10  C   UNK N   1      23.762  19.923   3.682  0.00  0.00     0.198 C 
BRANCH  10  11
HETATM   11  C   UNK N   1      24.662  18.702   3.484  0.00  0.00     0.143 C 
BRANCH  11  12
HETATM   12  N   UNK N   1      25.487  18.377   4.649  0.00  0.00    -0.407 N 
HETATM   13  C   UNK N   1      26.364  19.476   5.075  0.00  0.00     0.136 C 
HETATM   14  C   UNK N   1      27.768  19.347   4.505  0.00  0.00     0.142 C 
HETATM   15  N   UNK N   1      28.236  18.016   4.788  0.00  0.00    -0.378 N 
HETATM   16  C   UNK N   1      27.505  16.928   4.194  0.00  0.00     0.142 C 
HETATM   17  C   UNK N   1      26.047  17.008   4.672  0.00  0.00     0.136 C 
BRANCH  15  18
HETATM   18  C   UNK N   1      29.183  17.789   5.830  0.00  0.00     0.030 A 
HETATM   19  C   UNK N   1      28.810  17.998   7.165  0.00  0.00     0.045 A 
HETATM   20  C   UNK N   1      29.679  17.688   8.213  0.00  0.00     0.050 A 
HETATM   21  C   UNK N   1      30.953  17.181   7.923  0.00  0.00     0.016 A 
HETATM   22  C   UNK N   1      31.345  16.983   6.595  0.00  0.00     0.003 A 
HETATM   23  C   UNK N   1      30.458  17.271   5.552  0.00  0.00     0.029 A 
BRANCH  20  24
HETATM   24  C   UNK N   1      29.209  17.865   9.625  0.00  0.00     0.417 C 
HETATM   25  F   UNK N   1      29.840  18.965  10.180  0.00  0.00    -0.166 F 
HETATM   26  F   UNK N   1      27.840  18.066   9.676  0.00  0.00    -0.166 F 
HETATM   27  F   UNK N   1      29.527  16.742  10.366  0.00  0.00    -0.166 F 
ENDBRANCH  20  24
ENDBRANCH  15  18
ENDBRANCH  11  12
ENDBRANCH  10  11
ENDBRANCH   9  10
ENDBRANCH   7   9
ENDBRANCH   1   7
BRANCH   2  28
HETATM   28  N   UNK N   1      22.027  16.647   5.371  0.00  0.00    -0.355 N 
HETATM   29  H   UNK N   1      22.957  16.969   5.381  0.00  0.00     0.166 HD
BRANCH  28  30
HETATM   30  C   UNK N   1      21.400  16.395   6.615  0.00  0.00     0.046 A 
HETATM   31  C   UNK N   1      21.939  15.410   7.449  0.00  0.00     0.017 A 
HETATM   32  C   UNK N   1      21.259  15.055   8.630  0.00  0.00     0.045 A 
HETATM   33  C   UNK N   1      23.115  14.735   7.093  0.00  0.00     0.017 A 
HETATM   34  N   UNK N   1      20.107  15.694   8.969  0.00  0.00    -0.365 N 
HETATM   35  C   UNK N   1      21.749  14.013   9.426  0.00  0.00     0.046 A 
HETATM   36  C   UNK N   1      19.576  16.666   8.176  0.00  0.00     0.090 A 
ATOM     37  HN  UNK N   1      19.630  15.438   9.833  1.00  0.00     0.165 HD
HETATM   38  C   UNK N   1      20.199  17.019   6.976  0.00  0.00     0.047 A 
HETATM   39  C   UNK N   1      22.916  13.325   9.051  0.00  0.00     0.050 A 
HETATM   40  C   UNK N   1      23.601  13.701   7.891  0.00  0.00     0.017 A 
BRANCH  39  41
HETATM   41  C   UNK N   1      23.425  12.167   9.857  0.00  0.00     0.417 C 
HETATM   42  F   UNK N   1      22.953  10.988   9.307  0.00  0.00    -0.166 F 
HETATM   43  F   UNK N   1      24.807  12.155   9.832  0.00  0.00    -0.166 F 
HETATM   44  F   UNK N   1      22.999  12.246  11.172  0.00  0.00    -0.166 F 
ENDBRANCH  39  41
ENDBRANCH  28  30
ENDBRANCH   2  28
TORSDOF 10
ENDMDL
MODEL 6
REMARK VINA RESULT:      -8.1      2.136      2.733
REMARK  10 active torsions:
REMARK  status: ('A' for Active; 'I' for Inactive)
REMARK    1  A    between atoms: O_7  and  C_20 
REMARK    2  A    between atoms: O_7  and  C_27 
REMARK    3  A    between atoms: N_9  and  C_18 
REMARK    4  A    between atoms: N_10  and  C_19 
REMARK    5  A    between atoms: N_11  and  C_29 
REMARK    6  A    between atoms: N_11  and  C_30 
REMARK    7  A    between atoms: C_18  and  C_20 
REMARK    8  A    between atoms: C_23  and  C_26 
REMARK    9  A    between atoms: C_27  and  C_28 
REMARK   10  A    between atoms: C_39  and  C_43 
ROOT
HETATM    1  C   UNK N   1      22.453  12.853   9.292  0.00  0.00     0.066 A 
HETATM    2  C   UNK N   1      23.843  13.088   9.132  0.00  0.00     0.049 A 
HETATM    3  C   UNK N   1      22.009  12.240  10.474  0.00  0.00     0.020 A 
HETATM    4  C   UNK N   1      24.744  12.707  10.134  0.00  0.00     0.030 A 
HETATM    5  C   UNK N   1      22.913  11.867  11.471  0.00  0.00     0.001 A 
HETATM    6  C   UNK N   1      24.278  12.096  11.300  0.00  0.00     0.002 A 
ENDROOT
BRANCH   1   7
HETATM    7  C   UNK N   1      21.473  13.191   8.194  0.00  0.00     0.295 C 
HETATM    8  O   UNK N   1      20.838  12.297   7.660  0.00  0.00    -0.259 OA
BRANCH   7   9
HETATM    9  O   UNK N   1      21.234  14.462   7.775  0.00  0.00    -0.316 OA
BRANCH   9  10
HETATM   10  C   UNK N   1      20.843  14.816   6.506  0.00  0.00     0.198 C 
BRANCH  10  11
HETATM   11  C   UNK N   1      20.550  16.316   6.448  0.00  0.00     0.143 C 
BRANCH  11  12
HETATM   12  N   UNK N   1      21.749  17.155   6.408  0.00  0.00    -0.407 N 
HETATM   13  C   UNK N   1      21.503  18.508   5.891  0.00  0.00     0.136 C 
HETATM   14  C   UNK N   1      21.819  18.625   4.408  0.00  0.00     0.142 C 
HETATM   15  N   UNK N   1      23.140  18.096   4.198  0.00  0.00    -0.378 N 
HETATM   16  C   UNK N   1      23.341  16.703   4.500  0.00  0.00     0.142 C 
HETATM   17  C   UNK N   1      22.990  16.474   5.978  0.00  0.00     0.136 C 
BRANCH  15  18
HETATM   18  C   UNK N   1      24.245  18.973   3.987  0.00  0.00     0.030 A 
HETATM   19  C   UNK N   1      25.318  18.970   4.890  0.00  0.00     0.045 A 
HETATM   20  C   UNK N   1      26.458  19.740   4.657  0.00  0.00     0.050 A 
HETATM   21  C   UNK N   1      26.522  20.547   3.513  0.00  0.00     0.016 A 
HETATM   22  C   UNK N   1      25.453  20.572   2.611  0.00  0.00     0.003 A 
HETATM   23  C   UNK N   1      24.324  19.777   2.838  0.00  0.00     0.029 A 
BRANCH  20  24
HETATM   24  C   UNK N   1      27.606  19.650   5.617  0.00  0.00     0.417 C 
HETATM   25  F   UNK N   1      28.717  19.162   4.952  0.00  0.00    -0.166 F 
HETATM   26  F   UNK N   1      27.915  20.890   6.148  0.00  0.00    -0.166 F 
HETATM   27  F   UNK N   1      27.283  18.786   6.648  0.00  0.00    -0.166 F 
ENDBRANCH  20  24
ENDBRANCH  15  18
ENDBRANCH  11  12
ENDBRANCH  10  11
ENDBRANCH   9  10
ENDBRANCH   7   9
ENDBRANCH   1   7
BRANCH   2  28
HETATM   28  N   UNK N   1      24.302  13.735   7.963  0.00  0.00    -0.355 N 
HETATM   29  H   UNK N   1      24.181  14.711   7.899  0.00  0.00     0.166 HD
BRANCH  28  30
HETATM   30  C   UNK N   1      24.924  13.073   6.878  0.00  0.00     0.046 A 
HETATM   31  C   UNK N   1      25.886  13.765   6.133  0.00  0.00     0.017 A 
HETATM   32  C   UNK N   1      26.423  13.171   4.975  0.00  0.00     0.045 A 
HETATM   33  C   UNK N   1      26.276  15.061   6.495  0.00  0.00     0.017 A 
HETATM   34  N   UNK N   1      26.032  11.920   4.609  0.00  0.00    -0.365 N 
HETATM   35  C   UNK N   1      27.323  13.890   4.180  0.00  0.00     0.046 A 
HETATM   36  C   UNK N   1      25.109  11.226   5.331  0.00  0.00     0.090 A 
ATOM     37  HN  UNK N   1      26.437  11.494   3.776  1.00  0.00     0.165 HD
HETATM   38  C   UNK N   1      24.522  11.797   6.463  0.00  0.00     0.047 A 
HETATM   39  C   UNK N   1      27.692  15.199   4.537  0.00  0.00     0.050 A 
HETATM   40  C   UNK N   1      27.175  15.772   5.703  0.00  0.00     0.017 A 
BRANCH  39  41
HETATM   41  C   UNK N   1      28.608  16.009   3.668  0.00  0.00     0.417 C 
HETATM   42  F   UNK N   1      27.917  17.103   3.176  0.00  0.00    -0.166 F 
HETATM   43  F   UNK N   1      29.683  16.454   4.413  0.00  0.00    -0.166 F 
HETATM   44  F   UNK N   1      29.076  15.263   2.601  0.00  0.00    -0.166 F 
ENDBRANCH  39  41
ENDBRANCH  28  30
ENDBRANCH   2  28
TORSDOF 10
ENDMDL
MODEL 7
REMARK VINA RESULT:      -8.0      5.792      9.064
REMARK  10 active torsions:
REMARK  status: ('A' for Active; 'I' for Inactive)
REMARK    1  A    between atoms: O_7  and  C_20 
REMARK    2  A    between atoms: O_7  and  C_27 
REMARK    3  A    between atoms: N_9  and  C_18 
REMARK    4  A    between atoms: N_10  and  C_19 
REMARK    5  A    between atoms: N_11  and  C_29 
REMARK    6  A    between atoms: N_11  and  C_30 
REMARK    7  A    between atoms: C_18  and  C_20 
REMARK    8  A    between atoms: C_23  and  C_26 
REMARK    9  A    between atoms: C_27  and  C_28 
REMARK   10  A    between atoms: C_39  and  C_43 
ROOT
HETATM    1  C   UNK N   1      26.276  17.862   4.333  0.00  0.00     0.066 A 
HETATM    2  C   UNK N   1      27.461  18.265   5.001  0.00  0.00     0.049 A 
HETATM    3  C   UNK N   1      25.539  18.831   3.635  0.00  0.00     0.020 A 
HETATM    4  C   UNK N   1      27.873  19.603   4.964  0.00  0.00     0.030 A 
HETATM    5  C   UNK N   1      25.958  20.162   3.598  0.00  0.00     0.001 A 
HETATM    6  C   UNK N   1      27.121  20.549   4.265  0.00  0.00     0.002 A 
ENDROOT
BRANCH   1   7
HETATM    7  C   UNK N   1      25.776  16.440   4.420  0.00  0.00     0.295 C 
HETATM    8  O   UNK N   1      25.835  15.847   5.484  0.00  0.00    -0.259 OA
BRANCH   7   9
HETATM    9  O   UNK N   1      25.231  15.776   3.366  0.00  0.00    -0.316 OA
BRANCH   9  10
HETATM   10  C   UNK N   1      25.906  15.409   2.227  0.00  0.00     0.198 C 
BRANCH  10  11
HETATM   11  C   UNK N   1      26.161  13.901   2.233  0.00  0.00     0.143 C 
BRANCH  11  12
HETATM   12  N   UNK N   1      27.578  13.538   2.290  0.00  0.00    -0.407 N 
HETATM   13  C   UNK N   1      27.967  12.881   3.545  0.00  0.00     0.136 C 
HETATM   14  C   UNK N   1      28.556  13.859   4.550  0.00  0.00     0.142 C 
HETATM   15  N   UNK N   1      29.585  14.609   3.880  0.00  0.00    -0.378 N 
HETATM   16  C   UNK N   1      29.177  15.431   2.772  0.00  0.00     0.142 C 
HETATM   17  C   UNK N   1      28.514  14.530   1.719  0.00  0.00     0.136 C 
BRANCH  15  18
HETATM   18  C   UNK N   1      30.961  14.319   4.118  0.00  0.00     0.030 A 
HETATM   19  C   UNK N   1      31.403  14.074   5.426  0.00  0.00     0.045 A 
HETATM   20  C   UNK N   1      32.720  13.688   5.681  0.00  0.00     0.050 A 
HETATM   21  C   UNK N   1      33.620  13.564   4.615  0.00  0.00     0.016 A 
HETATM   22  C   UNK N   1      33.198  13.821   3.306  0.00  0.00     0.003 A 
HETATM   23  C   UNK N   1      31.869  14.182   3.056  0.00  0.00     0.029 A 
BRANCH  20  24
HETATM   24  C   UNK N   1      33.125  13.371   7.090  0.00  0.00     0.417 C 
HETATM   25  F   UNK N   1      34.440  13.758   7.281  0.00  0.00    -0.166 F 
HETATM   26  F   UNK N   1      32.329  14.039   8.003  0.00  0.00    -0.166 F 
HETATM   27  F   UNK N   1      33.020  12.010   7.310  0.00  0.00    -0.166 F 
ENDBRANCH  20  24
ENDBRANCH  15  18
ENDBRANCH  11  12
ENDBRANCH  10  11
ENDBRANCH   9  10
ENDBRANCH   7   9
ENDBRANCH   1   7
BRANCH   2  28
HETATM   28  N   UNK N   1      28.233  17.295   5.680  0.00  0.00    -0.355 N 
HETATM   29  H   UNK N   1      28.419  16.447   5.215  0.00  0.00     0.166 HD
BRANCH  28  30
HETATM   30  C   UNK N   1      28.755  17.463   6.985  0.00  0.00     0.046 A 
HETATM   31  C   UNK N   1      30.144  17.464   7.155  0.00  0.00     0.017 A 
HETATM   32  C   UNK N   1      30.681  17.502   8.457  0.00  0.00     0.045 A 
HETATM   33  C   UNK N   1      31.001  17.370   6.050  0.00  0.00     0.017 A 
HETATM   34  N   UNK N   1      29.852  17.573   9.532  0.00  0.00    -0.365 N 
HETATM   35  C   UNK N   1      32.067  17.420   8.637  0.00  0.00     0.046 A 
HETATM   36  C   UNK N   1      28.498  17.589   9.384  0.00  0.00     0.090 A 
ATOM     37  HN  UNK N   1      30.252  17.614  10.469  1.00  0.00     0.165 HD
HETATM   38  C   UNK N   1      27.925  17.512   8.111  0.00  0.00     0.047 A 
HETATM   39  C   UNK N   1      32.920  17.302   7.526  0.00  0.00     0.050 A 
HETATM   40  C   UNK N   1      32.380  17.292   6.236  0.00  0.00     0.017 A 
BRANCH  39  41
HETATM   41  C   UNK N   1      34.402  17.152   7.699  0.00  0.00     0.417 C 
HETATM   42  F   UNK N   1      34.935  16.566   6.565  0.00  0.00    -0.166 F 
HETATM   43  F   UNK N   1      34.978  18.396   7.878  0.00  0.00    -0.166 F 
HETATM   44  F   UNK N   1      34.700  16.355   8.792  0.00  0.00    -0.166 F 
ENDBRANCH  39  41
ENDBRANCH  28  30
ENDBRANCH   2  28
TORSDOF 10
ENDMDL
MODEL 8
REMARK VINA RESULT:      -8.0      2.631      4.222
REMARK  10 active torsions:
REMARK  status: ('A' for Active; 'I' for Inactive)
REMARK    1  A    between atoms: O_7  and  C_20 
REMARK    2  A    between atoms: O_7  and  C_27 
REMARK    3  A    between atoms: N_9  and  C_18 
REMARK    4  A    between atoms: N_10  and  C_19 
REMARK    5  A    between atoms: N_11  and  C_29 
REMARK    6  A    between atoms: N_11  and  C_30 
REMARK    7  A    between atoms: C_18  and  C_20 
REMARK    8  A    between atoms: C_23  and  C_26 
REMARK    9  A    between atoms: C_27  and  C_28 
REMARK   10  A    between atoms: C_39  and  C_43 
ROOT
HETATM    1  C   UNK N   1      23.642  12.582   9.665  0.00  0.00     0.066 A 
HETATM    2  C   UNK N   1      22.224  12.546   9.657  0.00  0.00     0.049 A 
HETATM    3  C   UNK N   1      24.312  12.289  10.863  0.00  0.00     0.020 A 
HETATM    4  C   UNK N   1      21.518  12.231  10.824  0.00  0.00     0.030 A 
HETATM    5  C   UNK N   1      23.602  11.970  12.022  0.00  0.00     0.001 A 
HETATM    6  C   UNK N   1      22.207  11.946  12.004  0.00  0.00     0.002 A 
ENDROOT
BRANCH   1   7
HETATM    7  C   UNK N   1      24.420  12.989   8.436  0.00  0.00     0.295 C 
HETATM    8  O   UNK N   1      24.875  14.118   8.361  0.00  0.00    -0.259 OA
BRANCH   7   9
HETATM    9  O   UNK N   1      24.668  12.146   7.399  0.00  0.00    -0.316 OA
BRANCH   9  10
HETATM   10  C   UNK N   1      24.413  12.421   6.077  0.00  0.00     0.198 C 
BRANCH  10  11
HETATM   11  C   UNK N   1      25.616  13.123   5.446  0.00  0.00     0.143 C 
BRANCH  11  12
HETATM   12  N   UNK N   1      25.258  14.212   4.535  0.00  0.00    -0.407 N 
HETATM   13  C   UNK N   1      26.341  15.183   4.324  0.00  0.00     0.136 C 
HETATM   14  C   UNK N   1      26.215  16.395   5.234  0.00  0.00     0.142 C 
HETATM   15  N   UNK N   1      24.874  16.902   5.105  0.00  0.00    -0.378 N 
HETATM   16  C   UNK N   1      23.805  16.030   5.516  0.00  0.00     0.142 C 
HETATM   17  C   UNK N   1      23.885  14.742   4.683  0.00  0.00     0.136 C 
BRANCH  15  18
HETATM   18  C   UNK N   1      24.617  18.079   4.342  0.00  0.00     0.030 A 
HETATM   19  C   UNK N   1      23.297  18.419   4.014  0.00  0.00     0.045 A 
HETATM   20  C   UNK N   1      23.003  19.615   3.358  0.00  0.00     0.050 A 
HETATM   21  C   UNK N   1      24.047  20.480   3.003  0.00  0.00     0.016 A 
HETATM   22  C   UNK N   1      25.370  20.146   3.310  0.00  0.00     0.003 A 
HETATM   23  C   UNK N   1      25.654  18.958   3.991  0.00  0.00     0.029 A 
BRANCH  20  24
HETATM   24  C   UNK N   1      21.569  19.965   3.090  0.00  0.00     0.417 C 
HETATM   25  F   UNK N   1      21.494  21.284   2.677  0.00  0.00    -0.166 F 
HETATM   26  F   UNK N   1      21.033  19.159   2.101  0.00  0.00    -0.166 F 
HETATM   27  F   UNK N   1      20.829  19.812   4.247  0.00  0.00    -0.166 F 
ENDBRANCH  20  24
ENDBRANCH  15  18
ENDBRANCH  11  12
ENDBRANCH  10  11
ENDBRANCH   9  10
ENDBRANCH   7   9
ENDBRANCH   1   7
BRANCH   2  28
HETATM   28  N   UNK N   1      21.535  12.805   8.450  0.00  0.00    -0.355 N 
HETATM   29  H   UNK N   1      21.417  12.059   7.818  0.00  0.00     0.166 HD
BRANCH  28  30
HETATM   30  C   UNK N   1      21.004  14.067   8.091  0.00  0.00     0.046 A 
HETATM   31  C   UNK N   1      20.683  14.301   6.750  0.00  0.00     0.017 A 
HETATM   32  C   UNK N   1      20.275  15.589   6.351  0.00  0.00     0.045 A 
HETATM   33  C   UNK N   1      20.818  13.286   5.793  0.00  0.00     0.017 A 
HETATM   34  N   UNK N   1      20.162  16.582   7.273  0.00  0.00    -0.365 N 
HETATM   35  C   UNK N   1      20.032  15.851   4.997  0.00  0.00     0.046 A 
HETATM   36  C   UNK N   1      20.455  16.368   8.586  0.00  0.00     0.090 A 
ATOM     37  HN  UNK N   1      19.852  17.507   6.976  1.00  0.00     0.165 HD
HETATM   38  C   UNK N   1      20.902  15.115   9.015  0.00  0.00     0.047 A 
HETATM   39  C   UNK N   1      20.192  14.834   4.040  0.00  0.00     0.050 A 
HETATM   40  C   UNK N   1      20.572  13.552   4.448  0.00  0.00     0.017 A 
BRANCH  39  41
HETATM   41  C   UNK N   1      19.996  15.109   2.578  0.00  0.00     0.417 C 
HETATM   42  F   UNK N   1      21.135  14.732   1.888  0.00  0.00    -0.166 F 
HETATM   43  F   UNK N   1      18.921  14.378   2.108  0.00  0.00    -0.166 F 
HETATM   44  F   UNK N   1      19.762  16.454   2.349  0.00  0.00    -0.166 F 
ENDBRANCH  39  41
ENDBRANCH  28  30
ENDBRANCH   2  28
TORSDOF 10
ENDMDL
MODEL 9
REMARK VINA RESULT:      -7.9      4.278      7.346
REMARK  10 active torsions:
REMARK  status: ('A' for Active; 'I' for Inactive)
REMARK    1  A    between atoms: O_7  and  C_20 
REMARK    2  A    between atoms: O_7  and  C_27 
REMARK    3  A    between atoms: N_9  and  C_18 
REMARK    4  A    between atoms: N_10  and  C_19 
REMARK    5  A    between atoms: N_11  and  C_29 
REMARK    6  A    between atoms: N_11  and  C_30 
REMARK    7  A    between atoms: C_18  and  C_20 
REMARK    8  A    between atoms: C_23  and  C_26 
REMARK    9  A    between atoms: C_27  and  C_28 
REMARK   10  A    between atoms: C_39  and  C_43 
ROOT
HETATM    1  C   UNK N   1      21.331  17.237   3.592  0.00  0.00     0.066 A 
HETATM    2  C   UNK N   1      21.367  16.065   4.391  0.00  0.00     0.049 A 
HETATM    3  C   UNK N   1      20.726  17.167   2.329  0.00  0.00     0.020 A 
HETATM    4  C   UNK N   1      20.814  14.869   3.917  0.00  0.00     0.030 A 
HETATM    5  C   UNK N   1      20.171  15.973   1.864  0.00  0.00     0.001 A 
HETATM    6  C   UNK N   1      20.220  14.825   2.655  0.00  0.00     0.002 A 
ENDROOT
BRANCH   1   7
HETATM    7  C   UNK N   1      21.985  18.517   4.055  0.00  0.00     0.295 C 
HETATM    8  O   UNK N   1      21.383  19.258   4.816  0.00  0.00    -0.259 OA
BRANCH   7   9
HETATM    9  O   UNK N   1      23.240  18.888   3.688  0.00  0.00    -0.316 OA
BRANCH   9  10
HETATM   10  C   UNK N   1      24.370  18.720   4.452  0.00  0.00     0.198 C 
BRANCH  10  11
HETATM   11  C   UNK N   1      24.993  17.352   4.171  0.00  0.00     0.143 C 
BRANCH  11  12
HETATM   12  N   UNK N   1      26.452  17.325   4.299  0.00  0.00    -0.407 N 
HETATM   13  C   UNK N   1      26.964  16.105   4.937  0.00  0.00     0.136 C 
HETATM   14  C   UNK N   1      27.204  16.291   6.427  0.00  0.00     0.142 C 
HETATM   15  N   UNK N   1      27.999  17.479   6.598  0.00  0.00    -0.378 N 
HETATM   16  C   UNK N   1      27.414  18.722   6.170  0.00  0.00     0.142 C 
HETATM   17  C   UNK N   1      27.083  18.609   4.674  0.00  0.00     0.136 C 
BRANCH  15  18
HETATM   18  C   UNK N   1      29.389  17.380   6.900  0.00  0.00     0.030 A 
HETATM   19  C   UNK N   1      30.320  17.264   5.858  0.00  0.00     0.045 A 
HETATM   20  C   UNK N   1      31.692  17.269   6.113  0.00  0.00     0.050 A 
HETATM   21  C   UNK N   1      32.146  17.370   7.435  0.00  0.00     0.016 A 
HETATM   22  C   UNK N   1      31.228  17.470   8.487  0.00  0.00     0.003 A 
HETATM   23  C   UNK N   1      29.855  17.491   8.220  0.00  0.00     0.029 A 
BRANCH  20  24
HETATM   24  C   UNK N   1      32.647  17.211   4.959  0.00  0.00     0.417 C 
HETATM   25  F   UNK N   1      33.906  17.587   5.392  0.00  0.00    -0.166 F 
HETATM   26  F   UNK N   1      32.722  15.933   4.433  0.00  0.00    -0.166 F 
HETATM   27  F   UNK N   1      32.233  18.083   3.968  0.00  0.00    -0.166 F 
ENDBRANCH  20  24
ENDBRANCH  15  18
ENDBRANCH  11  12
ENDBRANCH  10  11
ENDBRANCH   9  10
ENDBRANCH   7   9
ENDBRANCH   1   7
BRANCH   2  28
HETATM   28  N   UNK N   1      21.944  16.127   5.680  0.00  0.00    -0.355 N 
HETATM   29  H   UNK N   1      22.920  16.239   5.743  0.00  0.00     0.166 HD
BRANCH  28  30
HETATM   30  C   UNK N   1      21.209  16.038   6.887  0.00  0.00     0.046 A 
HETATM   31  C   UNK N   1      21.613  15.107   7.850  0.00  0.00     0.017 A 
HETATM   32  C   UNK N   1      20.823  14.913   9.000  0.00  0.00     0.045 A 
HETATM   33  C   UNK N   1      22.762  14.328   7.655  0.00  0.00     0.017 A 
HETATM   34  N   UNK N   1      19.697  15.653   9.182  0.00  0.00    -0.365 N 
HETATM   35  C   UNK N   1      21.177  13.926   9.926  0.00  0.00     0.046 A 
HETATM   36  C   UNK N   1      19.296  16.575   8.263  0.00  0.00     0.090 A 
ATOM     37  HN  UNK N   1      19.140  15.514  10.025  1.00  0.00     0.165 HD
HETATM   38  C   UNK N   1      20.031  16.768   7.090  0.00  0.00     0.047 A 
HETATM   39  C   UNK N   1      22.318  13.132   9.713  0.00  0.00     0.050 A 
HETATM   40  C   UNK N   1      23.112  13.349   8.583  0.00  0.00     0.017 A 
BRANCH  39  41
HETATM   41  C   UNK N   1      22.682  12.029  10.661  0.00  0.00     0.417 C 
HETATM   42  F   UNK N   1      23.873  12.346  11.292  0.00  0.00    -0.166 F 
HETATM   43  F   UNK N   1      21.690  11.887  11.613  0.00  0.00    -0.166 F 
HETATM   44  F   UNK N   1      22.841  10.826   9.993  0.00  0.00    -0.166 F 
ENDBRANCH  39  41
ENDBRANCH  28  30
ENDBRANCH   2  28
TORSDOF 10
ENDMDL
