REMARK  3 active torsions:
REMARK  status: ('A' for Active; 'I' for Inactive)
REMARK    1  A    between atoms: C_11  and  O_1 
REMARK    2  A    between atoms: O_1  and  C_23 
REMARK    3  A    between atoms: C_23  and  C_24 
ROOT
HETATM    1  O   UNK N   1      -0.023  -3.914   0.913  0.00  0.00    -0.293 OA
HETATM    2  C   UNK N   1       6.467  -0.887  -0.274  0.00  0.00     0.001 C 
HETATM    3  C   UNK N   1       6.560   0.593   0.094  0.00  0.00    -0.013 C 
HETATM    4  C   UNK N   1       5.461  -1.595   0.653  0.00  0.00    -0.004 C 
HETATM    5  C   UNK N   1       4.041  -0.917   0.651  0.00  0.00     0.002 C 
HETATM    6  C   UNK N   1       3.003  -1.472  -0.375  0.00  0.00    -0.016 C 
HETATM    7  C   UNK N   1       5.218   1.241  -0.252  0.00  0.00     0.012 C 
HETATM    8  C   UNK N   1       4.119   0.639   0.658  0.00  0.00     0.007 C 
HETATM    9  C   UNK N   1       7.785   1.033  -0.707  0.00  0.00     0.140 C 
HETATM   10  C   UNK N   1       7.911  -1.362  -0.145  0.00  0.00     0.008 C 
HETATM   11  C   UNK N   1       5.412  -3.121   0.465  0.00  0.00     0.010 C 
HETATM   12  C   UNK N   1       8.766  -0.134  -0.493  0.00  0.00     0.034 C 
HETATM   13  C   UNK N   1       3.131  -2.994  -0.354  0.00  0.00    -0.068 C 
HETATM   14  C   UNK N   1       6.861   0.829   1.595  0.00  0.00     0.018 C 
HETATM   15  C   UNK N   1       4.473  -3.575  -0.642  0.00  0.00     0.035 C 
HETATM   16  C   UNK N   1       1.604  -0.971   0.089  0.00  0.00     0.022 C 
HETATM   17  C   UNK N   1       3.263  -0.986  -1.796  0.00  0.00     0.020 C 
HETATM   18  C   UNK N   1       0.458  -1.914  -0.254  0.00  0.00     0.084 C 
HETATM   19  C   UNK N   1       2.127  -3.812   0.003  0.00  0.00     0.053 C 
HETATM   20  C   UNK N   1       0.794  -3.269   0.275  0.00  0.00     0.149 C 
ENDROOT
BRANCH   9  21
HETATM   21  O   UNK N   1       8.272   2.239  -0.218  0.00  0.00    -0.315 OA
BRANCH  21  22
HETATM   22  C   UNK N   1       9.465   2.805  -0.535  0.00  0.00     0.258 C 
HETATM   23  O   UNK N   1      10.254   2.240  -1.282  0.00  0.00    -0.265 OA
BRANCH  22  24
HETATM   24  C   UNK N   1       9.819   4.132   0.055  0.00  0.00     0.106 C 
HETATM   25  C   UNK N   1      11.020   4.014   0.975  0.00  0.00     0.015 C 
ENDBRANCH  22  24
ENDBRANCH  21  22
ENDBRANCH   9  21
TORSDOF 3
