MODEL 1
REMARK VINA RESULT:      -7.1      0.000      0.000
REMARK  3 active torsions:
REMARK  status: ('A' for Active; 'I' for Inactive)
REMARK    1  A    between atoms: C_11  and  O_1 
REMARK    2  A    between atoms: O_1  and  C_23 
REMARK    3  A    between atoms: C_23  and  C_24 
ROOT
HETATM    1  O   UNK N   1      34.996  19.041   8.294  0.00  0.00    -0.293 OA
HETATM    2  C   UNK N   1      29.719  16.250   4.164  0.00  0.00     0.001 C 
HETATM    3  C   UNK N   1      28.317  16.347   4.764  0.00  0.00    -0.013 C 
HETATM    4  C   UNK N   1      30.573  17.443   4.632  0.00  0.00    -0.004 C 
HETATM    5  C   UNK N   1      30.632  17.579   6.199  0.00  0.00     0.002 C 
HETATM    6  C   UNK N   1      31.815  16.857   6.919  0.00  0.00    -0.016 C 
HETATM    7  C   UNK N   1      28.445  16.140   6.274  0.00  0.00     0.012 C 
HETATM    8  C   UNK N   1      29.254  17.316   6.876  0.00  0.00     0.007 C 
HETATM    9  C   UNK N   1      27.566  15.282   3.966  0.00  0.00     0.140 C 
HETATM   10  C   UNK N   1      29.445  16.199   2.664  0.00  0.00     0.008 C 
HETATM   11  C   UNK N   1      31.954  17.520   3.958  0.00  0.00     0.010 C 
HETATM   12  C   UNK N   1      28.079  15.509   2.532  0.00  0.00     0.034 C 
HETATM   13  C   UNK N   1      33.064  17.105   6.076  0.00  0.00    -0.068 C 
HETATM   14  C   UNK N   1      27.635  17.712   4.498  0.00  0.00     0.018 C 
HETATM   15  C   UNK N   1      33.023  16.686   4.646  0.00  0.00     0.035 C 
HETATM   16  C   UNK N   1      31.910  17.471   8.347  0.00  0.00     0.022 C 
HETATM   17  C   UNK N   1      31.602  15.352   7.034  0.00  0.00     0.020 C 
HETATM   18  C   UNK N   1      33.320  17.495   8.923  0.00  0.00     0.084 C 
HETATM   19  C   UNK N   1      34.142  17.763   6.534  0.00  0.00     0.053 C 
HETATM   20  C   UNK N   1      34.215  18.172   7.938  0.00  0.00     0.149 C 
ENDROOT
BRANCH   9  21
HETATM   21  O   UNK N   1      26.195  15.472   4.081  0.00  0.00    -0.315 OA
BRANCH  21  22
HETATM   22  C   UNK N   1      25.332  14.672   4.759  0.00  0.00     0.258 C 
HETATM   23  O   UNK N   1      25.036  13.561   4.337  0.00  0.00    -0.265 OA
BRANCH  22  24
HETATM   24  C   UNK N   1      24.727  15.171   6.031  0.00  0.00     0.106 C 
HETATM   25  C   UNK N   1      25.360  14.497   7.234  0.00  0.00     0.015 C 
ENDBRANCH  22  24
ENDBRANCH  21  22
ENDBRANCH   9  21
TORSDOF 3
ENDMDL
MODEL 2
REMARK VINA RESULT:      -6.8     11.201     14.453
REMARK  3 active torsions:
REMARK  status: ('A' for Active; 'I' for Inactive)
REMARK    1  A    between atoms: C_11  and  O_1 
REMARK    2  A    between atoms: O_1  and  C_23 
REMARK    3  A    between atoms: C_23  and  C_24 
ROOT
HETATM    1  O   UNK N   1      36.331  11.032  10.397  0.00  0.00    -0.293 OA
HETATM    2  C   UNK N   1      35.226  11.770  17.533  0.00  0.00     0.001 C 
HETATM    3  C   UNK N   1      35.240  10.461  18.322  0.00  0.00    -0.013 C 
HETATM    4  C   UNK N   1      36.171  11.661  16.321  0.00  0.00    -0.004 C 
HETATM    5  C   UNK N   1      35.841  10.433  15.394  0.00  0.00     0.002 C 
HETATM    6  C   UNK N   1      34.862  10.698  14.206  0.00  0.00    -0.016 C 
HETATM    7  C   UNK N   1      34.594   9.386  17.445  0.00  0.00     0.012 C 
HETATM    8  C   UNK N   1      35.486   9.149  16.201  0.00  0.00     0.007 C 
HETATM    9  C   UNK N   1      34.506  10.865  19.601  0.00  0.00     0.140 C 
HETATM   10  C   UNK N   1      35.633  12.803  18.580  0.00  0.00     0.008 C 
HETATM   11  C   UNK N   1      36.347  12.981  15.552  0.00  0.00     0.010 C 
HETATM   12  C   UNK N   1      35.105  12.248  19.912  0.00  0.00     0.034 C 
HETATM   13  C   UNK N   1      35.260  12.041  13.596  0.00  0.00    -0.068 C 
HETATM   14  C   UNK N   1      36.666  10.002  18.714  0.00  0.00     0.018 C 
HETATM   15  C   UNK N   1      35.278  13.227  14.498  0.00  0.00     0.035 C 
HETATM   16  C   UNK N   1      35.026   9.506  13.218  0.00  0.00     0.022 C 
HETATM   17  C   UNK N   1      33.407  10.783  14.651  0.00  0.00     0.020 C 
HETATM   18  C   UNK N   1      34.786   9.869  11.758  0.00  0.00     0.084 C 
HETATM   19  C   UNK N   1      35.681  12.177  12.328  0.00  0.00     0.053 C 
HETATM   20  C   UNK N   1      35.658  11.031  11.416  0.00  0.00     0.149 C 
ENDROOT
BRANCH   9  21
HETATM   21  O   UNK N   1      34.747   9.938  20.607  0.00  0.00    -0.315 OA
BRANCH  21  22
HETATM   22  C   UNK N   1      33.909   8.941  20.991  0.00  0.00     0.258 C 
HETATM   23  O   UNK N   1      34.322   7.803  21.174  0.00  0.00    -0.265 OA
BRANCH  22  24
HETATM   24  C   UNK N   1      32.457   9.244  21.176  0.00  0.00     0.106 C 
HETATM   25  C   UNK N   1      31.613   8.498  20.159  0.00  0.00     0.015 C 
ENDBRANCH  22  24
ENDBRANCH  21  22
ENDBRANCH   9  21
TORSDOF 3
ENDMDL
MODEL 3
REMARK VINA RESULT:      -6.8     11.196     13.252
REMARK  3 active torsions:
REMARK  status: ('A' for Active; 'I' for Inactive)
REMARK    1  A    between atoms: C_11  and  O_1 
REMARK    2  A    between atoms: O_1  and  C_23 
REMARK    3  A    between atoms: C_23  and  C_24 
ROOT
HETATM    1  O   UNK N   1      34.777  19.364  -5.869  0.00  0.00    -0.293 OA
HETATM    2  C   UNK N   1      28.810  23.431  -5.128  0.00  0.00     0.001 C 
HETATM    3  C   UNK N   1      29.036  24.779  -4.445  0.00  0.00    -0.013 C 
HETATM    4  C   UNK N   1      30.073  23.023  -5.910  0.00  0.00    -0.004 C 
HETATM    5  C   UNK N   1      31.369  23.001  -5.018  0.00  0.00     0.002 C 
HETATM    6  C   UNK N   1      31.731  21.639  -4.345  0.00  0.00    -0.016 C 
HETATM    7  C   UNK N   1      30.095  24.578  -3.360  0.00  0.00     0.012 C 
HETATM    8  C   UNK N   1      31.440  24.205  -4.033  0.00  0.00     0.007 C 
HETATM    9  C   UNK N   1      27.620  25.136  -3.993  0.00  0.00     0.140 C 
HETATM   10  C   UNK N   1      27.572  23.684  -5.982  0.00  0.00     0.008 C 
HETATM   11  C   UNK N   1      29.892  21.754  -6.761  0.00  0.00     0.010 C 
HETATM   12  C   UNK N   1      26.766  24.740  -5.212  0.00  0.00     0.034 C 
HETATM   13  C   UNK N   1      31.497  20.552  -5.393  0.00  0.00    -0.068 C 
HETATM   14  C   UNK N   1      29.517  25.882  -5.421  0.00  0.00     0.018 C 
HETATM   15  C   UNK N   1      30.137  20.461  -5.997  0.00  0.00     0.035 C 
HETATM   16  C   UNK N   1      33.218  21.743  -3.896  0.00  0.00     0.022 C 
HETATM   17  C   UNK N   1      30.861  21.333  -3.131  0.00  0.00     0.020 C 
HETATM   18  C   UNK N   1      33.969  20.419  -3.913  0.00  0.00     0.084 C 
HETATM   19  C   UNK N   1      32.473  19.753  -5.855  0.00  0.00     0.053 C 
HETATM   20  C   UNK N   1      33.813  19.810  -5.267  0.00  0.00     0.149 C 
ENDROOT
BRANCH   9  21
HETATM   21  O   UNK N   1      27.536  26.491  -3.697  0.00  0.00    -0.315 OA
BRANCH  21  22
HETATM   22  C   UNK N   1      26.419  27.153  -3.300  0.00  0.00     0.258 C 
HETATM   23  O   UNK N   1      25.937  26.971  -2.189  0.00  0.00    -0.265 OA
BRANCH  22  24
HETATM   24  C   UNK N   1      25.764  28.106  -4.248  0.00  0.00     0.106 C 
HETATM   25  C   UNK N   1      26.685  28.438  -5.407  0.00  0.00     0.015 C 
ENDBRANCH  22  24
ENDBRANCH  21  22
ENDBRANCH   9  21
TORSDOF 3
ENDMDL
MODEL 4
REMARK VINA RESULT:      -6.8      2.930      4.767
REMARK  3 active torsions:
REMARK  status: ('A' for Active; 'I' for Inactive)
REMARK    1  A    between atoms: C_11  and  O_1 
REMARK    2  A    between atoms: O_1  and  C_23 
REMARK    3  A    between atoms: C_23  and  C_24 
ROOT
HETATM    1  O   UNK N   1      34.720  13.054   3.504  0.00  0.00    -0.293 OA
HETATM    2  C   UNK N   1      30.059  17.456   6.908  0.00  0.00     0.001 C 
HETATM    3  C   UNK N   1      28.842  17.863   6.079  0.00  0.00    -0.013 C 
HETATM    4  C   UNK N   1      30.525  16.046   6.497  0.00  0.00    -0.004 C 
HETATM    5  C   UNK N   1      30.816  15.920   4.956  0.00  0.00     0.002 C 
HETATM    6  C   UNK N   1      32.284  16.193   4.498  0.00  0.00    -0.016 C 
HETATM    7  C   UNK N   1      29.304  18.033   4.631  0.00  0.00     0.012 C 
HETATM    8  C   UNK N   1      29.758  16.658   4.083  0.00  0.00     0.007 C 
HETATM    9  C   UNK N   1      28.369  19.113   6.821  0.00  0.00     0.140 C 
HETATM   10  C   UNK N   1      29.552  17.578   8.342  0.00  0.00     0.008 C 
HETATM   11  C   UNK N   1      31.649  15.482   7.382  0.00  0.00     0.010 C 
HETATM   12  C   UNK N   1      28.504  18.700   8.298  0.00  0.00     0.034 C 
HETATM   13  C   UNK N   1      33.198  15.512   5.514  0.00  0.00    -0.068 C 
HETATM   14  C   UNK N   1      27.699  16.819   6.124  0.00  0.00     0.018 C 
HETATM   15  C   UNK N   1      33.045  15.899   6.945  0.00  0.00     0.035 C 
HETATM   16  C   UNK N   1      32.421  15.604   3.063  0.00  0.00     0.022 C 
HETATM   17  C   UNK N   1      32.623  17.678   4.464  0.00  0.00     0.020 C 
HETATM   18  C   UNK N   1      33.817  15.097   2.727  0.00  0.00     0.084 C 
HETATM   19  C   UNK N   1      34.051  14.525   5.192  0.00  0.00     0.053 C 
HETATM   20  C   UNK N   1      34.233  14.136   3.791  0.00  0.00     0.149 C 
ENDROOT
BRANCH   9  21
HETATM   21  O   UNK N   1      27.059  19.416   6.468  0.00  0.00    -0.315 OA
BRANCH  21  22
HETATM   22  C   UNK N   1      26.644  20.545   5.840  0.00  0.00     0.258 C 
HETATM   23  O   UNK N   1      26.312  21.537   6.477  0.00  0.00    -0.265 OA
BRANCH  22  24
HETATM   24  C   UNK N   1      26.577  20.564   4.346  0.00  0.00     0.106 C 
HETATM   25  C   UNK N   1      25.886  19.321   3.818  0.00  0.00     0.015 C 
ENDBRANCH  22  24
ENDBRANCH  21  22
ENDBRANCH   9  21
TORSDOF 3
ENDMDL
MODEL 5
REMARK VINA RESULT:      -6.8      8.473     12.016
REMARK  3 active torsions:
REMARK  status: ('A' for Active; 'I' for Inactive)
REMARK    1  A    between atoms: C_11  and  O_1 
REMARK    2  A    between atoms: O_1  and  C_23 
REMARK    3  A    between atoms: C_23  and  C_24 
ROOT
HETATM    1  O   UNK N   1      36.139  11.167  20.340  0.00  0.00    -0.293 OA
HETATM    2  C   UNK N   1      35.376  11.679  13.139  0.00  0.00     0.001 C 
HETATM    3  C   UNK N   1      35.963  12.948  12.522  0.00  0.00    -0.013 C 
HETATM    4  C   UNK N   1      36.193  11.275  14.381  0.00  0.00    -0.004 C 
HETATM    5  C   UNK N   1      36.303  12.428  15.446  0.00  0.00     0.002 C 
HETATM    6  C   UNK N   1      35.213  12.454  16.563  0.00  0.00    -0.016 C 
HETATM    7  C   UNK N   1      35.728  14.093  13.509  0.00  0.00     0.012 C 
HETATM    8  C   UNK N   1      36.544  13.824  14.796  0.00  0.00     0.007 C 
HETATM    9  C   UNK N   1      35.228  13.006  11.183  0.00  0.00     0.140 C 
HETATM   10  C   UNK N   1      35.422  10.685  11.983  0.00  0.00     0.008 C 
HETATM   11  C   UNK N   1      35.777   9.922  14.984  0.00  0.00     0.010 C 
HETATM   12  C   UNK N   1      35.257  11.539  10.717  0.00  0.00     0.034 C 
HETATM   13  C   UNK N   1      35.003  11.009  17.010  0.00  0.00    -0.068 C 
HETATM   14  C   UNK N   1      37.480  12.837  12.230  0.00  0.00     0.018 C 
HETATM   15  C   UNK N   1      34.621  10.015  15.967  0.00  0.00     0.035 C 
HETATM   16  C   UNK N   1      35.757  13.371  17.698  0.00  0.00     0.022 C 
HETATM   17  C   UNK N   1      33.880  13.005  16.071  0.00  0.00     0.020 C 
HETATM   18  C   UNK N   1      35.284  12.985  19.093  0.00  0.00     0.084 C 
HETATM   19  C   UNK N   1      35.240  10.585  18.263  0.00  0.00     0.053 C 
HETATM   20  C   UNK N   1      35.600  11.542  19.311  0.00  0.00     0.149 C 
ENDROOT
BRANCH   9  21
HETATM   21  O   UNK N   1      35.890  13.859  10.308  0.00  0.00    -0.315 OA
BRANCH  21  22
HETATM   22  C   UNK N   1      35.680  15.195  10.185  0.00  0.00     0.258 C 
HETATM   23  O   UNK N   1      36.516  16.004  10.567  0.00  0.00    -0.265 OA
BRANCH  22  24
HETATM   24  C   UNK N   1      34.398  15.677   9.586  0.00  0.00     0.106 C 
HETATM   25  C   UNK N   1      34.521  17.118   9.126  0.00  0.00     0.015 C 
ENDBRANCH  22  24
ENDBRANCH  21  22
ENDBRANCH   9  21
TORSDOF 3
ENDMDL
MODEL 6
REMARK VINA RESULT:      -6.8     12.577     14.962
REMARK  3 active torsions:
REMARK  status: ('A' for Active; 'I' for Inactive)
REMARK    1  A    between atoms: C_11  and  O_1 
REMARK    2  A    between atoms: O_1  and  C_23 
REMARK    3  A    between atoms: C_23  and  C_24 
ROOT
HETATM    1  O   UNK N   1      25.477  28.576  -3.960  0.00  0.00    -0.293 OA
HETATM    2  C   UNK N   1      29.024  22.454  -5.584  0.00  0.00     0.001 C 
HETATM    3  C   UNK N   1      29.290  22.245  -7.073  0.00  0.00    -0.013 C 
HETATM    4  C   UNK N   1      29.016  23.960  -5.260  0.00  0.00    -0.004 C 
HETATM    5  C   UNK N   1      27.996  24.773  -6.141  0.00  0.00     0.002 C 
HETATM    6  C   UNK N   1      26.562  24.962  -5.554  0.00  0.00    -0.016 C 
HETATM    7  C   UNK N   1      28.080  22.782  -7.840  0.00  0.00     0.012 C 
HETATM    8  C   UNK N   1      27.991  24.314  -7.629  0.00  0.00     0.007 C 
HETATM    9  C   UNK N   1      29.552  20.740  -7.131  0.00  0.00     0.140 C 
HETATM   10  C   UNK N   1      30.142  21.656  -4.921  0.00  0.00     0.008 C 
HETATM   11  C   UNK N   1      28.911  24.271  -3.757  0.00  0.00     0.010 C 
HETATM   12  C   UNK N   1      30.438  20.504  -5.894  0.00  0.00     0.034 C 
HETATM   13  C   UNK N   1      26.730  25.287  -4.071  0.00  0.00    -0.068 C 
HETATM   14  C   UNK N   1      30.565  22.971  -7.572  0.00  0.00     0.018 C 
HETATM   15  C   UNK N   1      27.483  24.310  -3.235  0.00  0.00     0.035 C 
HETATM   16  C   UNK N   1      25.898  26.117  -6.360  0.00  0.00     0.022 C 
HETATM   17  C   UNK N   1      25.705  23.708  -5.679  0.00  0.00     0.020 C 
HETATM   18  C   UNK N   1      24.893  26.938  -5.563  0.00  0.00     0.084 C 
HETATM   19  C   UNK N   1      26.320  26.441  -3.520  0.00  0.00     0.053 C 
HETATM   20  C   UNK N   1      25.562  27.411  -4.315  0.00  0.00     0.149 C 
ENDROOT
BRANCH   9  21
HETATM   21  O   UNK N   1      30.191  20.408  -8.319  0.00  0.00    -0.315 OA
BRANCH  21  22
HETATM   22  C   UNK N   1      29.977  19.286  -9.053  0.00  0.00     0.258 C 
HETATM   23  O   UNK N   1      30.031  18.175  -8.540  0.00  0.00    -0.265 OA
BRANCH  22  24
HETATM   24  C   UNK N   1      29.688  19.417 -10.513  0.00  0.00     0.106 C 
HETATM   25  C   UNK N   1      28.951  20.711 -10.806  0.00  0.00     0.015 C 
ENDBRANCH  22  24
ENDBRANCH  21  22
ENDBRANCH   9  21
TORSDOF 3
ENDMDL
MODEL 7
REMARK VINA RESULT:      -6.7      2.195      3.821
REMARK  3 active torsions:
REMARK  status: ('A' for Active; 'I' for Inactive)
REMARK    1  A    between atoms: C_11  and  O_1 
REMARK    2  A    between atoms: O_1  and  C_23 
REMARK    3  A    between atoms: C_23  and  C_24 
ROOT
HETATM    1  O   UNK N   1      35.778  14.367   8.008  0.00  0.00    -0.293 OA
HETATM    2  C   UNK N   1      29.623  17.903   6.489  0.00  0.00     0.001 C 
HETATM    3  C   UNK N   1      28.798  17.294   5.356  0.00  0.00    -0.013 C 
HETATM    4  C   UNK N   1      30.390  16.793   7.233  0.00  0.00    -0.004 C 
HETATM    5  C   UNK N   1      31.287  15.921   6.280  0.00  0.00     0.002 C 
HETATM    6  C   UNK N   1      32.767  16.383   6.097  0.00  0.00    -0.016 C 
HETATM    7  C   UNK N   1      29.775  16.753   4.311  0.00  0.00     0.012 C 
HETATM    8  C   UNK N   1      30.582  15.586   4.931  0.00  0.00     0.007 C 
HETATM    9  C   UNK N   1      27.911  18.472   4.953  0.00  0.00     0.140 C 
HETATM   10  C   UNK N   1      28.574  18.634   7.320  0.00  0.00     0.008 C 
HETATM   11  C   UNK N   1      31.128  17.286   8.489  0.00  0.00     0.010 C 
HETATM   12  C   UNK N   1      27.496  19.063   6.313  0.00  0.00     0.034 C 
HETATM   13  C   UNK N   1      33.278  16.789   7.478  0.00  0.00    -0.068 C 
HETATM   14  C   UNK N   1      27.876  16.141   5.827  0.00  0.00     0.018 C 
HETATM   15  C   UNK N   1      32.516  17.841   8.210  0.00  0.00     0.035 C 
HETATM   16  C   UNK N   1      33.541  15.175   5.492  0.00  0.00     0.022 C 
HETATM   17  C   UNK N   1      32.898  17.580   5.163  0.00  0.00     0.020 C 
HETATM   18  C   UNK N   1      35.007  15.107   5.898  0.00  0.00     0.084 C 
HETATM   19  C   UNK N   1      34.307  16.181   8.090  0.00  0.00     0.053 C 
HETATM   20  C   UNK N   1      35.082  15.156   7.388  0.00  0.00     0.149 C 
ENDROOT
BRANCH   9  21
HETATM   21  O   UNK N   1      26.826  18.025   4.209  0.00  0.00    -0.315 OA
BRANCH  21  22
HETATM   22  C   UNK N   1      25.711  18.742   3.915  0.00  0.00     0.258 C 
HETATM   23  O   UNK N   1      24.600  18.347   4.245  0.00  0.00    -0.265 OA
BRANCH  22  24
HETATM   24  C   UNK N   1      25.851  20.026   3.161  0.00  0.00     0.106 C 
HETATM   25  C   UNK N   1      24.496  20.548   2.722  0.00  0.00     0.015 C 
ENDBRANCH  22  24
ENDBRANCH  21  22
ENDBRANCH   9  21
TORSDOF 3
ENDMDL
MODEL 8
REMARK VINA RESULT:      -6.6      4.158      8.291
REMARK  3 active torsions:
REMARK  status: ('A' for Active; 'I' for Inactive)
REMARK    1  A    between atoms: C_11  and  O_1 
REMARK    2  A    between atoms: O_1  and  C_23 
REMARK    3  A    between atoms: C_23  and  C_24 
ROOT
HETATM    1  O   UNK N   1      32.383  16.950   2.432  0.00  0.00    -0.293 OA
HETATM    2  C   UNK N   1      34.305  15.771   9.331  0.00  0.00     0.001 C 
HETATM    3  C   UNK N   1      34.648  14.319   9.661  0.00  0.00    -0.013 C 
HETATM    4  C   UNK N   1      34.668  16.076   7.866  0.00  0.00    -0.004 C 
HETATM    5  C   UNK N   1      33.993  15.085   6.847  0.00  0.00     0.002 C 
HETATM    6  C   UNK N   1      32.611  15.518   6.262  0.00  0.00    -0.016 C 
HETATM    7  C   UNK N   1      33.705  13.426   8.853  0.00  0.00     0.012 C 
HETATM    8  C   UNK N   1      34.009  13.609   7.345  0.00  0.00     0.007 C 
HETATM    9  C   UNK N   1      34.503  14.307  11.183  0.00  0.00     0.140 C 
HETATM   10  C   UNK N   1      35.100  16.555  10.371  0.00  0.00     0.008 C 
HETATM   11  C   UNK N   1      34.506  17.556   7.481  0.00  0.00     0.010 C 
HETATM   12  C   UNK N   1      35.170  15.631  11.597  0.00  0.00     0.034 C 
HETATM   13  C   UNK N   1      32.716  17.006   5.937  0.00  0.00    -0.068 C 
HETATM   14  C   UNK N   1      36.112  13.947   9.318  0.00  0.00     0.018 C 
HETATM   15  C   UNK N   1      33.097  17.927   7.045  0.00  0.00     0.035 C 
HETATM   16  C   UNK N   1      32.361  14.634   5.005  0.00  0.00     0.022 C 
HETATM   17  C   UNK N   1      31.467  15.320   7.249  0.00  0.00     0.020 C 
HETATM   18  C   UNK N   1      31.540  15.315   3.918  0.00  0.00     0.084 C 
HETATM   19  C   UNK N   1      32.578  17.499   4.695  0.00  0.00     0.053 C 
HETATM   20  C   UNK N   1      32.188  16.619   3.591  0.00  0.00     0.149 C 
ENDROOT
BRANCH   9  21
HETATM   21  O   UNK N   1      35.142  13.195  11.718  0.00  0.00    -0.315 OA
BRANCH  21  22
HETATM   22  C   UNK N   1      35.389  12.974  13.034  0.00  0.00     0.258 C 
HETATM   23  O   UNK N   1      34.511  13.118  13.876  0.00  0.00    -0.265 OA
BRANCH  22  24
HETATM   24  C   UNK N   1      36.763  12.564  13.456  0.00  0.00     0.106 C 
HETATM   25  C   UNK N   1      37.553  12.022  12.279  0.00  0.00     0.015 C 
ENDBRANCH  22  24
ENDBRANCH  21  22
ENDBRANCH   9  21
TORSDOF 3
ENDMDL
MODEL 9
REMARK VINA RESULT:      -6.6     13.805     15.668
REMARK  3 active torsions:
REMARK  status: ('A' for Active; 'I' for Inactive)
REMARK    1  A    between atoms: C_11  and  O_1 
REMARK    2  A    between atoms: O_1  and  C_23 
REMARK    3  A    between atoms: C_23  and  C_24 
ROOT
HETATM    1  O   UNK N   1      26.422  30.159  -3.045  0.00  0.00    -0.293 OA
HETATM    2  C   UNK N   1      26.781  23.949  -6.787  0.00  0.00     0.001 C 
HETATM    3  C   UNK N   1      28.199  23.465  -7.090  0.00  0.00    -0.013 C 
HETATM    4  C   UNK N   1      26.765  24.717  -5.452  0.00  0.00    -0.004 C 
HETATM    5  C   UNK N   1      27.793  25.908  -5.415  0.00  0.00     0.002 C 
HETATM    6  C   UNK N   1      27.260  27.305  -5.862  0.00  0.00    -0.016 C 
HETATM    7  C   UNK N   1      29.060  24.700  -7.362  0.00  0.00     0.012 C 
HETATM    8  C   UNK N   1      29.160  25.540  -6.065  0.00  0.00     0.007 C 
HETATM    9  C   UNK N   1      27.954  22.503  -8.252  0.00  0.00     0.140 C 
HETATM   10  C   UNK N   1      25.970  22.657  -6.800  0.00  0.00     0.008 C 
HETATM   11  C   UNK N   1      25.354  25.111  -4.980  0.00  0.00     0.010 C 
HETATM   12  C   UNK N   1      26.692  21.744  -7.803  0.00  0.00     0.034 C 
HETATM   13  C   UNK N   1      25.871  27.467  -5.247  0.00  0.00    -0.068 C 
HETATM   14  C   UNK N   1      28.828  22.658  -5.927  0.00  0.00     0.018 C 
HETATM   15  C   UNK N   1      24.854  26.424  -5.563  0.00  0.00     0.035 C 
HETATM   16  C   UNK N   1      28.282  28.360  -5.346  0.00  0.00     0.022 C 
HETATM   17  C   UNK N   1      27.134  27.430  -7.376  0.00  0.00     0.020 C 
HETATM   18  C   UNK N   1      27.667  29.711  -5.006  0.00  0.00     0.084 C 
HETATM   19  C   UNK N   1      25.563  28.438  -4.371  0.00  0.00     0.053 C 
HETATM   20  C   UNK N   1      26.537  29.484  -4.056  0.00  0.00     0.149 C 
ENDROOT
BRANCH   9  21
HETATM   21  O   UNK N   1      29.050  21.667  -8.424  0.00  0.00    -0.315 OA
BRANCH  21  22
HETATM   22  C   UNK N   1      29.023  20.413  -8.944  0.00  0.00     0.258 C 
HETATM   23  O   UNK N   1      28.752  20.223 -10.123  0.00  0.00    -0.265 OA
BRANCH  22  24
HETATM   24  C   UNK N   1      29.313  19.250  -8.050  0.00  0.00     0.106 C 
HETATM   25  C   UNK N   1      30.414  19.586  -7.062  0.00  0.00     0.015 C 
ENDBRANCH  22  24
ENDBRANCH  21  22
ENDBRANCH   9  21
TORSDOF 3
ENDMDL
