MODEL 1
REMARK VINA RESULT:      -6.9      0.000      0.000
REMARK  22 active torsions:
REMARK  status: ('A' for Active; 'I' for Inactive)
REMARK    1  A    between atoms: C_20  and  O_1 
REMARK    2  A    between atoms: C_26  and  O_1 
REMARK    3  A    between atoms: C_21  and  O_2 
REMARK    4  A    between atoms: C_30  and  O_2 
REMARK    5  A    between atoms: C_27  and  O_4 
REMARK    6  A    between atoms: C_33  and  O_4 
REMARK    7  A    between atoms: C_23  and  O_5 
REMARK    8  A    between atoms: C_28  and  O_8 
REMARK    9  A    between atoms: C_32  and  O_9 
REMARK   10  A    between atoms: C_34  and  O_10 
REMARK   11  A    between atoms: C_37  and  O_11 
REMARK   12  A    between atoms: O_12  and  C_38 
REMARK   13  A    between atoms: C_39  and  O_13 
REMARK   14  A    between atoms: O_14  and  C_41 
REMARK   15  A    between atoms: C_22  and  N_15 
REMARK   16  A    between atoms: C_24  and  N_16 
REMARK   17  A    between atoms: C_31  and  N_17 
REMARK   18  A    between atoms: C_35  and  N_18 
REMARK   19  A    between atoms: N_19  and  C_42 
REMARK   20  A    between atoms: C_29  and  C_38 
REMARK   21  A    between atoms: C_36  and  C_41 
REMARK   22  A    between atoms: C_40  and  C_42 
ROOT
HETATM    1  C   UNK N   1      29.096  15.270   3.298  0.00  0.00     0.186 C 
HETATM    2  C   UNK N   1      27.983  16.334   3.336  0.00  0.00     0.178 C 
HETATM    3  C   UNK N   1      26.577  15.869   3.770  0.00  0.00     0.107 C 
HETATM    4  C   UNK N   1      28.574  14.100   2.450  0.00  0.00     0.172 C 
HETATM    5  C   UNK N   1      27.224  13.576   2.960  0.00  0.00     0.107 C 
HETATM    6  C   UNK N   1      26.162  14.678   2.910  0.00  0.00     0.054 C 
ENDROOT
BRANCH   1   7
HETATM    7  O   UNK N   1      29.399  14.859   4.613  0.00  0.00    -0.348 OA
BRANCH   7   8
HETATM    8  C   UNK N   1      30.749  14.441   4.776  0.00  0.00     0.292 C 
HETATM    9  O   UNK N   1      31.599  15.057   3.829  0.00  0.00    -0.348 OA
HETATM   10  C   UNK N   1      32.518  15.853   4.545  0.00  0.00     0.180 C 
HETATM   11  C   UNK N   1      32.163  15.768   6.022  0.00  0.00     0.189 C 
HETATM   12  C   UNK N   1      31.373  14.494   6.172  0.00  0.00     0.205 C 
BRANCH  10  13
HETATM   13  C   UNK N   1      32.474  17.285   4.017  0.00  0.00     0.198 C 
BRANCH  13  14
HETATM   14  O   UNK N   1      31.225  17.877   4.216  0.00  0.00    -0.398 OA
HETATM   15  H   UNK N   1      30.896  18.727   4.545  0.00  0.00     0.209 HD
ENDBRANCH  13  14
ENDBRANCH  10  13
BRANCH  11  16
HETATM   16  O   UNK N   1      33.215  16.013   6.949  0.00  0.00    -0.348 OA
BRANCH  16  17
HETATM   17  C   UNK N   1      32.705  16.210   8.260  0.00  0.00     0.285 C 
HETATM   18  O   UNK N   1      32.666  15.003   9.003  0.00  0.00    -0.350 OA
HETATM   19  C   UNK N   1      33.975  14.480   9.094  0.00  0.00     0.173 C 
HETATM   20  C   UNK N   1      34.844  15.366   9.990  0.00  0.00     0.179 C 
HETATM   21  C   UNK N   1      34.905  16.755   9.348  0.00  0.00     0.176 C 
HETATM   22  C   UNK N   1      33.494  17.273   9.043  0.00  0.00     0.161 C 
BRANCH  19  23
HETATM   23  C   UNK N   1      33.922  13.042   9.583  0.00  0.00     0.145 C 
BRANCH  23  24
HETATM   24  N   UNK N   1      32.697  12.409   9.128  0.00  0.00    -0.428 N 
HETATM   25  H   UNK N   1      32.118  12.470   8.290  0.00  0.00     0.150 HD
HETATM   26  H   UNK N   1      32.327  11.745   9.809  0.00  0.00     0.150 HD
ENDBRANCH  23  24
ENDBRANCH  19  23
BRANCH  20  27
HETATM   27  O   UNK N   1      34.292  15.439  11.274  0.00  0.00    -0.390 OA
HETATM   28  H   UNK N   1      34.452  15.743  12.181  0.00  0.00     0.210 HD
ENDBRANCH  20  27
BRANCH  21  29
HETATM   29  O   UNK N   1      35.592  17.644  10.175  0.00  0.00    -0.391 OA
HETATM   30  H   UNK N   1      35.621  17.539  11.140  0.00  0.00     0.210 HD
ENDBRANCH  21  29
BRANCH  22  31
HETATM   31  N   UNK N   1      33.555  18.522   8.302  0.00  0.00    -0.420 N 
HETATM   32  H   UNK N   1      34.307  18.942   7.755  0.00  0.00     0.150 HD
HETATM   33  H   UNK N   1      32.697  19.072   8.334  0.00  0.00     0.150 HD
ENDBRANCH  22  31
ENDBRANCH  16  17
ENDBRANCH  11  16
BRANCH  12  34
HETATM   34  O   UNK N   1      32.228  13.399   6.303  0.00  0.00    -0.388 OA
HETATM   35  H   UNK N   1      32.482  12.709   5.670  0.00  0.00     0.210 HD
ENDBRANCH  12  34
ENDBRANCH   7   8
ENDBRANCH   1   7
BRANCH   2  36
HETATM   36  O   UNK N   1      28.329  17.700   3.461  0.00  0.00    -0.349 OA
BRANCH  36  37
HETATM   37  C   UNK N   1      27.887  18.310   4.664  0.00  0.00     0.285 C 
HETATM   38  O   UNK N   1      28.598  17.872   5.791  0.00  0.00    -0.349 OA
HETATM   39  C   UNK N   1      27.813  18.155   6.925  0.00  0.00     0.179 C 
HETATM   40  C   UNK N   1      27.733  19.676   7.123  0.00  0.00     0.180 C 
HETATM   41  C   UNK N   1      27.089  20.298   5.884  0.00  0.00     0.176 C 
HETATM   42  C   UNK N   1      27.794  19.837   4.608  0.00  0.00     0.161 C 
BRANCH  39  43
HETATM   43  C   UNK N   1      28.452  17.504   8.142  0.00  0.00     0.198 C 
BRANCH  43  44
HETATM   44  O   UNK N   1      27.498  17.316   9.142  0.00  0.00    -0.398 OA
HETATM   45  H   UNK N   1      26.714  16.748   9.203  0.00  0.00     0.209 HD
ENDBRANCH  43  44
ENDBRANCH  39  43
BRANCH  40  46
HETATM   46  O   UNK N   1      26.958  19.974   8.248  0.00  0.00    -0.390 OA
HETATM   47  H   UNK N   1      27.229  19.762   9.155  0.00  0.00     0.210 HD
ENDBRANCH  40  46
BRANCH  41  48
HETATM   48  O   UNK N   1      27.110  21.691   5.973  0.00  0.00    -0.391 OA
HETATM   49  H   UNK N   1      27.832  22.329   6.082  0.00  0.00     0.210 HD
ENDBRANCH  41  48
BRANCH  42  50
HETATM   50  N   UNK N   1      27.021  20.251   3.450  0.00  0.00    -0.420 N 
HETATM   51  H   UNK N   1      26.089  20.039   3.094  0.00  0.00     0.150 HD
HETATM   52  H   UNK N   1      27.527  20.907   2.856  0.00  0.00     0.150 HD
ENDBRANCH  42  50
ENDBRANCH  36  37
ENDBRANCH   2  36
BRANCH   4  53
HETATM   53  O   UNK N   1      28.480  14.483   1.109  0.00  0.00    -0.391 OA
HETATM   54  H   UNK N   1      28.213  14.489   0.177  0.00  0.00     0.210 HD
ENDBRANCH   4  53
BRANCH   3  55
HETATM   55  N   UNK N   1      26.559  15.463   5.167  0.00  0.00    -0.423 N 
HETATM   56  H   UNK N   1      26.216  15.113   6.062  0.00  0.00     0.150 HD
HETATM   57  H   UNK N   1      27.530  15.652   5.415  0.00  0.00     0.150 HD
ENDBRANCH   3  55
BRANCH   5  58
HETATM   58  N   UNK N   1      26.792  12.438   2.167  0.00  0.00    -0.423 N 
HETATM   59  H   UNK N   1      25.839  12.402   1.804  0.00  0.00     0.150 HD
HETATM   60  H   UNK N   1      27.442  11.677   1.972  0.00  0.00     0.150 HD
ENDBRANCH   5  58
TORSDOF 22
ENDMDL
MODEL 2
REMARK VINA RESULT:      -6.7      3.663      9.985
REMARK  22 active torsions:
REMARK  status: ('A' for Active; 'I' for Inactive)
REMARK    1  A    between atoms: C_20  and  O_1 
REMARK    2  A    between atoms: C_26  and  O_1 
REMARK    3  A    between atoms: C_21  and  O_2 
REMARK    4  A    between atoms: C_30  and  O_2 
REMARK    5  A    between atoms: C_27  and  O_4 
REMARK    6  A    between atoms: C_33  and  O_4 
REMARK    7  A    between atoms: C_23  and  O_5 
REMARK    8  A    between atoms: C_28  and  O_8 
REMARK    9  A    between atoms: C_32  and  O_9 
REMARK   10  A    between atoms: C_34  and  O_10 
REMARK   11  A    between atoms: C_37  and  O_11 
REMARK   12  A    between atoms: O_12  and  C_38 
REMARK   13  A    between atoms: C_39  and  O_13 
REMARK   14  A    between atoms: O_14  and  C_41 
REMARK   15  A    between atoms: C_22  and  N_15 
REMARK   16  A    between atoms: C_24  and  N_16 
REMARK   17  A    between atoms: C_31  and  N_17 
REMARK   18  A    between atoms: C_35  and  N_18 
REMARK   19  A    between atoms: N_19  and  C_42 
REMARK   20  A    between atoms: C_29  and  C_38 
REMARK   21  A    between atoms: C_36  and  C_41 
REMARK   22  A    between atoms: C_40  and  C_42 
ROOT
HETATM    1  C   UNK N   1      34.871  13.178   9.531  0.00  0.00     0.186 C 
HETATM    2  C   UNK N   1      35.430  13.074  10.962  0.00  0.00     0.178 C 
HETATM    3  C   UNK N   1      36.947  13.295  11.146  0.00  0.00     0.107 C 
HETATM    4  C   UNK N   1      35.714  12.245   8.647  0.00  0.00     0.172 C 
HETATM    5  C   UNK N   1      37.216  12.548   8.758  0.00  0.00     0.107 C 
HETATM    6  C   UNK N   1      37.700  12.365  10.198  0.00  0.00     0.054 C 
ENDROOT
BRANCH   1   7
HETATM    7  O   UNK N   1      34.951  14.516   9.091  0.00  0.00    -0.348 OA
BRANCH   7   8
HETATM    8  C   UNK N   1      33.910  15.340   9.603  0.00  0.00     0.292 C 
HETATM    9  O   UNK N   1      34.105  16.697   9.252  0.00  0.00    -0.348 OA
HETATM   10  C   UNK N   1      33.021  17.079   8.434  0.00  0.00     0.180 C 
HETATM   11  C   UNK N   1      32.142  15.856   8.217  0.00  0.00     0.189 C 
HETATM   12  C   UNK N   1      32.457  14.927   9.360  0.00  0.00     0.205 C 
BRANCH  10  13
HETATM   13  C   UNK N   1      33.550  17.656   7.123  0.00  0.00     0.198 C 
BRANCH  13  14
HETATM   14  O   UNK N   1      34.781  18.291   7.291  0.00  0.00    -0.398 OA
HETATM   15  H   UNK N   1      35.623  18.328   6.812  0.00  0.00     0.209 HD
ENDBRANCH  13  14
ENDBRANCH  10  13
BRANCH  11  16
HETATM   16  O   UNK N   1      30.772  16.098   7.912  0.00  0.00    -0.348 OA
BRANCH  16  17
HETATM   17  C   UNK N   1      30.529  17.484   7.724  0.00  0.00     0.285 C 
HETATM   18  O   UNK N   1      30.060  17.770   6.417  0.00  0.00    -0.350 OA
HETATM   19  C   UNK N   1      28.858  17.060   6.198  0.00  0.00     0.173 C 
HETATM   20  C   UNK N   1      27.733  17.634   7.062  0.00  0.00     0.179 C 
HETATM   21  C   UNK N   1      28.148  17.473   8.528  0.00  0.00     0.176 C 
HETATM   22  C   UNK N   1      29.547  18.054   8.761  0.00  0.00     0.161 C 
BRANCH  19  23
HETATM   23  C   UNK N   1      28.513  17.076   4.718  0.00  0.00     0.145 C 
BRANCH  23  24
HETATM   24  N   UNK N   1      28.737  18.403   4.172  0.00  0.00    -0.428 N 
HETATM   25  H   UNK N   1      28.210  19.277   4.151  0.00  0.00     0.150 HD
HETATM   26  H   UNK N   1      29.636  18.480   3.695  0.00  0.00     0.150 HD
ENDBRANCH  23  24
ENDBRANCH  19  23
BRANCH  20  27
HETATM   27  O   UNK N   1      27.528  18.983   6.752  0.00  0.00    -0.390 OA
HETATM   28  H   UNK N   1      27.885  19.877   6.867  0.00  0.00     0.210 HD
ENDBRANCH  20  27
BRANCH  21  29
HETATM   29  O   UNK N   1      27.212  18.078   9.368  0.00  0.00    -0.391 OA
HETATM   30  H   UNK N   1      27.434  18.838   9.929  0.00  0.00     0.210 HD
ENDBRANCH  21  29
BRANCH  22  31
HETATM   31  N   UNK N   1      30.001  17.772  10.112  0.00  0.00    -0.420 N 
HETATM   32  H   UNK N   1      29.486  17.674  10.987  0.00  0.00     0.150 HD
HETATM   33  H   UNK N   1      31.010  17.650  10.201  0.00  0.00     0.150 HD
ENDBRANCH  22  31
ENDBRANCH  16  17
ENDBRANCH  11  16
BRANCH  12  34
HETATM   34  O   UNK N   1      31.716  15.272  10.491  0.00  0.00    -0.388 OA
HETATM   35  H   UNK N   1      31.003  14.803  10.953  0.00  0.00     0.210 HD
ENDBRANCH  12  34
ENDBRANCH   7   8
ENDBRANCH   1   7
BRANCH   2  36
HETATM   36  O   UNK N   1      34.564  13.269  12.064  0.00  0.00    -0.349 OA
BRANCH  36  37
HETATM   37  C   UNK N   1      35.036  12.719  13.285  0.00  0.00     0.285 C 
HETATM   38  O   UNK N   1      35.333  13.696  14.246  0.00  0.00    -0.349 OA
HETATM   39  C   UNK N   1      36.195  13.112  15.193  0.00  0.00     0.179 C 
HETATM   40  C   UNK N   1      35.429  12.048  15.993  0.00  0.00     0.180 C 
HETATM   41  C   UNK N   1      34.928  10.975  15.025  0.00  0.00     0.176 C 
HETATM   42  C   UNK N   1      34.160  11.602  13.860  0.00  0.00     0.161 C 
BRANCH  39  43
HETATM   43  C   UNK N   1      36.707  14.197  16.128  0.00  0.00     0.198 C 
BRANCH  43  44
HETATM   44  O   UNK N   1      37.624  15.011  15.462  0.00  0.00    -0.398 OA
HETATM   45  H   UNK N   1      37.522  15.696  14.783  0.00  0.00     0.209 HD
ENDBRANCH  43  44
ENDBRANCH  39  43
BRANCH  40  46
HETATM   46  O   UNK N   1      36.272  11.459  16.940  0.00  0.00    -0.390 OA
HETATM   47  H   UNK N   1      36.717  11.958  17.643  0.00  0.00     0.210 HD
ENDBRANCH  40  46
BRANCH  41  48
HETATM   48  O   UNK N   1      34.121  10.055  15.696  0.00  0.00    -0.391 OA
HETATM   49  H   UNK N   1      34.034   9.821  16.633  0.00  0.00     0.210 HD
ENDBRANCH  41  48
BRANCH  42  50
HETATM   50  N   UNK N   1      33.905  10.592  12.848  0.00  0.00    -0.420 N 
HETATM   51  H   UNK N   1      33.112  10.350  12.256  0.00  0.00     0.150 HD
HETATM   52  H   UNK N   1      34.708   9.982  12.695  0.00  0.00     0.150 HD
ENDBRANCH  42  50
ENDBRANCH  36  37
ENDBRANCH   2  36
BRANCH   4  53
HETATM   53  O   UNK N   1      35.455  10.911   8.974  0.00  0.00    -0.391 OA
HETATM   54  H   UNK N   1      35.417   9.944   8.906  0.00  0.00     0.210 HD
ENDBRANCH   4  53
BRANCH   3  55
HETATM   55  N   UNK N   1      37.323  14.668  10.847  0.00  0.00    -0.423 N 
HETATM   56  H   UNK N   1      37.640  15.629  10.981  0.00  0.00     0.150 HD
HETATM   57  H   UNK N   1      37.168  14.676   9.839  0.00  0.00     0.150 HD
ENDBRANCH   3  55
BRANCH   5  58
HETATM   58  N   UNK N   1      37.971  11.683   7.868  0.00  0.00    -0.423 N 
HETATM   59  H   UNK N   1      38.493  10.893   8.248  0.00  0.00     0.150 HD
HETATM   60  H   UNK N   1      37.979  11.865   6.865  0.00  0.00     0.150 HD
ENDBRANCH   5  58
TORSDOF 22
ENDMDL
MODEL 3
REMARK VINA RESULT:      -6.6      4.485      6.280
REMARK  22 active torsions:
REMARK  status: ('A' for Active; 'I' for Inactive)
REMARK    1  A    between atoms: C_20  and  O_1 
REMARK    2  A    between atoms: C_26  and  O_1 
REMARK    3  A    between atoms: C_21  and  O_2 
REMARK    4  A    between atoms: C_30  and  O_2 
REMARK    5  A    between atoms: C_27  and  O_4 
REMARK    6  A    between atoms: C_33  and  O_4 
REMARK    7  A    between atoms: C_23  and  O_5 
REMARK    8  A    between atoms: C_28  and  O_8 
REMARK    9  A    between atoms: C_32  and  O_9 
REMARK   10  A    between atoms: C_34  and  O_10 
REMARK   11  A    between atoms: C_37  and  O_11 
REMARK   12  A    between atoms: O_12  and  C_38 
REMARK   13  A    between atoms: C_39  and  O_13 
REMARK   14  A    between atoms: O_14  and  C_41 
REMARK   15  A    between atoms: C_22  and  N_15 
REMARK   16  A    between atoms: C_24  and  N_16 
REMARK   17  A    between atoms: C_31  and  N_17 
REMARK   18  A    between atoms: C_35  and  N_18 
REMARK   19  A    between atoms: N_19  and  C_42 
REMARK   20  A    between atoms: C_29  and  C_38 
REMARK   21  A    between atoms: C_36  and  C_41 
REMARK   22  A    between atoms: C_40  and  C_42 
ROOT
HETATM    1  C   UNK N   1      25.457  14.903   5.976  0.00  0.00     0.186 C 
HETATM    2  C   UNK N   1      25.062  13.571   6.640  0.00  0.00     0.178 C 
HETATM    3  C   UNK N   1      25.071  12.310   5.751  0.00  0.00     0.107 C 
HETATM    4  C   UNK N   1      24.584  15.060   4.721  0.00  0.00     0.172 C 
HETATM    5  C   UNK N   1      24.688  13.841   3.792  0.00  0.00     0.107 C 
HETATM    6  C   UNK N   1      24.222  12.572   4.510  0.00  0.00     0.054 C 
ENDROOT
BRANCH   1   7
HETATM    7  O   UNK N   1      26.829  14.877   5.650  0.00  0.00    -0.348 OA
BRANCH   7   8
HETATM    8  C   UNK N   1      27.394  16.173   5.485  0.00  0.00     0.292 C 
HETATM    9  O   UNK N   1      26.967  17.056   6.503  0.00  0.00    -0.348 OA
HETATM   10  C   UNK N   1      28.112  17.441   7.232  0.00  0.00     0.180 C 
HETATM   11  C   UNK N   1      29.307  16.690   6.662  0.00  0.00     0.189 C 
HETATM   12  C   UNK N   1      28.903  16.295   5.266  0.00  0.00     0.205 C 
BRANCH  10  13
HETATM   13  C   UNK N   1      27.895  17.149   8.715  0.00  0.00     0.198 C 
BRANCH  13  14
HETATM   14  O   UNK N   1      27.464  18.279   9.412  0.00  0.00    -0.398 OA
HETATM   15  H   UNK N   1      27.762  19.196   9.516  0.00  0.00     0.209 HD
ENDBRANCH  13  14
ENDBRANCH  10  13
BRANCH  11  16
HETATM   16  O   UNK N   1      30.586  17.289   6.843  0.00  0.00    -0.348 OA
BRANCH  16  17
HETATM   17  C   UNK N   1      31.596  16.302   6.992  0.00  0.00     0.285 C 
HETATM   18  O   UNK N   1      32.044  15.805   5.743  0.00  0.00    -0.350 OA
HETATM   19  C   UNK N   1      32.560  16.878   4.983  0.00  0.00     0.173 C 
HETATM   20  C   UNK N   1      33.866  17.389   5.598  0.00  0.00     0.179 C 
HETATM   21  C   UNK N   1      33.547  17.886   7.012  0.00  0.00     0.176 C 
HETATM   22  C   UNK N   1      32.797  16.811   7.807  0.00  0.00     0.161 C 
BRANCH  19  23
HETATM   23  C   UNK N   1      32.736  16.448   3.536  0.00  0.00     0.145 C 
BRANCH  23  24
HETATM   24  N   UNK N   1      31.838  17.206   2.683  0.00  0.00    -0.428 N 
HETATM   25  H   UNK N   1      30.831  17.218   2.520  0.00  0.00     0.150 HD
HETATM   26  H   UNK N   1      32.333  17.890   2.109  0.00  0.00     0.150 HD
ENDBRANCH  23  24
ENDBRANCH  19  23
BRANCH  20  27
HETATM   27  O   UNK N   1      34.814  16.361   5.638  0.00  0.00    -0.390 OA
HETATM   28  H   UNK N   1      35.024  15.475   5.304  0.00  0.00     0.210 HD
ENDBRANCH  20  27
BRANCH  21  29
HETATM   29  O   UNK N   1      34.719  18.263   7.670  0.00  0.00    -0.391 OA
HETATM   30  H   UNK N   1      35.007  17.845   8.498  0.00  0.00     0.210 HD
ENDBRANCH  21  29
BRANCH  22  31
HETATM   31  N   UNK N   1      32.366  17.331   9.094  0.00  0.00    -0.420 N 
HETATM   32  H   UNK N   1      32.476  18.254   9.516  0.00  0.00     0.150 HD
HETATM   33  H   UNK N   1      31.867  16.658   9.674  0.00  0.00     0.150 HD
ENDBRANCH  22  31
ENDBRANCH  16  17
ENDBRANCH  11  16
BRANCH  12  34
HETATM   34  O   UNK N   1      29.126  17.346   4.376  0.00  0.00    -0.388 OA
HETATM   35  H   UNK N   1      28.673  17.591   3.553  0.00  0.00     0.210 HD
ENDBRANCH  12  34
ENDBRANCH   7   8
ENDBRANCH   1   7
BRANCH   2  36
HETATM   36  O   UNK N   1      25.179  13.431   8.043  0.00  0.00    -0.349 OA
BRANCH  36  37
HETATM   37  C   UNK N   1      23.941  13.433   8.738  0.00  0.00     0.285 C 
HETATM   38  O   UNK N   1      22.833  13.459   7.879  0.00  0.00    -0.349 OA
HETATM   39  C   UNK N   1      21.729  13.918   8.624  0.00  0.00     0.179 C 
HETATM   40  C   UNK N   1      21.344  12.861   9.669  0.00  0.00     0.180 C 
HETATM   41  C   UNK N   1      22.536  12.638  10.602  0.00  0.00     0.176 C 
HETATM   42  C   UNK N   1      23.808  12.343   9.806  0.00  0.00     0.161 C 
BRANCH  39  43
HETATM   43  C   UNK N   1      20.564  14.163   7.678  0.00  0.00     0.198 C 
BRANCH  43  44
HETATM   44  O   UNK N   1      19.669  15.072   8.244  0.00  0.00    -0.398 OA
HETATM   45  H   UNK N   1      18.821  15.432   7.942  0.00  0.00     0.209 HD
ENDBRANCH  43  44
ENDBRANCH  39  43
BRANCH  40  46
HETATM   46  O   UNK N   1      20.248  13.301  10.417  0.00  0.00    -0.390 OA
HETATM   47  H   UNK N   1      20.235  13.317  11.387  0.00  0.00     0.210 HD
ENDBRANCH  40  46
BRANCH  41  48
HETATM   48  O   UNK N   1      22.268  11.595  11.490  0.00  0.00    -0.391 OA
HETATM   49  H   UNK N   1      22.749  10.782  11.710  0.00  0.00     0.210 HD
ENDBRANCH  41  48
BRANCH  42  50
HETATM   50  N   UNK N   1      24.954  12.371  10.698  0.00  0.00    -0.420 N 
HETATM   51  H   UNK N   1      25.597  11.671  11.066  0.00  0.00     0.150 HD
HETATM   52  H   UNK N   1      25.165  13.310  11.033  0.00  0.00     0.150 HD
ENDBRANCH  42  50
ENDBRANCH  36  37
ENDBRANCH   2  36
BRANCH   4  53
HETATM   53  O   UNK N   1      23.255  15.291   5.086  0.00  0.00    -0.391 OA
HETATM   54  H   UNK N   1      22.482  15.679   5.524  0.00  0.00     0.210 HD
ENDBRANCH   4  53
BRANCH   3  55
HETATM   55  N   UNK N   1      26.420  11.968   5.328  0.00  0.00    -0.423 N 
HETATM   56  H   UNK N   1      27.275  11.429   5.183  0.00  0.00     0.150 HD
HETATM   57  H   UNK N   1      26.690  12.845   4.883  0.00  0.00     0.150 HD
ENDBRANCH   3  55
BRANCH   5  58
HETATM   58  N   UNK N   1      23.892  14.052   2.595  0.00  0.00    -0.423 N 
HETATM   59  H   UNK N   1      22.939  14.407   2.672  0.00  0.00     0.150 HD
HETATM   60  H   UNK N   1      24.286  13.844   1.678  0.00  0.00     0.150 HD
ENDBRANCH   5  58
TORSDOF 22
ENDMDL
MODEL 4
REMARK VINA RESULT:      -6.5      3.038      6.028
REMARK  22 active torsions:
REMARK  status: ('A' for Active; 'I' for Inactive)
REMARK    1  A    between atoms: C_20  and  O_1 
REMARK    2  A    between atoms: C_26  and  O_1 
REMARK    3  A    between atoms: C_21  and  O_2 
REMARK    4  A    between atoms: C_30  and  O_2 
REMARK    5  A    between atoms: C_27  and  O_4 
REMARK    6  A    between atoms: C_33  and  O_4 
REMARK    7  A    between atoms: C_23  and  O_5 
REMARK    8  A    between atoms: C_28  and  O_8 
REMARK    9  A    between atoms: C_32  and  O_9 
REMARK   10  A    between atoms: C_34  and  O_10 
REMARK   11  A    between atoms: C_37  and  O_11 
REMARK   12  A    between atoms: O_12  and  C_38 
REMARK   13  A    between atoms: C_39  and  O_13 
REMARK   14  A    between atoms: O_14  and  C_41 
REMARK   15  A    between atoms: C_22  and  N_15 
REMARK   16  A    between atoms: C_24  and  N_16 
REMARK   17  A    between atoms: C_31  and  N_17 
REMARK   18  A    between atoms: C_35  and  N_18 
REMARK   19  A    between atoms: N_19  and  C_42 
REMARK   20  A    between atoms: C_29  and  C_38 
REMARK   21  A    between atoms: C_36  and  C_41 
REMARK   22  A    between atoms: C_40  and  C_42 
ROOT
HETATM    1  C   UNK N   1      32.537  15.237   7.538  0.00  0.00     0.186 C 
HETATM    2  C   UNK N   1      32.065  16.229   6.458  0.00  0.00     0.178 C 
HETATM    3  C   UNK N   1      33.103  17.239   5.925  0.00  0.00     0.107 C 
HETATM    4  C   UNK N   1      33.184  16.065   8.659  0.00  0.00     0.172 C 
HETATM    5  C   UNK N   1      34.290  16.988   8.129  0.00  0.00     0.107 C 
HETATM    6  C   UNK N   1      33.726  17.978   7.107  0.00  0.00     0.054 C 
ENDROOT
BRANCH   1   7
HETATM    7  O   UNK N   1      33.456  14.328   6.972  0.00  0.00    -0.348 OA
BRANCH   7   8
HETATM    8  C   UNK N   1      33.704  13.194   7.793  0.00  0.00     0.292 C 
HETATM    9  O   UNK N   1      35.087  12.909   7.878  0.00  0.00    -0.348 OA
HETATM   10  C   UNK N   1      35.466  13.066   9.228  0.00  0.00     0.180 C 
HETATM   11  C   UNK N   1      34.247  13.542  10.006  0.00  0.00     0.189 C 
HETATM   12  C   UNK N   1      33.058  13.132   9.178  0.00  0.00     0.205 C 
BRANCH  10  13
HETATM   13  C   UNK N   1      36.634  14.045   9.320  0.00  0.00     0.198 C 
BRANCH  13  14
HETATM   14  O   UNK N   1      36.377  15.083  10.217  0.00  0.00    -0.398 OA
HETATM   15  H   UNK N   1      36.052  15.995  10.161  0.00  0.00     0.209 HD
ENDBRANCH  13  14
ENDBRANCH  10  13
BRANCH  11  16
HETATM   16  O   UNK N   1      34.224  13.251  11.399  0.00  0.00    -0.348 OA
BRANCH  16  17
HETATM   17  C   UNK N   1      35.253  12.337  11.747  0.00  0.00     0.285 C 
HETATM   18  O   UNK N   1      36.276  12.952  12.513  0.00  0.00    -0.350 OA
HETATM   19  C   UNK N   1      35.709  13.476  13.696  0.00  0.00     0.173 C 
HETATM   20  C   UNK N   1      35.268  12.342  14.625  0.00  0.00     0.179 C 
HETATM   21  C   UNK N   1      34.208  11.522  13.883  0.00  0.00     0.176 C 
HETATM   22  C   UNK N   1      34.716  11.106  12.498  0.00  0.00     0.161 C 
BRANCH  19  23
HETATM   23  C   UNK N   1      36.694  14.419  14.366  0.00  0.00     0.145 C 
BRANCH  23  24
HETATM   24  N   UNK N   1      36.686  14.203  15.802  0.00  0.00    -0.428 N 
HETATM   25  H   UNK N   1      36.246  13.532  16.431  0.00  0.00     0.150 HD
HETATM   26  H   UNK N   1      37.256  14.887  16.300  0.00  0.00     0.150 HD
ENDBRANCH  23  24
ENDBRANCH  19  23
BRANCH  20  27
HETATM   27  O   UNK N   1      36.366  11.541  14.961  0.00  0.00    -0.390 OA
HETATM   28  H   UNK N   1      37.230  11.540  15.399  0.00  0.00     0.210 HD
ENDBRANCH  20  27
BRANCH  21  29
HETATM   29  O   UNK N   1      33.844  10.404  14.634  0.00  0.00    -0.391 OA
HETATM   30  H   UNK N   1      34.433  10.010  15.297  0.00  0.00     0.210 HD
ENDBRANCH  21  29
BRANCH  22  31
HETATM   31  N   UNK N   1      33.662  10.457  11.737  0.00  0.00    -0.420 N 
HETATM   32  H   UNK N   1      33.635  10.130  10.771  0.00  0.00     0.150 HD
HETATM   33  H   UNK N   1      32.801  10.301  12.260  0.00  0.00     0.150 HD
ENDBRANCH  22  31
ENDBRANCH  16  17
ENDBRANCH  11  16
BRANCH  12  34
HETATM   34  O   UNK N   1      32.717  11.803   9.436  0.00  0.00    -0.388 OA
HETATM   35  H   UNK N   1      33.216  11.089   9.863  0.00  0.00     0.210 HD
ENDBRANCH  12  34
ENDBRANCH   7   8
ENDBRANCH   1   7
BRANCH   2  36
HETATM   36  O   UNK N   1      30.940  15.908   5.662  0.00  0.00    -0.349 OA
BRANCH  36  37
HETATM   37  C   UNK N   1      29.830  16.775   5.840  0.00  0.00     0.285 C 
HETATM   38  O   UNK N   1      29.869  17.469   7.059  0.00  0.00    -0.349 OA
HETATM   39  C   UNK N   1      28.562  17.912   7.337  0.00  0.00     0.179 C 
HETATM   40  C   UNK N   1      28.163  18.995   6.323  0.00  0.00     0.180 C 
HETATM   41  C   UNK N   1      28.213  18.392   4.918  0.00  0.00     0.176 C 
HETATM   42  C   UNK N   1      29.558  17.712   4.660  0.00  0.00     0.161 C 
BRANCH  39  43
HETATM   43  C   UNK N   1      28.524  18.480   8.747  0.00  0.00     0.198 C 
BRANCH  43  44
HETATM   44  O   UNK N   1      27.379  18.039   9.411  0.00  0.00    -0.398 OA
HETATM   45  H   UNK N   1      26.559  18.485   9.674  0.00  0.00     0.209 HD
ENDBRANCH  43  44
ENDBRANCH  39  43
BRANCH  40  46
HETATM   46  O   UNK N   1      26.867  19.447   6.587  0.00  0.00    -0.390 OA
HETATM   47  H   UNK N   1      26.320  19.107   7.313  0.00  0.00     0.210 HD
ENDBRANCH  40  46
BRANCH  41  48
HETATM   48  O   UNK N   1      27.977  19.378   3.959  0.00  0.00    -0.391 OA
HETATM   49  H   UNK N   1      27.800  19.336   3.006  0.00  0.00     0.210 HD
ENDBRANCH  41  48
BRANCH  42  50
HETATM   50  N   UNK N   1      29.487  16.954   3.423  0.00  0.00    -0.420 N 
HETATM   51  H   UNK N   1      29.369  15.969   3.188  0.00  0.00     0.150 HD
HETATM   52  H   UNK N   1      29.576  17.545   2.597  0.00  0.00     0.150 HD
ENDBRANCH  42  50
ENDBRANCH  36  37
ENDBRANCH   2  36
BRANCH   4  53
HETATM   53  O   UNK N   1      32.208  16.802   9.336  0.00  0.00    -0.391 OA
HETATM   54  H   UNK N   1      31.545  17.047  10.000  0.00  0.00     0.210 HD
ENDBRANCH   4  53
BRANCH   3  55
HETATM   55  N   UNK N   1      34.161  16.573   5.183  0.00  0.00    -0.423 N 
HETATM   56  H   UNK N   1      35.092  16.248   4.918  0.00  0.00     0.150 HD
HETATM   57  H   UNK N   1      33.611  16.153   4.434  0.00  0.00     0.150 HD
ENDBRANCH   3  55
BRANCH   5  58
HETATM   58  N   UNK N   1      34.911  17.711   9.226  0.00  0.00    -0.423 N 
HETATM   59  H   UNK N   1      35.416  17.201   9.951  0.00  0.00     0.150 HD
HETATM   60  H   UNK N   1      34.842  18.727   9.271  0.00  0.00     0.150 HD
ENDBRANCH   5  58
TORSDOF 22
ENDMDL
MODEL 5
REMARK VINA RESULT:      -6.5      3.101      8.580
REMARK  22 active torsions:
REMARK  status: ('A' for Active; 'I' for Inactive)
REMARK    1  A    between atoms: C_20  and  O_1 
REMARK    2  A    between atoms: C_26  and  O_1 
REMARK    3  A    between atoms: C_21  and  O_2 
REMARK    4  A    between atoms: C_30  and  O_2 
REMARK    5  A    between atoms: C_27  and  O_4 
REMARK    6  A    between atoms: C_33  and  O_4 
REMARK    7  A    between atoms: C_23  and  O_5 
REMARK    8  A    between atoms: C_28  and  O_8 
REMARK    9  A    between atoms: C_32  and  O_9 
REMARK   10  A    between atoms: C_34  and  O_10 
REMARK   11  A    between atoms: C_37  and  O_11 
REMARK   12  A    between atoms: O_12  and  C_38 
REMARK   13  A    between atoms: C_39  and  O_13 
REMARK   14  A    between atoms: O_14  and  C_41 
REMARK   15  A    between atoms: C_22  and  N_15 
REMARK   16  A    between atoms: C_24  and  N_16 
REMARK   17  A    between atoms: C_31  and  N_17 
REMARK   18  A    between atoms: C_35  and  N_18 
REMARK   19  A    between atoms: N_19  and  C_42 
REMARK   20  A    between atoms: C_29  and  C_38 
REMARK   21  A    between atoms: C_36  and  C_41 
REMARK   22  A    between atoms: C_40  and  C_42 
ROOT
HETATM    1  C   UNK N   1      35.109  14.360   7.113  0.00  0.00     0.186 C 
HETATM    2  C   UNK N   1      36.377  13.596   7.537  0.00  0.00     0.178 C 
HETATM    3  C   UNK N   1      37.389  13.239   6.428  0.00  0.00     0.107 C 
HETATM    4  C   UNK N   1      34.468  13.570   5.962  0.00  0.00     0.172 C 
HETATM    5  C   UNK N   1      35.458  13.315   4.816  0.00  0.00     0.107 C 
HETATM    6  C   UNK N   1      36.657  12.501   5.309  0.00  0.00     0.054 C 
ENDROOT
BRANCH   1   7
HETATM    7  O   UNK N   1      35.460  15.666   6.710  0.00  0.00    -0.348 OA
BRANCH   7   8
HETATM    8  C   UNK N   1      34.562  16.663   7.184  0.00  0.00     0.292 C 
HETATM    9  O   UNK N   1      34.199  17.563   6.156  0.00  0.00    -0.348 OA
HETATM   10  C   UNK N   1      32.808  17.433   5.957  0.00  0.00     0.180 C 
HETATM   11  C   UNK N   1      32.302  16.334   6.879  0.00  0.00     0.189 C 
HETATM   12  C   UNK N   1      33.328  16.226   7.976  0.00  0.00     0.205 C 
BRANCH  10  13
HETATM   13  C   UNK N   1      32.529  17.134   4.485  0.00  0.00     0.198 C 
BRANCH  13  14
HETATM   14  O   UNK N   1      31.660  18.067   3.919  0.00  0.00    -0.398 OA
HETATM   15  H   UNK N   1      30.816  18.041   3.442  0.00  0.00     0.209 HD
ENDBRANCH  13  14
ENDBRANCH  10  13
BRANCH  11  16
HETATM   16  O   UNK N   1      30.929  16.394   7.253  0.00  0.00    -0.348 OA
BRANCH  16  17
HETATM   17  C   UNK N   1      30.410  17.704   7.081  0.00  0.00     0.285 C 
HETATM   18  O   UNK N   1      29.630  17.818   5.903  0.00  0.00    -0.350 OA
HETATM   19  C   UNK N   1      28.555  16.906   5.977  0.00  0.00     0.173 C 
HETATM   20  C   UNK N   1      27.556  17.343   7.052  0.00  0.00     0.179 C 
HETATM   21  C   UNK N   1      28.296  17.353   8.393  0.00  0.00     0.176 C 
HETATM   22  C   UNK N   1      29.587  18.173   8.293  0.00  0.00     0.161 C 
BRANCH  19  23
HETATM   23  C   UNK N   1      27.904  16.764   4.611  0.00  0.00     0.145 C 
BRANCH  23  24
HETATM   24  N   UNK N   1      28.641  17.539   3.629  0.00  0.00    -0.428 N 
HETATM   25  H   UNK N   1      29.510  17.414   3.111  0.00  0.00     0.150 HD
HETATM   26  H   UNK N   1      28.179  18.421   3.405  0.00  0.00     0.150 HD
ENDBRANCH  23  24
ENDBRANCH  19  23
BRANCH  20  27
HETATM   27  O   UNK N   1      27.055  18.615   6.754  0.00  0.00    -0.390 OA
HETATM   28  H   UNK N   1      26.482  19.111   6.149  0.00  0.00     0.210 HD
ENDBRANCH  20  27
BRANCH  21  29
HETATM   29  O   UNK N   1      27.468  17.851   9.401  0.00  0.00    -0.391 OA
HETATM   30  H   UNK N   1      27.286  17.355  10.215  0.00  0.00     0.210 HD
ENDBRANCH  21  29
BRANCH  22  31
HETATM   31  N   UNK N   1      30.362  18.063   9.517  0.00  0.00    -0.420 N 
HETATM   32  H   UNK N   1      31.028  18.704   9.950  0.00  0.00     0.150 HD
HETATM   33  H   UNK N   1      30.214  17.196  10.033  0.00  0.00     0.150 HD
ENDBRANCH  22  31
ENDBRANCH  16  17
ENDBRANCH  11  16
BRANCH  12  34
HETATM   34  O   UNK N   1      33.090  17.180   8.965  0.00  0.00    -0.388 OA
HETATM   35  H   UNK N   1      32.282  17.659   9.207  0.00  0.00     0.210 HD
ENDBRANCH  12  34
ENDBRANCH   7   8
ENDBRANCH   1   7
BRANCH   2  36
HETATM   36  O   UNK N   1      36.818  13.668   8.879  0.00  0.00    -0.349 OA
BRANCH  36  37
HETATM   37  C   UNK N   1      36.004  12.962   9.803  0.00  0.00     0.285 C 
HETATM   38  O   UNK N   1      35.307  11.897   9.213  0.00  0.00    -0.349 OA
HETATM   39  C   UNK N   1      34.225  11.579  10.056  0.00  0.00     0.179 C 
HETATM   40  C   UNK N   1      34.756  10.977  11.365  0.00  0.00     0.180 C 
HETATM   41  C   UNK N   1      35.655  12.007  12.049  0.00  0.00     0.176 C 
HETATM   42  C   UNK N   1      36.720  12.533  11.086  0.00  0.00     0.161 C 
BRANCH  39  43
HETATM   43  C   UNK N   1      33.327  10.577   9.348  0.00  0.00     0.198 C 
BRANCH  43  44
HETATM   44  O   UNK N   1      31.987  10.859   9.617  0.00  0.00    -0.398 OA
HETATM   45  H   UNK N   1      31.259  10.320   9.964  0.00  0.00     0.209 HD
ENDBRANCH  43  44
ENDBRANCH  39  43
BRANCH  40  46
HETATM   46  O   UNK N   1      33.693  10.654  12.213  0.00  0.00    -0.390 OA
HETATM   47  H   UNK N   1      32.982  10.040  11.968  0.00  0.00     0.210 HD
ENDBRANCH  40  46
BRANCH  41  48
HETATM   48  O   UNK N   1      36.256  11.453  13.180  0.00  0.00    -0.391 OA
HETATM   49  H   UNK N   1      36.204  11.670  14.124  0.00  0.00     0.210 HD
ENDBRANCH  41  48
BRANCH  42  50
HETATM   50  N   UNK N   1      37.398  13.669  11.687  0.00  0.00    -0.420 N 
HETATM   51  H   UNK N   1      37.191  14.307  12.454  0.00  0.00     0.150 HD
HETATM   52  H   UNK N   1      38.288  13.875  11.236  0.00  0.00     0.150 HD
ENDBRANCH  42  50
ENDBRANCH  36  37
ENDBRANCH   2  36
BRANCH   4  53
HETATM   53  O   UNK N   1      33.944  12.365   6.440  0.00  0.00    -0.391 OA
HETATM   54  H   UNK N   1      33.901  11.451   6.760  0.00  0.00     0.210 HD
ENDBRANCH   4  53
BRANCH   3  55
HETATM   55  N   UNK N   1      38.010  14.430   5.871  0.00  0.00    -0.423 N 
HETATM   56  H   UNK N   1      38.344  15.391   5.790  0.00  0.00     0.150 HD
HETATM   57  H   UNK N   1      38.306  14.065   4.966  0.00  0.00     0.150 HD
ENDBRANCH   3  55
BRANCH   5  58
HETATM   58  N   UNK N   1      34.799  12.615   3.728  0.00  0.00    -0.423 N 
HETATM   59  H   UNK N   1      34.096  13.094   3.165  0.00  0.00     0.150 HD
HETATM   60  H   UNK N   1      35.038  11.645   3.527  0.00  0.00     0.150 HD
ENDBRANCH   5  58
TORSDOF 22
ENDMDL
MODEL 6
REMARK VINA RESULT:      -6.5      5.231      7.175
REMARK  22 active torsions:
REMARK  status: ('A' for Active; 'I' for Inactive)
REMARK    1  A    between atoms: C_20  and  O_1 
REMARK    2  A    between atoms: C_26  and  O_1 
REMARK    3  A    between atoms: C_21  and  O_2 
REMARK    4  A    between atoms: C_30  and  O_2 
REMARK    5  A    between atoms: C_27  and  O_4 
REMARK    6  A    between atoms: C_33  and  O_4 
REMARK    7  A    between atoms: C_23  and  O_5 
REMARK    8  A    between atoms: C_28  and  O_8 
REMARK    9  A    between atoms: C_32  and  O_9 
REMARK   10  A    between atoms: C_34  and  O_10 
REMARK   11  A    between atoms: C_37  and  O_11 
REMARK   12  A    between atoms: O_12  and  C_38 
REMARK   13  A    between atoms: C_39  and  O_13 
REMARK   14  A    between atoms: O_14  and  C_41 
REMARK   15  A    between atoms: C_22  and  N_15 
REMARK   16  A    between atoms: C_24  and  N_16 
REMARK   17  A    between atoms: C_31  and  N_17 
REMARK   18  A    between atoms: C_35  and  N_18 
REMARK   19  A    between atoms: N_19  and  C_42 
REMARK   20  A    between atoms: C_29  and  C_38 
REMARK   21  A    between atoms: C_36  and  C_41 
REMARK   22  A    between atoms: C_40  and  C_42 
ROOT
HETATM    1  C   UNK N   1      21.547  15.074   5.594  0.00  0.00     0.186 C 
HETATM    2  C   UNK N   1      20.448  16.115   5.312  0.00  0.00     0.178 C 
HETATM    3  C   UNK N   1      20.027  17.030   6.481  0.00  0.00     0.107 C 
HETATM    4  C   UNK N   1      21.112  14.281   6.836  0.00  0.00     0.172 C 
HETATM    5  C   UNK N   1      20.800  15.200   8.026  0.00  0.00     0.107 C 
HETATM    6  C   UNK N   1      19.659  16.162   7.682  0.00  0.00     0.054 C 
ENDROOT
BRANCH   1   7
HETATM    7  O   UNK N   1      22.776  15.733   5.807  0.00  0.00    -0.348 OA
BRANCH   7   8
HETATM    8  C   UNK N   1      23.898  14.859   5.775  0.00  0.00     0.292 C 
HETATM    9  O   UNK N   1      24.132  14.367   4.470  0.00  0.00    -0.348 OA
HETATM   10  C   UNK N   1      25.399  14.837   4.065  0.00  0.00     0.180 C 
HETATM   11  C   UNK N   1      25.945  15.729   5.170  0.00  0.00     0.189 C 
HETATM   12  C   UNK N   1      25.207  15.319   6.418  0.00  0.00     0.205 C 
BRANCH  10  13
HETATM   13  C   UNK N   1      25.269  15.572   2.733  0.00  0.00     0.198 C 
BRANCH  13  14
HETATM   14  O   UNK N   1      26.487  16.107   2.311  0.00  0.00    -0.398 OA
HETATM   15  H   UNK N   1      27.001  16.118   1.489  0.00  0.00     0.209 HD
ENDBRANCH  13  14
ENDBRANCH  10  13
BRANCH  11  16
HETATM   16  O   UNK N   1      27.360  15.863   5.245  0.00  0.00    -0.348 OA
BRANCH  16  17
HETATM   17  C   UNK N   1      27.738  17.226   5.372  0.00  0.00     0.285 C 
HETATM   18  O   UNK N   1      27.582  17.700   6.699  0.00  0.00    -0.350 OA
HETATM   19  C   UNK N   1      28.385  16.920   7.560  0.00  0.00     0.173 C 
HETATM   20  C   UNK N   1      29.869  17.197   7.306  0.00  0.00     0.179 C 
HETATM   21  C   UNK N   1      30.169  16.808   5.855  0.00  0.00     0.176 C 
HETATM   22  C   UNK N   1      29.179  17.482   4.898  0.00  0.00     0.161 C 
BRANCH  19  23
HETATM   23  C   UNK N   1      27.991  17.177   9.005  0.00  0.00     0.145 C 
BRANCH  23  24
HETATM   24  N   UNK N   1      27.639  18.575   9.181  0.00  0.00    -0.428 N 
HETATM   25  H   UNK N   1      27.680  19.240   9.953  0.00  0.00     0.150 HD
HETATM   26  H   UNK N   1      27.262  18.990   8.329  0.00  0.00     0.150 HD
ENDBRANCH  23  24
ENDBRANCH  19  23
BRANCH  20  27
HETATM   27  O   UNK N   1      30.149  18.550   7.524  0.00  0.00    -0.390 OA
HETATM   28  H   UNK N   1      30.328  19.395   7.083  0.00  0.00     0.210 HD
ENDBRANCH  20  27
BRANCH  21  29
HETATM   29  O   UNK N   1      31.484  17.142   5.525  0.00  0.00    -0.391 OA
HETATM   30  H   UNK N   1      31.862  16.957   4.650  0.00  0.00     0.210 HD
ENDBRANCH  21  29
BRANCH  22  31
HETATM   31  N   UNK N   1      29.369  17.001   3.540  0.00  0.00    -0.420 N 
HETATM   32  H   UNK N   1      30.107  16.428   3.128  0.00  0.00     0.150 HD
HETATM   33  H   UNK N   1      28.640  17.284   2.887  0.00  0.00     0.150 HD
ENDBRANCH  22  31
ENDBRANCH  16  17
ENDBRANCH  11  16
BRANCH  12  34
HETATM   34  O   UNK N   1      25.814  14.206   7.002  0.00  0.00    -0.388 OA
HETATM   35  H   UNK N   1      25.455  13.337   7.242  0.00  0.00     0.210 HD
ENDBRANCH  12  34
ENDBRANCH   7   8
ENDBRANCH   1   7
BRANCH   2  36
HETATM   36  O   UNK N   1      20.213  16.538   3.983  0.00  0.00    -0.349 OA
BRANCH  36  37
HETATM   37  C   UNK N   1      20.727  17.826   3.678  0.00  0.00     0.285 C 
HETATM   38  O   UNK N   1      22.129  17.877   3.712  0.00  0.00    -0.349 OA
HETATM   39  C   UNK N   1      22.502  19.226   3.860  0.00  0.00     0.179 C 
HETATM   40  C   UNK N   1      22.148  19.997   2.580  0.00  0.00     0.180 C 
HETATM   41  C   UNK N   1      20.638  19.904   2.353  0.00  0.00     0.176 C 
HETATM   42  C   UNK N   1      20.165  18.450   2.397  0.00  0.00     0.161 C 
BRANCH  39  43
HETATM   43  C   UNK N   1      23.999  19.298   4.114  0.00  0.00     0.198 C 
BRANCH  43  44
HETATM   44  O   UNK N   1      24.321  18.609   5.284  0.00  0.00    -0.398 OA
HETATM   45  H   UNK N   1      23.792  18.331   6.049  0.00  0.00     0.209 HD
ENDBRANCH  43  44
ENDBRANCH  39  43
BRANCH  40  46
HETATM   46  O   UNK N   1      22.514  21.340   2.711  0.00  0.00    -0.390 OA
HETATM   47  H   UNK N   1      21.964  22.002   3.158  0.00  0.00     0.210 HD
ENDBRANCH  40  46
BRANCH  41  48
HETATM   48  O   UNK N   1      20.294  20.488   1.133  0.00  0.00    -0.391 OA
HETATM   49  H   UNK N   1      20.730  21.153   0.579  0.00  0.00     0.210 HD
ENDBRANCH  41  48
BRANCH  42  50
HETATM   50  N   UNK N   1      18.713  18.413   2.416  0.00  0.00    -0.420 N 
HETATM   51  H   UNK N   1      17.974  19.081   2.200  0.00  0.00     0.150 HD
HETATM   52  H   UNK N   1      18.350  17.509   2.715  0.00  0.00     0.150 HD
ENDBRANCH  42  50
ENDBRANCH  36  37
ENDBRANCH   2  36
BRANCH   4  53
HETATM   53  O   UNK N   1      20.010  13.477   6.531  0.00  0.00    -0.391 OA
HETATM   54  H   UNK N   1      19.202  13.160   6.098  0.00  0.00     0.210 HD
ENDBRANCH   4  53
BRANCH   3  55
HETATM   55  N   UNK N   1      21.104  17.927   6.868  0.00  0.00    -0.423 N 
HETATM   56  H   UNK N   1      22.033  18.255   7.135  0.00  0.00     0.150 HD
HETATM   57  H   UNK N   1      20.597  18.812   6.883  0.00  0.00     0.150 HD
ENDBRANCH   3  55
BRANCH   5  58
HETATM   58  N   UNK N   1      20.445  14.411   9.193  0.00  0.00    -0.423 N 
HETATM   59  H   UNK N   1      19.508  14.017   9.276  0.00  0.00     0.150 HD
HETATM   60  H   UNK N   1      21.133  14.252   9.928  0.00  0.00     0.150 HD
ENDBRANCH   5  58
TORSDOF 22
ENDMDL
MODEL 7
REMARK VINA RESULT:      -6.5      4.205      6.104
REMARK  22 active torsions:
REMARK  status: ('A' for Active; 'I' for Inactive)
REMARK    1  A    between atoms: C_20  and  O_1 
REMARK    2  A    between atoms: C_26  and  O_1 
REMARK    3  A    between atoms: C_21  and  O_2 
REMARK    4  A    between atoms: C_30  and  O_2 
REMARK    5  A    between atoms: C_27  and  O_4 
REMARK    6  A    between atoms: C_33  and  O_4 
REMARK    7  A    between atoms: C_23  and  O_5 
REMARK    8  A    between atoms: C_28  and  O_8 
REMARK    9  A    between atoms: C_32  and  O_9 
REMARK   10  A    between atoms: C_34  and  O_10 
REMARK   11  A    between atoms: C_37  and  O_11 
REMARK   12  A    between atoms: O_12  and  C_38 
REMARK   13  A    between atoms: C_39  and  O_13 
REMARK   14  A    between atoms: O_14  and  C_41 
REMARK   15  A    between atoms: C_22  and  N_15 
REMARK   16  A    between atoms: C_24  and  N_16 
REMARK   17  A    between atoms: C_31  and  N_17 
REMARK   18  A    between atoms: C_35  and  N_18 
REMARK   19  A    between atoms: N_19  and  C_42 
REMARK   20  A    between atoms: C_29  and  C_38 
REMARK   21  A    between atoms: C_36  and  C_41 
REMARK   22  A    between atoms: C_40  and  C_42 
ROOT
HETATM    1  C   UNK N   1      24.141  15.713   3.341  0.00  0.00     0.186 C 
HETATM    2  C   UNK N   1      23.039  14.812   3.928  0.00  0.00     0.178 C 
HETATM    3  C   UNK N   1      23.486  13.501   4.609  0.00  0.00     0.107 C 
HETATM    4  C   UNK N   1      25.001  14.833   2.420  0.00  0.00     0.172 C 
HETATM    5  C   UNK N   1      25.530  13.586   3.143  0.00  0.00     0.107 C 
HETATM    6  C   UNK N   1      24.372  12.718   3.643  0.00  0.00     0.054 C 
ENDROOT
BRANCH   1   7
HETATM    7  O   UNK N   1      24.906  16.263   4.390  0.00  0.00    -0.348 OA
BRANCH   7   8
HETATM    8  C   UNK N   1      26.149  16.804   3.958  0.00  0.00     0.292 C 
HETATM    9  O   UNK N   1      26.076  18.208   3.803  0.00  0.00    -0.348 OA
HETATM   10  C   UNK N   1      26.974  18.779   4.729  0.00  0.00     0.180 C 
HETATM   11  C   UNK N   1      27.586  17.652   5.548  0.00  0.00     0.189 C 
HETATM   12  C   UNK N   1      27.423  16.412   4.708  0.00  0.00     0.205 C 
BRANCH  10  13
HETATM   13  C   UNK N   1      26.235  19.795   5.597  0.00  0.00     0.198 C 
BRANCH  13  14
HETATM   14  O   UNK N   1      26.862  19.984   6.829  0.00  0.00    -0.398 OA
HETATM   15  H   UNK N   1      27.240  19.417   7.519  0.00  0.00     0.209 HD
ENDBRANCH  13  14
ENDBRANCH  10  13
BRANCH  11  16
HETATM   16  O   UNK N   1      28.861  17.902   6.129  0.00  0.00    -0.348 OA
BRANCH  16  17
HETATM   17  C   UNK N   1      29.201  16.893   7.069  0.00  0.00     0.285 C 
HETATM   18  O   UNK N   1      30.525  16.419   6.887  0.00  0.00    -0.350 OA
HETATM   19  C   UNK N   1      31.421  17.501   7.033  0.00  0.00     0.173 C 
HETATM   20  C   UNK N   1      31.458  17.972   8.490  0.00  0.00     0.179 C 
HETATM   21  C   UNK N   1      30.047  18.439   8.861  0.00  0.00     0.176 C 
HETATM   22  C   UNK N   1      29.013  17.358   8.523  0.00  0.00     0.161 C 
BRANCH  19  23
HETATM   23  C   UNK N   1      32.795  17.105   6.521  0.00  0.00     0.145 C 
BRANCH  23  24
HETATM   24  N   UNK N   1      33.822  17.837   7.241  0.00  0.00    -0.428 N 
HETATM   25  H   UNK N   1      34.745  18.205   7.012  0.00  0.00     0.150 HD
HETATM   26  H   UNK N   1      33.556  18.030   8.208  0.00  0.00     0.150 HD
ENDBRANCH  23  24
ENDBRANCH  19  23
BRANCH  20  27
HETATM   27  O   UNK N   1      31.868  16.925   9.323  0.00  0.00    -0.390 OA
HETATM   28  H   UNK N   1      31.663  16.021   9.605  0.00  0.00     0.210 HD
ENDBRANCH  20  27
BRANCH  21  29
HETATM   29  O   UNK N   1      29.987  18.777  10.214  0.00  0.00    -0.391 OA
HETATM   30  H   UNK N   1      30.331  18.195  10.910  0.00  0.00     0.210 HD
ENDBRANCH  21  29
BRANCH  22  31
HETATM   31  N   UNK N   1      27.664  17.854   8.737  0.00  0.00    -0.420 N 
HETATM   32  H   UNK N   1      26.894  17.484   9.296  0.00  0.00     0.150 HD
HETATM   33  H   UNK N   1      27.451  18.720   8.245  0.00  0.00     0.150 HD
ENDBRANCH  22  31
ENDBRANCH  16  17
ENDBRANCH  11  16
BRANCH  12  34
HETATM   34  O   UNK N   1      28.458  16.312   3.777  0.00  0.00    -0.388 OA
HETATM   35  H   UNK N   1      28.498  15.870   2.914  0.00  0.00     0.210 HD
ENDBRANCH  12  34
ENDBRANCH   7   8
ENDBRANCH   1   7
BRANCH   2  36
HETATM   36  O   UNK N   1      21.786  15.375   4.267  0.00  0.00    -0.349 OA
BRANCH  36  37
HETATM   37  C   UNK N   1      21.461  16.557   3.552  0.00  0.00     0.285 C 
HETATM   38  O   UNK N   1      20.475  16.352   2.576  0.00  0.00    -0.349 OA
HETATM   39  C   UNK N   1      20.563  17.412   1.654  0.00  0.00     0.179 C 
HETATM   40  C   UNK N   1      20.126  18.718   2.333  0.00  0.00     0.180 C 
HETATM   41  C   UNK N   1      21.056  18.989   3.517  0.00  0.00     0.176 C 
HETATM   42  C   UNK N   1      21.147  17.769   4.434  0.00  0.00     0.161 C 
BRANCH  39  43
HETATM   43  C   UNK N   1      19.656  17.112   0.471  0.00  0.00     0.198 C 
BRANCH  43  44
HETATM   44  O   UNK N   1      20.203  17.641  -0.699  0.00  0.00    -0.398 OA
HETATM   45  H   UNK N   1      20.123  18.507  -1.128  0.00  0.00     0.209 HD
ENDBRANCH  43  44
ENDBRANCH  39  43
BRANCH  40  46
HETATM   46  O   UNK N   1      20.207  19.781   1.428  0.00  0.00    -0.390 OA
HETATM   47  H   UNK N   1      19.601  20.538   1.439  0.00  0.00     0.210 HD
ENDBRANCH  40  46
BRANCH  41  48
HETATM   48  O   UNK N   1      20.616  20.103   4.234  0.00  0.00    -0.391 OA
HETATM   49  H   UNK N   1      21.087  20.795   4.724  0.00  0.00     0.210 HD
ENDBRANCH  41  48
BRANCH  42  50
HETATM   50  N   UNK N   1      22.207  17.972   5.406  0.00  0.00    -0.420 N 
HETATM   51  H   UNK N   1      23.213  18.126   5.352  0.00  0.00     0.150 HD
HETATM   52  H   UNK N   1      21.865  17.957   6.366  0.00  0.00     0.150 HD
ENDBRANCH  42  50
ENDBRANCH  36  37
ENDBRANCH   2  36
BRANCH   4  53
HETATM   53  O   UNK N   1      24.272  14.473   1.283  0.00  0.00    -0.391 OA
HETATM   54  H   UNK N   1      23.525  14.220   0.718  0.00  0.00     0.210 HD
ENDBRANCH   4  53
BRANCH   3  55
HETATM   55  N   UNK N   1      24.243  13.765   5.823  0.00  0.00    -0.423 N 
HETATM   56  H   UNK N   1      24.643  13.638   6.753  0.00  0.00     0.150 HD
HETATM   57  H   UNK N   1      24.626  14.682   5.593  0.00  0.00     0.150 HD
ENDBRANCH   3  55
BRANCH   5  58
HETATM   58  N   UNK N   1      26.380  12.812   2.256  0.00  0.00    -0.423 N 
HETATM   59  H   UNK N   1      27.348  13.096   2.101  0.00  0.00     0.150 HD
HETATM   60  H   UNK N   1      26.010  11.986   1.787  0.00  0.00     0.150 HD
ENDBRANCH   5  58
TORSDOF 22
ENDMDL
MODEL 8
REMARK VINA RESULT:      -6.4      3.876      5.313
REMARK  22 active torsions:
REMARK  status: ('A' for Active; 'I' for Inactive)
REMARK    1  A    between atoms: C_20  and  O_1 
REMARK    2  A    between atoms: C_26  and  O_1 
REMARK    3  A    between atoms: C_21  and  O_2 
REMARK    4  A    between atoms: C_30  and  O_2 
REMARK    5  A    between atoms: C_27  and  O_4 
REMARK    6  A    between atoms: C_33  and  O_4 
REMARK    7  A    between atoms: C_23  and  O_5 
REMARK    8  A    between atoms: C_28  and  O_8 
REMARK    9  A    between atoms: C_32  and  O_9 
REMARK   10  A    between atoms: C_34  and  O_10 
REMARK   11  A    between atoms: C_37  and  O_11 
REMARK   12  A    between atoms: O_12  and  C_38 
REMARK   13  A    between atoms: C_39  and  O_13 
REMARK   14  A    between atoms: O_14  and  C_41 
REMARK   15  A    between atoms: C_22  and  N_15 
REMARK   16  A    between atoms: C_24  and  N_16 
REMARK   17  A    between atoms: C_31  and  N_17 
REMARK   18  A    between atoms: C_35  and  N_18 
REMARK   19  A    between atoms: N_19  and  C_42 
REMARK   20  A    between atoms: C_29  and  C_38 
REMARK   21  A    between atoms: C_36  and  C_41 
REMARK   22  A    between atoms: C_40  and  C_42 
ROOT
HETATM    1  C   UNK N   1      25.727  16.124   3.840  0.00  0.00     0.186 C 
HETATM    2  C   UNK N   1      24.421  16.625   4.484  0.00  0.00     0.178 C 
HETATM    3  C   UNK N   1      23.712  15.676   5.472  0.00  0.00     0.107 C 
HETATM    4  C   UNK N   1      25.430  14.748   3.224  0.00  0.00     0.172 C 
HETATM    5  C   UNK N   1      24.823  13.778   4.249  0.00  0.00     0.107 C 
HETATM    6  C   UNK N   1      23.501  14.324   4.794  0.00  0.00     0.054 C 
ENDROOT
BRANCH   1   7
HETATM    7  O   UNK N   1      26.735  16.042   4.824  0.00  0.00    -0.348 OA
BRANCH   7   8
HETATM    8  C   UNK N   1      27.423  17.270   5.030  0.00  0.00     0.292 C 
HETATM    9  O   UNK N   1      27.042  17.878   6.249  0.00  0.00    -0.348 OA
HETATM   10  C   UNK N   1      28.190  17.931   7.068  0.00  0.00     0.180 C 
HETATM   11  C   UNK N   1      29.330  17.251   6.324  0.00  0.00     0.189 C 
HETATM   12  C   UNK N   1      28.944  17.298   4.869  0.00  0.00     0.205 C 
BRANCH  10  13
HETATM   13  C   UNK N   1      27.890  17.266   8.410  0.00  0.00     0.198 C 
BRANCH  13  14
HETATM   14  O   UNK N   1      27.428  18.183   9.355  0.00  0.00    -0.398 OA
HETATM   15  H   UNK N   1      27.628  19.098   9.602  0.00  0.00     0.209 HD
ENDBRANCH  13  14
ENDBRANCH  10  13
BRANCH  11  16
HETATM   16  O   UNK N   1      30.651  17.648   6.678  0.00  0.00    -0.348 OA
BRANCH  16  17
HETATM   17  C   UNK N   1      31.501  16.520   6.824  0.00  0.00     0.285 C 
HETATM   18  O   UNK N   1      31.935  16.014   5.573  0.00  0.00    -0.350 OA
HETATM   19  C   UNK N   1      32.637  17.031   4.888  0.00  0.00     0.173 C 
HETATM   20  C   UNK N   1      33.970  17.322   5.583  0.00  0.00     0.179 C 
HETATM   21  C   UNK N   1      33.656  17.802   7.003  0.00  0.00     0.176 C 
HETATM   22  C   UNK N   1      32.721  16.816   7.714  0.00  0.00     0.161 C 
BRANCH  19  23
HETATM   23  C   UNK N   1      32.821  16.638   3.432  0.00  0.00     0.145 C 
BRANCH  23  24
HETATM   24  N   UNK N   1      31.764  17.222   2.625  0.00  0.00    -0.428 N 
HETATM   25  H   UNK N   1      31.016  17.896   2.789  0.00  0.00     0.150 HD
HETATM   26  H   UNK N   1      31.771  16.874   1.666  0.00  0.00     0.150 HD
ENDBRANCH  23  24
ENDBRANCH  19  23
BRANCH  20  27
HETATM   27  O   UNK N   1      34.758  16.166   5.615  0.00  0.00    -0.390 OA
HETATM   28  H   UNK N   1      34.818  15.249   5.306  0.00  0.00     0.210 HD
ENDBRANCH  20  27
BRANCH  21  29
HETATM   29  O   UNK N   1      34.835  17.978   7.729  0.00  0.00    -0.391 OA
HETATM   30  H   UNK N   1      35.178  18.858   7.955  0.00  0.00     0.210 HD
ENDBRANCH  21  29
BRANCH  22  31
HETATM   31  N   UNK N   1      32.305  17.341   9.003  0.00  0.00    -0.420 N 
HETATM   32  H   UNK N   1      31.378  17.455   9.414  0.00  0.00     0.150 HD
HETATM   33  H   UNK N   1      33.072  17.648   9.600  0.00  0.00     0.150 HD
ENDBRANCH  22  31
ENDBRANCH  16  17
ENDBRANCH  11  16
BRANCH  12  34
HETATM   34  O   UNK N   1      29.296  18.526   4.308  0.00  0.00    -0.388 OA
HETATM   35  H   UNK N   1      29.747  19.295   4.691  0.00  0.00     0.210 HD
ENDBRANCH  12  34
ENDBRANCH   7   8
ENDBRANCH   1   7
BRANCH   2  36
HETATM   36  O   UNK N   1      24.171  18.016   4.559  0.00  0.00    -0.349 OA
BRANCH  36  37
HETATM   37  C   UNK N   1      23.054  18.452   3.800  0.00  0.00     0.285 C 
HETATM   38  O   UNK N   1      21.839  17.923   4.260  0.00  0.00    -0.349 OA
HETATM   39  C   UNK N   1      20.906  18.026   3.211  0.00  0.00     0.179 C 
HETATM   40  C   UNK N   1      20.578  19.506   2.963  0.00  0.00     0.180 C 
HETATM   41  C   UNK N   1      21.866  20.235   2.578  0.00  0.00     0.176 C 
HETATM   42  C   UNK N   1      22.974  19.969   3.598  0.00  0.00     0.161 C 
BRANCH  39  43
HETATM   43  C   UNK N   1      19.644  17.271   3.598  0.00  0.00     0.198 C 
BRANCH  43  44
HETATM   44  O   UNK N   1      19.882  16.487   4.728  0.00  0.00    -0.398 OA
HETATM   45  H   UNK N   1      19.434  16.419   5.586  0.00  0.00     0.209 HD
ENDBRANCH  43  44
ENDBRANCH  39  43
BRANCH  40  46
HETATM   46  O   UNK N   1      19.651  19.625   1.924  0.00  0.00    -0.390 OA
HETATM   47  H   UNK N   1      19.315  20.477   1.604  0.00  0.00     0.210 HD
ENDBRANCH  40  46
BRANCH  41  48
HETATM   48  O   UNK N   1      21.632  21.606   2.465  0.00  0.00    -0.391 OA
HETATM   49  H   UNK N   1      22.226  22.373   2.448  0.00  0.00     0.210 HD
ENDBRANCH  41  48
BRANCH  42  50
HETATM   50  N   UNK N   1      24.236  20.474   3.086  0.00  0.00    -0.420 N 
HETATM   51  H   UNK N   1      24.856  21.245   3.333  0.00  0.00     0.150 HD
HETATM   52  H   UNK N   1      24.581  19.932   2.295  0.00  0.00     0.150 HD
ENDBRANCH  42  50
ENDBRANCH  36  37
ENDBRANCH   2  36
BRANCH   4  53
HETATM   53  O   UNK N   1      24.586  14.889   2.118  0.00  0.00    -0.391 OA
HETATM   54  H   UNK N   1      24.211  15.235   1.294  0.00  0.00     0.210 HD
ENDBRANCH   4  53
BRANCH   3  55
HETATM   55  N   UNK N   1      24.503  15.474   6.676  0.00  0.00    -0.423 N 
HETATM   56  H   UNK N   1      24.850  15.054   7.539  0.00  0.00     0.150 HD
HETATM   57  H   UNK N   1      25.114  16.289   6.621  0.00  0.00     0.150 HD
ENDBRANCH   3  55
BRANCH   5  58
HETATM   58  N   UNK N   1      24.607  12.476   3.642  0.00  0.00    -0.423 N 
HETATM   59  H   UNK N   1      23.675  12.062   3.642  0.00  0.00     0.150 HD
HETATM   60  H   UNK N   1      25.387  11.975   3.218  0.00  0.00     0.150 HD
ENDBRANCH   5  58
TORSDOF 22
ENDMDL
MODEL 9
REMARK VINA RESULT:      -6.4      5.453      7.915
REMARK  22 active torsions:
REMARK  status: ('A' for Active; 'I' for Inactive)
REMARK    1  A    between atoms: C_20  and  O_1 
REMARK    2  A    between atoms: C_26  and  O_1 
REMARK    3  A    between atoms: C_21  and  O_2 
REMARK    4  A    between atoms: C_30  and  O_2 
REMARK    5  A    between atoms: C_27  and  O_4 
REMARK    6  A    between atoms: C_33  and  O_4 
REMARK    7  A    between atoms: C_23  and  O_5 
REMARK    8  A    between atoms: C_28  and  O_8 
REMARK    9  A    between atoms: C_32  and  O_9 
REMARK   10  A    between atoms: C_34  and  O_10 
REMARK   11  A    between atoms: C_37  and  O_11 
REMARK   12  A    between atoms: O_12  and  C_38 
REMARK   13  A    between atoms: C_39  and  O_13 
REMARK   14  A    between atoms: O_14  and  C_41 
REMARK   15  A    between atoms: C_22  and  N_15 
REMARK   16  A    between atoms: C_24  and  N_16 
REMARK   17  A    between atoms: C_31  and  N_17 
REMARK   18  A    between atoms: C_35  and  N_18 
REMARK   19  A    between atoms: N_19  and  C_42 
REMARK   20  A    between atoms: C_29  and  C_38 
REMARK   21  A    between atoms: C_36  and  C_41 
REMARK   22  A    between atoms: C_40  and  C_42 
ROOT
HETATM    1  C   UNK N   1      21.536  17.661   4.332  0.00  0.00     0.186 C 
HETATM    2  C   UNK N   1      20.158  17.200   3.823  0.00  0.00     0.178 C 
HETATM    3  C   UNK N   1      19.753  17.627   2.396  0.00  0.00     0.107 C 
HETATM    4  C   UNK N   1      21.608  19.182   4.130  0.00  0.00     0.172 C 
HETATM    5  C   UNK N   1      21.309  19.585   2.679  0.00  0.00     0.107 C 
HETATM    6  C   UNK N   1      19.901  19.141   2.273  0.00  0.00     0.054 C 
ENDROOT
BRANCH   1   7
HETATM    7  O   UNK N   1      22.550  16.996   3.611  0.00  0.00    -0.348 OA
BRANCH   7   8
HETATM    8  C   UNK N   1      23.283  16.064   4.397  0.00  0.00     0.292 C 
HETATM    9  O   UNK N   1      23.659  14.931   3.639  0.00  0.00    -0.348 OA
HETATM   10  C   UNK N   1      25.069  14.904   3.595  0.00  0.00     0.180 C 
HETATM   11  C   UNK N   1      25.586  16.139   4.318  0.00  0.00     0.189 C 
HETATM   12  C   UNK N   1      24.465  16.571   5.227  0.00  0.00     0.205 C 
BRANCH  10  13
HETATM   13  C   UNK N   1      25.533  14.842   2.141  0.00  0.00     0.198 C 
BRANCH  13  14
HETATM   14  O   UNK N   1      26.647  15.651   1.914  0.00  0.00    -0.398 OA
HETATM   15  H   UNK N   1      27.030  16.446   2.314  0.00  0.00     0.209 HD
ENDBRANCH  13  14
ENDBRANCH  10  13
BRANCH  11  16
HETATM   16  O   UNK N   1      26.897  16.058   4.867  0.00  0.00    -0.348 OA
BRANCH  16  17
HETATM   17  C   UNK N   1      27.443  17.352   5.077  0.00  0.00     0.285 C 
HETATM   18  O   UNK N   1      27.343  17.759   6.431  0.00  0.00    -0.350 OA
HETATM   19  C   UNK N   1      28.038  16.831   7.239  0.00  0.00     0.173 C 
HETATM   20  C   UNK N   1      29.546  16.934   6.996  0.00  0.00     0.179 C 
HETATM   21  C   UNK N   1      29.800  16.602   5.523  0.00  0.00     0.176 C 
HETATM   22  C   UNK N   1      28.907  17.453   4.614  0.00  0.00     0.161 C 
BRANCH  19  23
HETATM   23  C   UNK N   1      27.674  17.045   8.699  0.00  0.00     0.145 C 
BRANCH  23  24
HETATM   24  N   UNK N   1      27.632  18.466   8.995  0.00  0.00    -0.428 N 
HETATM   25  H   UNK N   1      27.634  19.030   9.845  0.00  0.00     0.150 HD
HETATM   26  H   UNK N   1      27.591  19.038   8.150  0.00  0.00     0.150 HD
ENDBRANCH  23  24
ENDBRANCH  19  23
BRANCH  20  27
HETATM   27  O   UNK N   1      29.994  18.225   7.296  0.00  0.00    -0.390 OA
HETATM   28  H   UNK N   1      30.376  18.781   7.993  0.00  0.00     0.210 HD
ENDBRANCH  20  27
BRANCH  21  29
HETATM   29  O   UNK N   1      31.148  16.786   5.208  0.00  0.00    -0.391 OA
HETATM   30  H   UNK N   1      31.684  16.091   4.795  0.00  0.00     0.210 HD
ENDBRANCH  21  29
BRANCH  22  31
HETATM   31  N   UNK N   1      29.040  17.037   3.228  0.00  0.00    -0.420 N 
HETATM   32  H   UNK N   1      29.712  16.418   2.774  0.00  0.00     0.150 HD
HETATM   33  H   UNK N   1      28.340  17.432   2.600  0.00  0.00     0.150 HD
ENDBRANCH  22  31
ENDBRANCH  16  17
ENDBRANCH  11  16
BRANCH  12  34
HETATM   34  O   UNK N   1      24.495  15.847   6.419  0.00  0.00    -0.388 OA
HETATM   35  H   UNK N   1      24.571  16.141   7.341  0.00  0.00     0.210 HD
ENDBRANCH  12  34
ENDBRANCH   7   8
ENDBRANCH   1   7
BRANCH   2  36
HETATM   36  O   UNK N   1      19.542  16.067   4.407  0.00  0.00    -0.349 OA
BRANCH  36  37
HETATM   37  C   UNK N   1      20.033  15.733   5.696  0.00  0.00     0.285 C 
HETATM   38  O   UNK N   1      19.355  16.399   6.728  0.00  0.00    -0.349 OA
HETATM   39  C   UNK N   1      20.181  16.370   7.867  0.00  0.00     0.179 C 
HETATM   40  C   UNK N   1      20.287  14.928   8.385  0.00  0.00     0.180 C 
HETATM   41  C   UNK N   1      20.897  14.057   7.286  0.00  0.00     0.176 C 
HETATM   42  C   UNK N   1      20.143  14.229   5.966  0.00  0.00     0.161 C 
BRANCH  39  43
HETATM   43  C   UNK N   1      19.575  17.264   8.938  0.00  0.00     0.198 C 
BRANCH  43  44
HETATM   44  O   UNK N   1      20.007  18.580   8.765  0.00  0.00    -0.398 OA
HETATM   45  H   UNK N   1      19.548  19.433   8.812  0.00  0.00     0.209 HD
ENDBRANCH  43  44
ENDBRANCH  39  43
BRANCH  40  46
HETATM   46  O   UNK N   1      21.104  14.883   9.518  0.00  0.00    -0.390 OA
HETATM   47  H   UNK N   1      20.926  15.391  10.325  0.00  0.00     0.210 HD
ENDBRANCH  40  46
BRANCH  41  48
HETATM   48  O   UNK N   1      20.896  12.716   7.672  0.00  0.00    -0.391 OA
HETATM   49  H   UNK N   1      20.372  12.222   8.321  0.00  0.00     0.210 HD
ENDBRANCH  41  48
BRANCH  42  50
HETATM   50  N   UNK N   1      20.882  13.580   4.898  0.00  0.00    -0.420 N 
HETATM   51  H   UNK N   1      20.842  13.599   3.879  0.00  0.00     0.150 HD
HETATM   52  H   UNK N   1      21.613  12.962   5.249  0.00  0.00     0.150 HD
ENDBRANCH  42  50
ENDBRANCH  36  37
ENDBRANCH   2  36
BRANCH   4  53
HETATM   53  O   UNK N   1      20.733  19.825   5.011  0.00  0.00    -0.391 OA
HETATM   54  H   UNK N   1      20.413  20.335   5.772  0.00  0.00     0.210 HD
ENDBRANCH   4  53
BRANCH   3  55
HETATM   55  N   UNK N   1      20.596  16.994   1.394  0.00  0.00    -0.423 N 
HETATM   56  H   UNK N   1      20.944  16.305   0.727  0.00  0.00     0.150 HD
HETATM   57  H   UNK N   1      21.310  17.715   1.286  0.00  0.00     0.150 HD
ENDBRANCH   3  55
BRANCH   5  58
HETATM   58  N   UNK N   1      21.439  21.023   2.518  0.00  0.00    -0.423 N 
HETATM   59  H   UNK N   1      21.127  21.649   3.260  0.00  0.00     0.150 HD
HETATM   60  H   UNK N   1      21.843  21.406   1.664  0.00  0.00     0.150 HD
ENDBRANCH   5  58
TORSDOF 22
ENDMDL
