MODEL 1
REMARK VINA RESULT:      -5.6      0.000      0.000
REMARK  2 active torsions:
REMARK  status: ('A' for Active; 'I' for Inactive)
REMARK    1  A    between atoms: O_1  and  C_10 
REMARK    2  A    between atoms: N_6  and  C_9 
ROOT
HETATM    1  N   UNK N   1      30.084  17.095   6.609  0.00  0.00    -0.363 N 
ATOM      2  HN  UNK N   1      29.525  16.721   5.842  1.00  0.00     0.165 HD
HETATM    3  C   UNK N   1      32.235  17.623   7.550  0.00  0.00     0.026 A 
HETATM    4  C   UNK N   1      31.441  17.108   6.495  0.00  0.00     0.078 A 
HETATM    5  C   UNK N   1      33.650  17.635   7.426  0.00  0.00     0.115 A 
HETATM    6  C   UNK N   1      32.057  16.613   5.334  0.00  0.00     0.093 A 
HETATM    7  C   UNK N   1      34.230  17.131   6.252  0.00  0.00     0.040 A 
HETATM    8  C   UNK N   1      31.583  18.108   8.693  0.00  0.00     0.018 A 
HETATM    9  C   UNK N   1      33.444  16.627   5.220  0.00  0.00     0.041 A 
HETATM   10  C   UNK N   1      30.195  18.082   8.781  0.00  0.00     0.018 A 
HETATM   11  C   UNK N   1      29.454  17.566   7.719  0.00  0.00     0.088 A 
ENDROOT
BRANCH   5  12
HETATM   12  N   UNK N   1      34.512  18.139   8.450  0.00  0.00    -0.115 N 
HETATM   13  O   UNK N   1      34.735  17.414   9.526  0.00  0.00    -0.532 OA
HETATM   14  O   UNK N   1      35.035  19.206   8.350  0.00  0.00    -0.532 OA
ENDBRANCH   5  12
BRANCH   6  15
HETATM   15  O   UNK N   1      31.316  16.121   4.326  0.00  0.00    -0.358 OA
HETATM   16  H   UNK N   1      31.666  15.456   3.769  0.00  0.00     0.217 HD
ENDBRANCH   6  15
TORSDOF 2
ENDMDL
MODEL 2
REMARK VINA RESULT:      -5.5      3.656      4.713
REMARK  2 active torsions:
REMARK  status: ('A' for Active; 'I' for Inactive)
REMARK    1  A    between atoms: O_1  and  C_10 
REMARK    2  A    between atoms: N_6  and  C_9 
ROOT
HETATM    1  N   UNK N   1      28.026  19.495   4.302  0.00  0.00    -0.363 N 
ATOM      2  HN  UNK N   1      28.220  19.339   3.313  1.00  0.00     0.165 HD
HETATM    3  C   UNK N   1      28.295  18.843   6.603  0.00  0.00     0.026 A 
HETATM    4  C   UNK N   1      28.554  18.642   5.224  0.00  0.00     0.078 A 
HETATM    5  C   UNK N   1      28.848  17.951   7.560  0.00  0.00     0.115 A 
HETATM    6  C   UNK N   1      29.353  17.564   4.812  0.00  0.00     0.093 A 
HETATM    7  C   UNK N   1      29.642  16.885   7.112  0.00  0.00     0.040 A 
HETATM    8  C   UNK N   1      27.492  19.931   6.974  0.00  0.00     0.018 A 
HETATM    9  C   UNK N   1      29.891  16.694   5.756  0.00  0.00     0.041 A 
HETATM   10  C   UNK N   1      26.967  20.785   6.010  0.00  0.00     0.018 A 
HETATM   11  C   UNK N   1      27.247  20.550   4.665  0.00  0.00     0.088 A 
ENDROOT
BRANCH   5  12
HETATM   12  N   UNK N   1      28.629  18.093   8.966  0.00  0.00    -0.115 N 
HETATM   13  O   UNK N   1      29.478  18.793   9.689  0.00  0.00    -0.532 OA
HETATM   14  O   UNK N   1      27.689  17.589   9.502  0.00  0.00    -0.532 OA
ENDBRANCH   5  12
BRANCH   6  15
HETATM   15  O   UNK N   1      29.606  17.362   3.507  0.00  0.00    -0.358 OA
HETATM   16  H   UNK N   1      28.901  17.331   2.893  0.00  0.00     0.217 HD
ENDBRANCH   6  15
TORSDOF 2
ENDMDL
MODEL 3
REMARK VINA RESULT:      -5.4      3.851      5.143
REMARK  2 active torsions:
REMARK  status: ('A' for Active; 'I' for Inactive)
REMARK    1  A    between atoms: O_1  and  C_10 
REMARK    2  A    between atoms: N_6  and  C_9 
ROOT
HETATM    1  N   UNK N   1      29.315  17.628   4.154  0.00  0.00    -0.363 N 
ATOM      2  HN  UNK N   1      29.183  17.938   3.191  1.00  0.00     0.165 HD
HETATM    3  C   UNK N   1      28.937  17.940   6.510  0.00  0.00     0.026 A 
HETATM    4  C   UNK N   1      28.764  18.355   5.166  0.00  0.00     0.078 A 
HETATM    5  C   UNK N   1      28.361  18.702   7.561  0.00  0.00     0.115 A 
HETATM    6  C   UNK N   1      28.026  19.515   4.881  0.00  0.00     0.093 A 
HETATM    7  C   UNK N   1      27.630  19.855   7.239  0.00  0.00     0.040 A 
HETATM    8  C   UNK N   1      29.681  16.777   6.753  0.00  0.00     0.018 A 
HETATM    9  C   UNK N   1      27.465  20.257   5.916  0.00  0.00     0.041 A 
HETATM   10  C   UNK N   1      30.231  16.055   5.699  0.00  0.00     0.018 A 
HETATM   11  C   UNK N   1      30.036  16.499   4.393  0.00  0.00     0.088 A 
ENDROOT
BRANCH   5  12
HETATM   12  N   UNK N   1      28.494  18.343   8.939  0.00  0.00    -0.115 N 
HETATM   13  O   UNK N   1      29.525  18.785   9.629  0.00  0.00    -0.532 OA
HETATM   14  O   UNK N   1      27.689  17.648   9.480  0.00  0.00    -0.532 OA
ENDBRANCH   5  12
BRANCH   6  15
HETATM   15  O   UNK N   1      27.855  19.920   3.611  0.00  0.00    -0.358 OA
HETATM   16  H   UNK N   1      27.055  20.333   3.355  0.00  0.00     0.217 HD
ENDBRANCH   6  15
TORSDOF 2
ENDMDL
MODEL 4
REMARK VINA RESULT:      -5.3      3.743      5.398
REMARK  2 active torsions:
REMARK  status: ('A' for Active; 'I' for Inactive)
REMARK    1  A    between atoms: O_1  and  C_10 
REMARK    2  A    between atoms: N_6  and  C_9 
ROOT
HETATM    1  N   UNK N   1      26.923  20.003   7.144  0.00  0.00    -0.363 N 
ATOM      2  HN  UNK N   1      26.475  20.184   8.042  1.00  0.00     0.165 HD
HETATM    3  C   UNK N   1      28.475  18.735   5.811  0.00  0.00     0.026 A 
HETATM    4  C   UNK N   1      27.842  19.002   7.052  0.00  0.00     0.078 A 
HETATM    5  C   UNK N   1      29.433  17.690   5.720  0.00  0.00     0.115 A 
HETATM    6  C   UNK N   1      28.165  18.233   8.181  0.00  0.00     0.093 A 
HETATM    7  C   UNK N   1      29.730  16.943   6.869  0.00  0.00     0.040 A 
HETATM    8  C   UNK N   1      28.126  19.525   4.707  0.00  0.00     0.018 A 
HETATM    9  C   UNK N   1      29.104  17.210   8.084  0.00  0.00     0.041 A 
HETATM   10  C   UNK N   1      27.183  20.540   4.832  0.00  0.00     0.018 A 
HETATM   11  C   UNK N   1      26.586  20.768   6.070  0.00  0.00     0.088 A 
ENDROOT
BRANCH   5  12
HETATM   12  N   UNK N   1      30.109  17.366   4.502  0.00  0.00    -0.115 N 
HETATM   13  O   UNK N   1      31.324  17.827   4.292  0.00  0.00    -0.532 OA
HETATM   14  O   UNK N   1      29.595  16.684   3.670  0.00  0.00    -0.532 OA
ENDBRANCH   5  12
BRANCH   6  15
HETATM   15  O   UNK N   1      27.573  18.475   9.363  0.00  0.00    -0.358 OA
HETATM   16  H   UNK N   1      27.383  17.767   9.945  0.00  0.00     0.217 HD
ENDBRANCH   6  15
TORSDOF 2
ENDMDL
MODEL 5
REMARK VINA RESULT:      -5.3      1.404      3.114
REMARK  2 active torsions:
REMARK  status: ('A' for Active; 'I' for Inactive)
REMARK    1  A    between atoms: O_1  and  C_10 
REMARK    2  A    between atoms: N_6  and  C_9 
ROOT
HETATM    1  N   UNK N   1      30.821  17.042   4.714  0.00  0.00    -0.363 N 
ATOM      2  HN  UNK N   1      29.839  16.916   4.471  1.00  0.00     0.165 HD
HETATM    3  C   UNK N   1      32.520  17.436   6.373  0.00  0.00     0.026 A 
HETATM    4  C   UNK N   1      31.159  17.258   6.016  0.00  0.00     0.078 A 
HETATM    5  C   UNK N   1      32.867  17.661   7.732  0.00  0.00     0.115 A 
HETATM    6  C   UNK N   1      30.165  17.305   7.005  0.00  0.00     0.093 A 
HETATM    7  C   UNK N   1      31.846  17.701   8.693  0.00  0.00     0.040 A 
HETATM    8  C   UNK N   1      33.484  17.383   5.357  0.00  0.00     0.018 A 
HETATM    9  C   UNK N   1      30.512  17.525   8.335  0.00  0.00     0.041 A 
HETATM   10  C   UNK N   1      33.108  17.161   4.036  0.00  0.00     0.018 A 
HETATM   11  C   UNK N   1      31.759  16.991   3.729  0.00  0.00     0.088 A 
ENDROOT
BRANCH   5  12
HETATM   12  N   UNK N   1      34.217  17.849   8.164  0.00  0.00    -0.115 N 
HETATM   13  O   UNK N   1      34.722  19.064   8.210  0.00  0.00    -0.532 OA
HETATM   14  O   UNK N   1      34.900  16.925   8.485  0.00  0.00    -0.532 OA
ENDBRANCH   5  12
BRANCH   6  15
HETATM   15  O   UNK N   1      28.871  17.137   6.680  0.00  0.00    -0.358 OA
HETATM   16  H   UNK N   1      28.409  16.377   6.973  0.00  0.00     0.217 HD
ENDBRANCH   6  15
TORSDOF 2
ENDMDL
MODEL 6
REMARK VINA RESULT:      -5.2      2.792      4.102
REMARK  2 active torsions:
REMARK  status: ('A' for Active; 'I' for Inactive)
REMARK    1  A    between atoms: O_1  and  C_10 
REMARK    2  A    between atoms: N_6  and  C_9 
ROOT
HETATM    1  N   UNK N   1      27.316  16.840   7.143  0.00  0.00    -0.363 N 
ATOM      2  HN  UNK N   1      26.445  17.134   7.584  1.00  0.00     0.165 HD
HETATM    3  C   UNK N   1      29.722  16.860   7.071  0.00  0.00     0.026 A 
HETATM    4  C   UNK N   1      28.501  17.258   7.671  0.00  0.00     0.078 A 
HETATM    5  C   UNK N   1      30.954  17.297   7.626  0.00  0.00     0.115 A 
HETATM    6  C   UNK N   1      28.515  18.081   8.808  0.00  0.00     0.093 A 
HETATM    7  C   UNK N   1      30.930  18.119   8.763  0.00  0.00     0.040 A 
HETATM    8  C   UNK N   1      29.665  16.037   5.938  0.00  0.00     0.018 A 
HETATM    9  C   UNK N   1      29.727  18.506   9.346  0.00  0.00     0.041 A 
HETATM   10  C   UNK N   1      28.441  15.627   5.421  0.00  0.00     0.018 A 
HETATM   11  C   UNK N   1      27.265  16.042   6.042  0.00  0.00     0.088 A 
ENDROOT
BRANCH   5  12
HETATM   12  N   UNK N   1      32.223  16.935   7.074  0.00  0.00    -0.115 N 
HETATM   13  O   UNK N   1      32.834  15.852   7.505  0.00  0.00    -0.532 OA
HETATM   14  O   UNK N   1      32.742  17.595   6.227  0.00  0.00    -0.532 OA
ENDBRANCH   5  12
BRANCH   6  15
HETATM   15  O   UNK N   1      27.365  18.466   9.387  0.00  0.00    -0.358 OA
HETATM   16  H   UNK N   1      27.084  19.356   9.324  0.00  0.00     0.217 HD
ENDBRANCH   6  15
TORSDOF 2
ENDMDL
MODEL 7
REMARK VINA RESULT:      -5.2     11.020     12.436
REMARK  2 active torsions:
REMARK  status: ('A' for Active; 'I' for Inactive)
REMARK    1  A    between atoms: O_1  and  C_10 
REMARK    2  A    between atoms: N_6  and  C_9 
ROOT
HETATM    1  N   UNK N   1      35.081  10.378  19.039  0.00  0.00    -0.363 N 
ATOM      2  HN  UNK N   1      35.013  10.404  20.056  1.00  0.00     0.165 HD
HETATM    3  C   UNK N   1      35.296  11.530  16.937  0.00  0.00     0.026 A 
HETATM    4  C   UNK N   1      35.200  11.548  18.351  0.00  0.00     0.078 A 
HETATM    5  C   UNK N   1      35.420  12.753  16.224  0.00  0.00     0.115 A 
HETATM    6  C   UNK N   1      35.228  12.771  19.039  0.00  0.00     0.093 A 
HETATM    7  C   UNK N   1      35.444  13.956  16.945  0.00  0.00     0.040 A 
HETATM    8  C   UNK N   1      35.265  10.289  16.286  0.00  0.00     0.018 A 
HETATM    9  C   UNK N   1      35.349  13.965  18.334  0.00  0.00     0.041 A 
HETATM   10  C   UNK N   1      35.142   9.110  17.016  0.00  0.00     0.018 A 
HETATM   11  C   UNK N   1      35.051   9.174  18.404  0.00  0.00     0.088 A 
ENDROOT
BRANCH   5  12
HETATM   12  N   UNK N   1      35.521  12.810  14.799  0.00  0.00    -0.115 N 
HETATM   13  O   UNK N   1      36.707  12.755  14.229  0.00  0.00    -0.532 OA
HETATM   14  O   UNK N   1      34.551  12.908  14.112  0.00  0.00    -0.532 OA
ENDBRANCH   5  12
BRANCH   6  15
HETATM   15  O   UNK N   1      35.138  12.802  20.379  0.00  0.00    -0.358 OA
HETATM   16  H   UNK N   1      35.915  12.804  20.901  0.00  0.00     0.217 HD
ENDBRANCH   6  15
TORSDOF 2
ENDMDL
MODEL 8
REMARK VINA RESULT:      -5.2     11.218     12.560
REMARK  2 active torsions:
REMARK  status: ('A' for Active; 'I' for Inactive)
REMARK    1  A    between atoms: O_1  and  C_10 
REMARK    2  A    between atoms: N_6  and  C_9 
ROOT
HETATM    1  N   UNK N   1      32.760  19.788  -5.132  0.00  0.00    -0.363 N 
ATOM      2  HN  UNK N   1      32.754  19.146  -5.924  1.00  0.00     0.165 HD
HETATM    3  C   UNK N   1      31.728  21.576  -3.895  0.00  0.00     0.026 A 
HETATM    4  C   UNK N   1      31.738  20.677  -4.991  0.00  0.00     0.078 A 
HETATM    5  C   UNK N   1      30.660  22.502  -3.753  0.00  0.00     0.115 A 
HETATM    6  C   UNK N   1      30.694  20.707  -5.929  0.00  0.00     0.093 A 
HETATM    7  C   UNK N   1      29.634  22.503  -4.710  0.00  0.00     0.040 A 
HETATM    8  C   UNK N   1      32.789  21.516  -2.980  0.00  0.00     0.018 A 
HETATM    9  C   UNK N   1      29.650  21.617  -5.784  0.00  0.00     0.041 A 
HETATM   10  C   UNK N   1      33.819  20.596  -3.150  0.00  0.00     0.018 A 
HETATM   11  C   UNK N   1      33.788  19.731  -4.242  0.00  0.00     0.088 A 
ENDROOT
BRANCH   5  12
HETATM   12  N   UNK N   1      30.586  23.437  -2.674  0.00  0.00    -0.115 N 
HETATM   13  O   UNK N   1      30.330  23.006  -1.457  0.00  0.00    -0.532 OA
HETATM   14  O   UNK N   1      30.752  24.605  -2.852  0.00  0.00    -0.532 OA
ENDBRANCH   5  12
BRANCH   6  15
HETATM   15  O   UNK N   1      30.690  19.860  -6.973  0.00  0.00    -0.358 OA
HETATM   16  H   UNK N   1      29.971  19.273  -7.098  0.00  0.00     0.217 HD
ENDBRANCH   6  15
TORSDOF 2
ENDMDL
MODEL 9
REMARK VINA RESULT:      -5.1     10.930     12.517
REMARK  2 active torsions:
REMARK  status: ('A' for Active; 'I' for Inactive)
REMARK    1  A    between atoms: O_1  and  C_10 
REMARK    2  A    between atoms: N_6  and  C_9 
ROOT
HETATM    1  N   UNK N   1      42.502  24.176   1.295  0.00  0.00    -0.363 N 
ATOM      2  HN  UNK N   1      43.082  25.014   1.267  1.00  0.00     0.165 HD
HETATM    3  C   UNK N   1      42.022  22.007   2.220  0.00  0.00     0.026 A 
HETATM    4  C   UNK N   1      42.817  23.179   2.168  0.00  0.00     0.078 A 
HETATM    5  C   UNK N   1      42.355  20.970   3.133  0.00  0.00     0.115 A 
HETATM    6  C   UNK N   1      43.928  23.309   3.015  0.00  0.00     0.093 A 
HETATM    7  C   UNK N   1      43.473  21.135   3.964  0.00  0.00     0.040 A 
HETATM    8  C   UNK N   1      40.920  21.915   1.358  0.00  0.00     0.018 A 
HETATM    9  C   UNK N   1      44.249  22.289   3.907  0.00  0.00     0.041 A 
HETATM   10  C   UNK N   1      40.623  22.949   0.477  0.00  0.00     0.018 A 
HETATM   11  C   UNK N   1      41.432  24.083   0.458  0.00  0.00     0.088 A 
ENDROOT
BRANCH   5  12
HETATM   12  N   UNK N   1      41.598  19.762   3.240  0.00  0.00    -0.115 N 
HETATM   13  O   UNK N   1      41.966  18.701   2.552  0.00  0.00    -0.532 OA
HETATM   14  O   UNK N   1      40.636  19.692   3.942  0.00  0.00    -0.532 OA
ENDBRANCH   5  12
BRANCH   6  15
HETATM   15  O   UNK N   1      44.691  24.415   2.976  0.00  0.00    -0.358 OA
HETATM   16  H   UNK N   1      44.882  24.823   2.155  0.00  0.00     0.217 HD
ENDBRANCH   6  15
TORSDOF 2
ENDMDL
