REMARK  7 active torsions:
REMARK  status: ('A' for Active; 'I' for Inactive)
REMARK    1  A    between atoms: S_1  and  C_8 
REMARK    2  A    between atoms: S_1  and  C_12 
REMARK    3  A    between atoms: O_5  and  C_15 
REMARK       I    between atoms: N_7  and  C_9 
REMARK    4  A    between atoms: N_7  and  C_11 
REMARK    5  A    between atoms: C_8  and  C_9 
REMARK    6  A    between atoms: C_11  and  C_15 
REMARK    7  A    between atoms: C_12  and  C_13 
ROOT
HETATM    1  C   UNK N   1       4.875   0.161   0.137  0.00  0.00     0.143 C 
HETATM    2  C   UNK N   1       5.801   0.862  -0.844  0.00  0.00     0.031 C 
ENDROOT
BRANCH   1   3
HETATM    3  S   UNK N   1       3.130   0.497  -0.331  0.00  0.00    -0.073 SA
BRANCH   3   4
HETATM    4  C   UNK N   1       3.057   2.269   0.029  0.00  0.00     0.226 C 
HETATM    5  O   UNK N   1       4.080   2.913   0.201  0.00  0.00    -0.279 OA
BRANCH   4   6
HETATM    6  C   UNK N   1       1.754   2.957   0.051  0.00  0.00     0.061 A 
HETATM    7  S   UNK N   1       0.266   2.262  -0.144  0.00  0.00    -0.098 SA
HETATM    8  C   UNK N   1      -0.699   3.606  -0.026  0.00  0.00     0.050 A 
HETATM    9  C   UNK N   1       0.170   4.688   0.177  0.00  0.00     0.009 A 
HETATM   10  C   UNK N   1       1.548   4.326   0.221  0.00  0.00     0.024 A 
ENDBRANCH   4   6
ENDBRANCH   3   4
ENDBRANCH   1   3
BRANCH   1  11
HETATM   11  C   UNK N   1       5.173  -1.320   0.089  0.00  0.00     0.232 C 
HETATM   12  O   UNK N   1       4.291  -2.121  -0.192  0.00  0.00    -0.272 OA
HETATM   13  N   UNK N   1       6.438  -1.753   0.312  0.00  0.00    -0.350 N 
HETATM   14  H   UNK N   1       7.133  -1.099   0.553  0.00  0.00     0.163 HD
BRANCH  13  15
HETATM   15  C   UNK N   1       6.795  -3.149   0.205  0.00  0.00     0.232 C 
BRANCH  15  16
HETATM   16  C   UNK N   1       8.280  -3.325   0.082  0.00  0.00     0.158 C 
HETATM   17  O   UNK N   1       9.029  -2.361   0.105  0.00  0.00    -0.649 OA
BRANCH  16  18
HETATM   18  O   UNK N   1       8.790  -4.561  -0.070  0.00  0.00    -0.775 OA
HETATM   19  H   UNK N   1       8.222  -5.299  -0.176  0.00  0.00     0.167 HD
ENDBRANCH  16  18
ENDBRANCH  15  16
ENDBRANCH  13  15
ENDBRANCH   1  11
TORSDOF 7
