MODEL 1
REMARK VINA RESULT:      -5.6      0.000      0.000
REMARK  7 active torsions:
REMARK  status: ('A' for Active; 'I' for Inactive)
REMARK    1  A    between atoms: S_1  and  C_8 
REMARK    2  A    between atoms: S_1  and  C_12 
REMARK    3  A    between atoms: O_5  and  C_15 
REMARK       I    between atoms: N_7  and  C_9 
REMARK    4  A    between atoms: N_7  and  C_11 
REMARK    5  A    between atoms: C_8  and  C_9 
REMARK    6  A    between atoms: C_11  and  C_15 
REMARK    7  A    between atoms: C_12  and  C_13 
ROOT
HETATM    1  C   UNK N   1      20.338  16.095   8.651  0.00  0.00     0.143 C 
HETATM    2  C   UNK N   1      20.633  14.686   9.140  0.00  0.00     0.031 C 
ENDROOT
BRANCH   1   3
HETATM    3  S   UNK N   1      20.316  16.107   6.814  0.00  0.00    -0.073 SA
BRANCH   3   4
HETATM    4  C   UNK N   1      21.269  17.616   6.511  0.00  0.00     0.226 C 
HETATM    5  O   UNK N   1      20.943  18.673   7.028  0.00  0.00    -0.279 OA
BRANCH   4   6
HETATM    6  C   UNK N   1      22.487  17.558   5.684  0.00  0.00     0.061 A 
HETATM    7  S   UNK N   1      23.589  16.325   5.633  0.00  0.00    -0.098 SA
HETATM    8  C   UNK N   1      24.667  16.945   4.536  0.00  0.00     0.050 A 
HETATM    9  C   UNK N   1      24.162  18.200   4.166  0.00  0.00     0.009 A 
HETATM   10  C   UNK N   1      22.938  18.546   4.810  0.00  0.00     0.024 A 
ENDBRANCH   4   6
ENDBRANCH   3   4
ENDBRANCH   1   3
BRANCH   1  11
HETATM   11  C   UNK N   1      18.999  16.517   9.211  0.00  0.00     0.232 C 
HETATM   12  O   UNK N   1      18.155  15.678   9.497  0.00  0.00    -0.272 OA
HETATM   13  N   UNK N   1      18.757  17.831   9.442  0.00  0.00    -0.350 N 
HETATM   14  H   UNK N   1      19.439  18.495   9.192  0.00  0.00     0.163 HD
BRANCH  13  15
HETATM   15  C   UNK N   1      17.525  18.284  10.045  0.00  0.00     0.232 C 
BRANCH  15  16
HETATM   16  C   UNK N   1      17.788  19.110  11.270  0.00  0.00     0.158 C 
HETATM   17  O   UNK N   1      16.942  19.223  12.143  0.00  0.00    -0.649 OA
BRANCH  16  18
HETATM   18  O   UNK N   1      18.967  19.747  11.398  0.00  0.00    -0.775 OA
HETATM   19  H   UNK N   1      19.200  20.155  12.209  0.00  0.00     0.167 HD
ENDBRANCH  16  18
ENDBRANCH  15  16
ENDBRANCH  13  15
ENDBRANCH   1  11
TORSDOF 7
ENDMDL
MODEL 2
REMARK VINA RESULT:      -5.6      8.573     11.335
REMARK  7 active torsions:
REMARK  status: ('A' for Active; 'I' for Inactive)
REMARK    1  A    between atoms: S_1  and  C_8 
REMARK    2  A    between atoms: S_1  and  C_12 
REMARK    3  A    between atoms: O_5  and  C_15 
REMARK       I    between atoms: N_7  and  C_9 
REMARK    4  A    between atoms: N_7  and  C_11 
REMARK    5  A    between atoms: C_8  and  C_9 
REMARK    6  A    between atoms: C_11  and  C_15 
REMARK    7  A    between atoms: C_12  and  C_13 
ROOT
HETATM    1  C   UNK N   1      30.096  16.978   8.104  0.00  0.00     0.143 C 
HETATM    2  C   UNK N   1      29.770  18.241   8.884  0.00  0.00     0.031 C 
ENDROOT
BRANCH   1   3
HETATM    3  S   UNK N   1      29.736  17.255   6.323  0.00  0.00    -0.073 SA
BRANCH   3   4
HETATM    4  C   UNK N   1      27.940  17.462   6.408  0.00  0.00     0.226 C 
HETATM    5  O   UNK N   1      27.236  16.600   6.911  0.00  0.00    -0.279 OA
BRANCH   4   6
HETATM    6  C   UNK N   1      27.325  18.710   5.924  0.00  0.00     0.061 A 
HETATM    7  S   UNK N   1      26.130  18.848   4.788  0.00  0.00    -0.098 SA
HETATM    8  C   UNK N   1      25.965  20.498   4.741  0.00  0.00     0.050 A 
HETATM    9  C   UNK N   1      26.894  21.005   5.661  0.00  0.00     0.009 A 
HETATM   10  C   UNK N   1      27.658  20.003   6.327  0.00  0.00     0.024 A 
ENDBRANCH   4   6
ENDBRANCH   3   4
ENDBRANCH   1   3
BRANCH   1  11
HETATM   11  C   UNK N   1      31.558  16.657   8.317  0.00  0.00     0.232 C 
HETATM   12  O   UNK N   1      32.004  15.561   8.004  0.00  0.00    -0.272 OA
HETATM   13  N   UNK N   1      32.384  17.611   8.812  0.00  0.00    -0.350 N 
HETATM   14  H   UNK N   1      32.008  18.482   9.074  0.00  0.00     0.163 HD
BRANCH  13  15
HETATM   15  C   UNK N   1      33.803  17.384   8.966  0.00  0.00     0.232 C 
BRANCH  15  16
HETATM   16  C   UNK N   1      34.600  18.278   8.062  0.00  0.00     0.158 C 
HETATM   17  O   UNK N   1      35.294  19.173   8.519  0.00  0.00    -0.649 OA
BRANCH  16  18
HETATM   18  O   UNK N   1      34.536  18.100   6.730  0.00  0.00    -0.775 OA
HETATM   19  H   UNK N   1      33.897  18.559   6.219  0.00  0.00     0.167 HD
ENDBRANCH  16  18
ENDBRANCH  15  16
ENDBRANCH  13  15
ENDBRANCH   1  11
TORSDOF 7
ENDMDL
MODEL 3
REMARK VINA RESULT:      -5.6      4.824      6.600
REMARK  7 active torsions:
REMARK  status: ('A' for Active; 'I' for Inactive)
REMARK    1  A    between atoms: S_1  and  C_8 
REMARK    2  A    between atoms: S_1  and  C_12 
REMARK    3  A    between atoms: O_5  and  C_15 
REMARK       I    between atoms: N_7  and  C_9 
REMARK    4  A    between atoms: N_7  and  C_11 
REMARK    5  A    between atoms: C_8  and  C_9 
REMARK    6  A    between atoms: C_11  and  C_15 
REMARK    7  A    between atoms: C_12  and  C_13 
ROOT
HETATM    1  C   UNK N   1      22.536  17.906   5.162  0.00  0.00     0.143 C 
HETATM    2  C   UNK N   1      21.879  16.581   5.512  0.00  0.00     0.031 C 
ENDROOT
BRANCH   1   3
HETATM    3  S   UNK N   1      24.010  17.592   4.110  0.00  0.00    -0.073 SA
BRANCH   3   4
HETATM    4  C   UNK N   1      24.737  19.249   4.107  0.00  0.00     0.226 C 
HETATM    5  O   UNK N   1      24.238  20.148   3.449  0.00  0.00    -0.279 OA
BRANCH   4   6
HETATM    6  C   UNK N   1      25.906  19.535   4.959  0.00  0.00     0.061 A 
HETATM    7  S   UNK N   1      26.991  18.436   5.550  0.00  0.00    -0.098 SA
HETATM    8  C   UNK N   1      27.985  19.445   6.413  0.00  0.00     0.050 A 
HETATM    9  C   UNK N   1      27.459  20.736   6.250  0.00  0.00     0.009 A 
HETATM   10  C   UNK N   1      26.292  20.789   5.434  0.00  0.00     0.024 A 
ENDBRANCH   4   6
ENDBRANCH   3   4
ENDBRANCH   1   3
BRANCH   1  11
HETATM   11  C   UNK N   1      21.521  18.756   4.433  0.00  0.00     0.232 C 
HETATM   12  O   UNK N   1      20.910  19.636   5.025  0.00  0.00    -0.272 OA
HETATM   13  N   UNK N   1      21.328  18.571   3.104  0.00  0.00    -0.350 N 
HETATM   14  H   UNK N   1      21.815  17.849   2.645  0.00  0.00     0.163 HD
BRANCH  13  15
HETATM   15  C   UNK N   1      20.426  19.404   2.342  0.00  0.00     0.232 C 
BRANCH  15  16
HETATM   16  C   UNK N   1      21.139  20.588   1.758  0.00  0.00     0.158 C 
HETATM   17  O   UNK N   1      21.289  20.697   0.552  0.00  0.00    -0.649 OA
BRANCH  16  18
HETATM   18  O   UNK N   1      21.631  21.535   2.579  0.00  0.00    -0.775 OA
HETATM   19  H   UNK N   1      22.143  21.295   3.327  0.00  0.00     0.167 HD
ENDBRANCH  16  18
ENDBRANCH  15  16
ENDBRANCH  13  15
ENDBRANCH   1  11
TORSDOF 7
ENDMDL
MODEL 4
REMARK VINA RESULT:      -5.5      9.750     11.876
REMARK  7 active torsions:
REMARK  status: ('A' for Active; 'I' for Inactive)
REMARK    1  A    between atoms: S_1  and  C_8 
REMARK    2  A    between atoms: S_1  and  C_12 
REMARK    3  A    between atoms: O_5  and  C_15 
REMARK       I    between atoms: N_7  and  C_9 
REMARK    4  A    between atoms: N_7  and  C_11 
REMARK    5  A    between atoms: C_8  and  C_9 
REMARK    6  A    between atoms: C_11  and  C_15 
REMARK    7  A    between atoms: C_12  and  C_13 
ROOT
HETATM    1  C   UNK N   1      33.394  16.071   9.013  0.00  0.00     0.143 C 
HETATM    2  C   UNK N   1      33.424  14.938  10.026  0.00  0.00     0.031 C 
ENDROOT
BRANCH   1   3
HETATM    3  S   UNK N   1      34.573  15.699   7.653  0.00  0.00    -0.073 SA
BRANCH   3   4
HETATM    4  C   UNK N   1      34.165  17.052   6.522  0.00  0.00     0.226 C 
HETATM    5  O   UNK N   1      34.412  18.210   6.819  0.00  0.00    -0.279 OA
BRANCH   4   6
HETATM    6  C   UNK N   1      33.587  16.749   5.200  0.00  0.00     0.061 A 
HETATM    7  S   UNK N   1      33.722  15.329   4.364  0.00  0.00    -0.098 SA
HETATM    8  C   UNK N   1      32.867  15.716   2.996  0.00  0.00     0.050 A 
HETATM    9  C   UNK N   1      32.435  17.039   3.173  0.00  0.00     0.009 A 
HETATM   10  C   UNK N   1      32.839  17.621   4.410  0.00  0.00     0.024 A 
ENDBRANCH   4   6
ENDBRANCH   3   4
ENDBRANCH   1   3
BRANCH   1  11
HETATM   11  C   UNK N   1      31.982  16.195   8.487  0.00  0.00     0.232 C 
HETATM   12  O   UNK N   1      31.513  15.328   7.761  0.00  0.00    -0.272 OA
HETATM   13  N   UNK N   1      31.220  17.250   8.865  0.00  0.00    -0.350 N 
HETATM   14  H   UNK N   1      31.616  17.948   9.436  0.00  0.00     0.163 HD
BRANCH  13  15
HETATM   15  C   UNK N   1      29.841  17.380   8.454  0.00  0.00     0.232 C 
BRANCH  15  16
HETATM   16  C   UNK N   1      29.051  18.189   9.440  0.00  0.00     0.158 C 
HETATM   17  O   UNK N   1      29.612  18.875  10.280  0.00  0.00    -0.649 OA
BRANCH  16  18
HETATM   18  O   UNK N   1      27.706  18.145   9.406  0.00  0.00    -0.775 OA
HETATM   19  H   UNK N   1      27.225  18.756   8.882  0.00  0.00     0.167 HD
ENDBRANCH  16  18
ENDBRANCH  15  16
ENDBRANCH  13  15
ENDBRANCH   1  11
TORSDOF 7
ENDMDL
MODEL 5
REMARK VINA RESULT:      -5.5     14.269     16.460
REMARK  7 active torsions:
REMARK  status: ('A' for Active; 'I' for Inactive)
REMARK    1  A    between atoms: S_1  and  C_8 
REMARK    2  A    between atoms: S_1  and  C_12 
REMARK    3  A    between atoms: O_5  and  C_15 
REMARK       I    between atoms: N_7  and  C_9 
REMARK    4  A    between atoms: N_7  and  C_11 
REMARK    5  A    between atoms: C_8  and  C_9 
REMARK    6  A    between atoms: C_11  and  C_15 
REMARK    7  A    between atoms: C_12  and  C_13 
ROOT
HETATM    1  C   UNK N   1      35.465  14.859  10.634  0.00  0.00     0.143 C 
HETATM    2  C   UNK N   1      36.731  14.627   9.825  0.00  0.00     0.031 C 
ENDROOT
BRANCH   1   3
HETATM    3  S   UNK N   1      35.867  14.780  12.426  0.00  0.00    -0.073 SA
BRANCH   3   4
HETATM    4  C   UNK N   1      35.234  13.128  12.805  0.00  0.00     0.226 C 
HETATM    5  O   UNK N   1      34.867  12.381  11.912  0.00  0.00    -0.279 OA
BRANCH   4   6
HETATM    6  C   UNK N   1      35.220  12.653  14.200  0.00  0.00     0.061 A 
HETATM    7  S   UNK N   1      34.486  11.286  14.771  0.00  0.00    -0.098 SA
HETATM    8  C   UNK N   1      34.860  11.408  16.383  0.00  0.00     0.050 A 
HETATM    9  C   UNK N   1      35.606  12.588  16.517  0.00  0.00     0.009 A 
HETATM   10  C   UNK N   1      35.810  13.289  15.292  0.00  0.00     0.024 A 
ENDBRANCH   4   6
ENDBRANCH   3   4
ENDBRANCH   1   3
BRANCH   1  11
HETATM   11  C   UNK N   1      34.910  16.215  10.263  0.00  0.00     0.232 C 
HETATM   12  O   UNK N   1      35.342  17.229  10.797  0.00  0.00    -0.272 OA
HETATM   13  N   UNK N   1      33.964  16.307   9.296  0.00  0.00    -0.350 N 
HETATM   14  H   UNK N   1      33.616  15.482   8.887  0.00  0.00     0.163 HD
BRANCH  13  15
HETATM   15  C   UNK N   1      33.454  17.582   8.849  0.00  0.00     0.232 C 
BRANCH  15  16
HETATM   16  C   UNK N   1      34.438  18.282   7.958  0.00  0.00     0.158 C 
HETATM   17  O   UNK N   1      34.507  18.014   6.769  0.00  0.00    -0.649 OA
BRANCH  16  18
HETATM   18  O   UNK N   1      35.264  19.207   8.481  0.00  0.00    -0.775 OA
HETATM   19  H   UNK N   1      35.311  20.066   8.109  0.00  0.00     0.167 HD
ENDBRANCH  16  18
ENDBRANCH  15  16
ENDBRANCH  13  15
ENDBRANCH   1  11
TORSDOF 7
ENDMDL
MODEL 6
REMARK VINA RESULT:      -5.5     16.368     18.268
REMARK  7 active torsions:
REMARK  status: ('A' for Active; 'I' for Inactive)
REMARK    1  A    between atoms: S_1  and  C_8 
REMARK    2  A    between atoms: S_1  and  C_12 
REMARK    3  A    between atoms: O_5  and  C_15 
REMARK       I    between atoms: N_7  and  C_9 
REMARK    4  A    between atoms: N_7  and  C_11 
REMARK    5  A    between atoms: C_8  and  C_9 
REMARK    6  A    between atoms: C_11  and  C_15 
REMARK    7  A    between atoms: C_12  and  C_13 
ROOT
HETATM    1  C   UNK N   1      36.682  12.467  13.626  0.00  0.00     0.143 C 
HETATM    2  C   UNK N   1      37.814  11.470  13.813  0.00  0.00     0.031 C 
ENDROOT
BRANCH   1   3
HETATM    3  S   UNK N   1      36.661  13.633  15.047  0.00  0.00    -0.073 SA
BRANCH   3   4
HETATM    4  C   UNK N   1      35.171  13.051  15.893  0.00  0.00     0.226 C 
HETATM    5  O   UNK N   1      34.105  12.981  15.302  0.00  0.00    -0.279 OA
BRANCH   4   6
HETATM    6  C   UNK N   1      35.257  12.594  17.292  0.00  0.00     0.061 A 
HETATM    7  S   UNK N   1      35.470  11.039  17.812  0.00  0.00    -0.098 SA
HETATM    8  C   UNK N   1      35.446  11.277  19.454  0.00  0.00     0.050 A 
HETATM    9  C   UNK N   1      35.257  12.655  19.641  0.00  0.00     0.009 A 
HETATM   10  C   UNK N   1      35.151  13.396  18.428  0.00  0.00     0.024 A 
ENDBRANCH   4   6
ENDBRANCH   3   4
ENDBRANCH   1   3
BRANCH   1  11
HETATM   11  C   UNK N   1      36.912  13.202  12.326  0.00  0.00     0.232 C 
HETATM   12  O   UNK N   1      37.479  12.649  11.393  0.00  0.00    -0.272 OA
HETATM   13  N   UNK N   1      36.441  14.465  12.182  0.00  0.00    -0.350 N 
HETATM   14  H   UNK N   1      36.002  14.903  12.946  0.00  0.00     0.163 HD
BRANCH  13  15
HETATM   15  C   UNK N   1      36.566  15.187  10.937  0.00  0.00     0.232 C 
BRANCH  15  16
HETATM   16  C   UNK N   1      35.453  16.179  10.767  0.00  0.00     0.158 C 
HETATM   17  O   UNK N   1      35.688  17.336  10.454  0.00  0.00    -0.649 OA
BRANCH  16  18
HETATM   18  O   UNK N   1      34.182  15.791  10.975  0.00  0.00    -0.775 OA
HETATM   19  H   UNK N   1      33.834  15.046  10.525  0.00  0.00     0.167 HD
ENDBRANCH  16  18
ENDBRANCH  15  16
ENDBRANCH  13  15
ENDBRANCH   1  11
TORSDOF 7
ENDMDL
MODEL 7
REMARK VINA RESULT:      -5.4     15.562     17.430
REMARK  7 active torsions:
REMARK  status: ('A' for Active; 'I' for Inactive)
REMARK    1  A    between atoms: S_1  and  C_8 
REMARK    2  A    between atoms: S_1  and  C_12 
REMARK    3  A    between atoms: O_5  and  C_15 
REMARK       I    between atoms: N_7  and  C_9 
REMARK    4  A    between atoms: N_7  and  C_11 
REMARK    5  A    between atoms: C_8  and  C_9 
REMARK    6  A    between atoms: C_11  and  C_15 
REMARK    7  A    between atoms: C_12  and  C_13 
ROOT
HETATM    1  C   UNK N   1      35.111  12.126  12.328  0.00  0.00     0.143 C 
HETATM    2  C   UNK N   1      34.880  10.770  11.681  0.00  0.00     0.031 C 
ENDROOT
BRANCH   1   3
HETATM    3  S   UNK N   1      36.786  12.159  13.084  0.00  0.00    -0.073 SA
BRANCH   3   4
HETATM    4  C   UNK N   1      36.479  13.308  14.448  0.00  0.00     0.226 C 
HETATM    5  O   UNK N   1      36.582  14.513  14.283  0.00  0.00    -0.279 OA
BRANCH   4   6
HETATM    6  C   UNK N   1      36.036  12.790  15.755  0.00  0.00     0.061 A 
HETATM    7  S   UNK N   1      36.120  11.223  16.277  0.00  0.00    -0.098 SA
HETATM    8  C   UNK N   1      35.440  11.383  17.781  0.00  0.00     0.050 A 
HETATM    9  C   UNK N   1      35.112  12.740  17.915  0.00  0.00     0.009 A 
HETATM   10  C   UNK N   1      35.446  13.532  16.778  0.00  0.00     0.024 A 
ENDBRANCH   4   6
ENDBRANCH   3   4
ENDBRANCH   1   3
BRANCH   1  11
HETATM   11  C   UNK N   1      34.980  13.187  11.259  0.00  0.00     0.232 C 
HETATM   12  O   UNK N   1      35.037  12.883  10.074  0.00  0.00    -0.272 OA
HETATM   13  N   UNK N   1      34.749  14.473  11.620  0.00  0.00    -0.350 N 
HETATM   14  H   UNK N   1      34.722  14.704  12.576  0.00  0.00     0.163 HD
BRANCH  13  15
HETATM   15  C   UNK N   1      34.540  15.513  10.640  0.00  0.00     0.232 C 
BRANCH  15  16
HETATM   16  C   UNK N   1      35.690  16.477  10.614  0.00  0.00     0.158 C 
HETATM   17  O   UNK N   1      35.527  17.637  10.268  0.00  0.00    -0.649 OA
BRANCH  16  18
HETATM   18  O   UNK N   1      36.918  16.052  10.961  0.00  0.00    -0.775 OA
HETATM   19  H   UNK N   1      37.201  16.096  11.854  0.00  0.00     0.167 HD
ENDBRANCH  16  18
ENDBRANCH  15  16
ENDBRANCH  13  15
ENDBRANCH   1  11
TORSDOF 7
ENDMDL
MODEL 8
REMARK VINA RESULT:      -5.3     11.346     13.773
REMARK  7 active torsions:
REMARK  status: ('A' for Active; 'I' for Inactive)
REMARK    1  A    between atoms: S_1  and  C_8 
REMARK    2  A    between atoms: S_1  and  C_12 
REMARK    3  A    between atoms: O_5  and  C_15 
REMARK       I    between atoms: N_7  and  C_9 
REMARK    4  A    between atoms: N_7  and  C_11 
REMARK    5  A    between atoms: C_8  and  C_9 
REMARK    6  A    between atoms: C_11  and  C_15 
REMARK    7  A    between atoms: C_12  and  C_13 
ROOT
HETATM    1  C   UNK N   1      33.800  17.344   8.921  0.00  0.00     0.143 C 
HETATM    2  C   UNK N   1      34.406  18.345   7.950  0.00  0.00     0.031 C 
ENDROOT
BRANCH   1   3
HETATM    3  S   UNK N   1      32.935  16.028   7.974  0.00  0.00    -0.073 SA
BRANCH   3   4
HETATM    4  C   UNK N   1      31.684  17.032   7.136  0.00  0.00     0.226 C 
HETATM    5  O   UNK N   1      31.782  17.286   5.946  0.00  0.00    -0.279 OA
BRANCH   4   6
HETATM    6  C   UNK N   1      30.499  17.495   7.881  0.00  0.00     0.061 A 
HETATM    7  S   UNK N   1      28.916  17.238   7.478  0.00  0.00    -0.098 SA
HETATM    8  C   UNK N   1      28.167  18.040   8.722  0.00  0.00     0.050 A 
HETATM    9  C   UNK N   1      29.196  18.556   9.523  0.00  0.00     0.009 A 
HETATM   10  C   UNK N   1      30.506  18.251   9.053  0.00  0.00     0.024 A 
ENDBRANCH   4   6
ENDBRANCH   3   4
ENDBRANCH   1   3
BRANCH   1  11
HETATM   11  C   UNK N   1      34.917  16.764   9.757  0.00  0.00     0.232 C 
HETATM   12  O   UNK N   1      35.680  17.500  10.369  0.00  0.00    -0.272 OA
HETATM   13  N   UNK N   1      35.040  15.418   9.864  0.00  0.00    -0.350 N 
HETATM   14  H   UNK N   1      34.430  14.839   9.353  0.00  0.00     0.163 HD
BRANCH  13  15
HETATM   15  C   UNK N   1      36.042  14.810  10.709  0.00  0.00     0.232 C 
BRANCH  15  16
HETATM   16  C   UNK N   1      35.482  14.460  12.056  0.00  0.00     0.158 C 
HETATM   17  O   UNK N   1      36.137  14.634  13.071  0.00  0.00    -0.649 OA
BRANCH  16  18
HETATM   18  O   UNK N   1      34.246  13.935  12.143  0.00  0.00    -0.775 OA
HETATM   19  H   UNK N   1      33.948  13.553  12.945  0.00  0.00     0.167 HD
ENDBRANCH  16  18
ENDBRANCH  15  16
ENDBRANCH  13  15
ENDBRANCH   1  11
TORSDOF 7
ENDMDL
MODEL 9
REMARK VINA RESULT:      -5.3      3.599      6.605
REMARK  7 active torsions:
REMARK  status: ('A' for Active; 'I' for Inactive)
REMARK    1  A    between atoms: S_1  and  C_8 
REMARK    2  A    between atoms: S_1  and  C_12 
REMARK    3  A    between atoms: O_5  and  C_15 
REMARK       I    between atoms: N_7  and  C_9 
REMARK    4  A    between atoms: N_7  and  C_11 
REMARK    5  A    between atoms: C_8  and  C_9 
REMARK    6  A    between atoms: C_11  and  C_15 
REMARK    7  A    between atoms: C_12  and  C_13 
ROOT
HETATM    1  C   UNK N   1      21.212  16.460   3.889  0.00  0.00     0.143 C 
HETATM    2  C   UNK N   1      21.769  15.422   2.929  0.00  0.00     0.031 C 
ENDROOT
BRANCH   1   3
HETATM    3  S   UNK N   1      22.567  17.080   4.964  0.00  0.00    -0.073 SA
BRANCH   3   4
HETATM    4  C   UNK N   1      21.630  17.395   6.480  0.00  0.00     0.226 C 
HETATM    5  O   UNK N   1      21.256  18.524   6.758  0.00  0.00    -0.279 OA
BRANCH   4   6
HETATM    6  C   UNK N   1      21.256  16.270   7.355  0.00  0.00     0.061 A 
HETATM    7  S   UNK N   1      21.737  14.696   7.200  0.00  0.00    -0.098 SA
HETATM    8  C   UNK N   1      20.933  14.020   8.485  0.00  0.00     0.050 A 
HETATM    9  C   UNK N   1      20.231  15.069   9.095  0.00  0.00     0.009 A 
HETATM   10  C   UNK N   1      20.411  16.334   8.463  0.00  0.00     0.024 A 
ENDBRANCH   4   6
ENDBRANCH   3   4
ENDBRANCH   1   3
BRANCH   1  11
HETATM   11  C   UNK N   1      20.612  17.582   3.073  0.00  0.00     0.232 C 
HETATM   12  O   UNK N   1      19.977  17.337   2.056  0.00  0.00    -0.272 OA
HETATM   13  N   UNK N   1      20.741  18.861   3.502  0.00  0.00    -0.350 N 
HETATM   14  H   UNK N   1      21.268  19.044   4.313  0.00  0.00     0.163 HD
BRANCH  13  15
HETATM   15  C   UNK N   1      20.124  19.965   2.803  0.00  0.00     0.232 C 
BRANCH  15  16
HETATM   16  C   UNK N   1      21.141  20.766   2.043  0.00  0.00     0.158 C 
HETATM   17  O   UNK N   1      21.368  20.535   0.866  0.00  0.00    -0.649 OA
BRANCH  16  18
HETATM   18  O   UNK N   1      21.820  21.742   2.673  0.00  0.00    -0.775 OA
HETATM   19  H   UNK N   1      21.373  22.342   3.239  0.00  0.00     0.167 HD
ENDBRANCH  16  18
ENDBRANCH  15  16
ENDBRANCH  13  15
ENDBRANCH   1  11
TORSDOF 7
ENDMDL
