MODEL 1
REMARK VINA RESULT:      -5.9      0.000      0.000
REMARK  2 active torsions:
REMARK  status: ('A' for Active; 'I' for Inactive)
REMARK    1  A    between atoms: N_3  and  C_8 
REMARK    2  A    between atoms: N_4  and  C_6 
ROOT
HETATM    1  O   UNK N   1      36.875  14.238  14.813  0.00  0.00    -0.264 OA
HETATM    2  N   UNK N   1      34.716  11.738  14.227  0.00  0.00    -0.289 N 
HETATM    3  N   UNK N   1      35.409  12.499  15.078  0.00  0.00    -0.217 N 
HETATM    4  C   UNK N   1      34.980  12.130  12.961  0.00  0.00     0.057 A 
HETATM    5  C   UNK N   1      35.883  13.189  13.002  0.00  0.00     0.124 A 
HETATM    6  C   UNK N   1      36.130  13.393  14.344  0.00  0.00     0.295 A 
HETATM    7  C   UNK N   1      34.377  11.497  11.750  0.00  0.00     0.072 C 
HETATM    8  C   UNK N   1      33.810  10.651  14.579  0.00  0.00     0.178 C 
ENDROOT
BRANCH   3   9
HETATM    9  C   UNK N   1      35.402  12.397  16.522  0.00  0.00     0.060 A 
HETATM   10  C   UNK N   1      35.735  11.185  17.150  0.00  0.00     0.031 A 
HETATM   11  C   UNK N   1      35.731  11.076  18.541  0.00  0.00     0.002 A 
HETATM   12  C   UNK N   1      35.394  12.182  19.323  0.00  0.00     0.000 A 
HETATM   13  C   UNK N   1      35.061  13.392  18.714  0.00  0.00     0.002 A 
HETATM   14  C   UNK N   1      35.065  13.498  17.323  0.00  0.00     0.031 A 
ENDBRANCH   3   9
BRANCH   5  15
HETATM   15  N   UNK N   1      36.444  13.919  11.910  0.00  0.00    -0.383 N 
HETATM   16  C   UNK N   1      37.501  13.362  11.111  0.00  0.00     0.149 C 
HETATM   17  C   UNK N   1      35.963  15.236  11.582  0.00  0.00     0.149 C 
ENDBRANCH   5  15
TORSDOF 2
ENDMDL
MODEL 2
REMARK VINA RESULT:      -5.8      2.011      2.886
REMARK  2 active torsions:
REMARK  status: ('A' for Active; 'I' for Inactive)
REMARK    1  A    between atoms: N_3  and  C_8 
REMARK    2  A    between atoms: N_4  and  C_6 
ROOT
HETATM    1  O   UNK N   1      34.929  14.236  12.753  0.00  0.00    -0.264 OA
HETATM    2  N   UNK N   1      37.195  11.926  13.636  0.00  0.00    -0.289 N 
HETATM    3  N   UNK N   1      36.416  12.967  13.944  0.00  0.00    -0.217 N 
HETATM    4  C   UNK N   1      37.019  11.605  12.335  0.00  0.00     0.057 A 
HETATM    5  C   UNK N   1      36.086  12.479  11.784  0.00  0.00     0.124 A 
HETATM    6  C   UNK N   1      35.730  13.318  12.820  0.00  0.00     0.295 A 
HETATM    7  C   UNK N   1      37.733  10.487  11.649  0.00  0.00     0.072 C 
HETATM    8  C   UNK N   1      38.100  11.226  14.541  0.00  0.00     0.178 C 
ENDROOT
BRANCH   3   9
HETATM    9  C   UNK N   1      36.314  13.611  15.236  0.00  0.00     0.060 A 
HETATM   10  C   UNK N   1      37.138  14.706  15.550  0.00  0.00     0.031 A 
HETATM   11  C   UNK N   1      37.048  15.334  16.792  0.00  0.00     0.002 A 
HETATM   12  C   UNK N   1      36.130  14.875  17.738  0.00  0.00     0.000 A 
HETATM   13  C   UNK N   1      35.305  13.789  17.441  0.00  0.00     0.002 A 
HETATM   14  C   UNK N   1      35.398  13.162  16.198  0.00  0.00     0.031 A 
ENDBRANCH   3   9
BRANCH   5  15
HETATM   15  N   UNK N   1      35.592  12.518  10.445  0.00  0.00    -0.383 N 
HETATM   16  C   UNK N   1      36.142  13.428   9.477  0.00  0.00     0.149 C 
HETATM   17  C   UNK N   1      34.525  11.645  10.029  0.00  0.00     0.149 C 
ENDBRANCH   5  15
TORSDOF 2
ENDMDL
MODEL 3
REMARK VINA RESULT:      -5.7     16.682     18.421
REMARK  2 active torsions:
REMARK  status: ('A' for Active; 'I' for Inactive)
REMARK    1  A    between atoms: N_3  and  C_8 
REMARK    2  A    between atoms: N_4  and  C_6 
ROOT
HETATM    1  O   UNK N   1      21.174  18.671   7.106  0.00  0.00    -0.264 OA
HETATM    2  N   UNK N   1      21.194  16.266   4.767  0.00  0.00    -0.289 N 
HETATM    3  N   UNK N   1      21.492  17.508   5.159  0.00  0.00    -0.217 N 
HETATM    4  C   UNK N   1      20.579  15.613   5.778  0.00  0.00     0.057 A 
HETATM    5  C   UNK N   1      20.478  16.474   6.867  0.00  0.00     0.124 A 
HETATM    6  C   UNK N   1      21.059  17.652   6.444  0.00  0.00     0.295 A 
HETATM    7  C   UNK N   1      20.106  14.199   5.690  0.00  0.00     0.072 C 
HETATM    8  C   UNK N   1      21.477  15.680   3.461  0.00  0.00     0.178 C 
ENDROOT
BRANCH   3   9
HETATM    9  C   UNK N   1      22.154  18.524   4.368  0.00  0.00     0.060 A 
HETATM   10  C   UNK N   1      23.552  18.657   4.413  0.00  0.00     0.031 A 
HETATM   11  C   UNK N   1      24.200  19.633   3.654  0.00  0.00     0.002 A 
HETATM   12  C   UNK N   1      23.456  20.488   2.841  0.00  0.00     0.000 A 
HETATM   13  C   UNK N   1      22.067  20.367   2.786  0.00  0.00     0.002 A 
HETATM   14  C   UNK N   1      21.421  19.391   3.545  0.00  0.00     0.031 A 
ENDBRANCH   3   9
BRANCH   5  15
HETATM   15  N   UNK N   1      19.903  16.219   8.149  0.00  0.00    -0.383 N 
HETATM   16  C   UNK N   1      20.559  15.360   9.098  0.00  0.00     0.149 C 
HETATM   17  C   UNK N   1      18.647  16.815   8.524  0.00  0.00     0.149 C 
ENDBRANCH   5  15
TORSDOF 2
ENDMDL
MODEL 4
REMARK VINA RESULT:      -5.6     11.070     14.030
REMARK  2 active torsions:
REMARK  status: ('A' for Active; 'I' for Inactive)
REMARK    1  A    between atoms: N_3  and  C_8 
REMARK    2  A    between atoms: N_4  and  C_6 
ROOT
HETATM    1  O   UNK N   1      27.743  19.478   7.419  0.00  0.00    -0.264 OA
HETATM    2  N   UNK N   1      28.576  17.154   5.147  0.00  0.00    -0.289 N 
HETATM    3  N   UNK N   1      27.850  18.214   5.512  0.00  0.00    -0.217 N 
HETATM    4  C   UNK N   1      29.399  16.807   6.161  0.00  0.00     0.057 A 
HETATM    5  C   UNK N   1      29.193  17.682   7.223  0.00  0.00     0.124 A 
HETATM    6  C   UNK N   1      28.215  18.551   6.782  0.00  0.00     0.295 A 
HETATM    7  C   UNK N   1      30.356  15.661   6.100  0.00  0.00     0.072 C 
HETATM    8  C   UNK N   1      28.512  16.462   3.865  0.00  0.00     0.178 C 
ENDROOT
BRANCH   3   9
HETATM    9  C   UNK N   1      26.852  18.890   4.710  0.00  0.00     0.060 A 
HETATM   10  C   UNK N   1      27.220  19.958   3.873  0.00  0.00     0.031 A 
HETATM   11  C   UNK N   1      26.266  20.616   3.095  0.00  0.00     0.002 A 
HETATM   12  C   UNK N   1      24.931  20.214   3.146  0.00  0.00     0.000 A 
HETATM   13  C   UNK N   1      24.551  19.156   3.972  0.00  0.00     0.002 A 
HETATM   14  C   UNK N   1      25.506  18.499   4.749  0.00  0.00     0.031 A 
ENDBRANCH   3   9
BRANCH   5  15
HETATM   15  N   UNK N   1      29.837  17.698   8.497  0.00  0.00    -0.383 N 
HETATM   16  C   UNK N   1      31.187  18.174   8.640  0.00  0.00     0.149 C 
HETATM   17  C   UNK N   1      29.150  17.236   9.675  0.00  0.00     0.149 C 
ENDBRANCH   5  15
TORSDOF 2
ENDMDL
MODEL 5
REMARK VINA RESULT:      -5.5     10.294     13.377
REMARK  2 active torsions:
REMARK  status: ('A' for Active; 'I' for Inactive)
REMARK    1  A    between atoms: N_3  and  C_8 
REMARK    2  A    between atoms: N_4  and  C_6 
ROOT
HETATM    1  O   UNK N   1      30.184  17.126   3.927  0.00  0.00    -0.264 OA
HETATM    2  N   UNK N   1      29.054  18.077   6.938  0.00  0.00    -0.289 N 
HETATM    3  N   UNK N   1      28.907  18.002   5.613  0.00  0.00    -0.217 N 
HETATM    4  C   UNK N   1      30.222  17.496   7.292  0.00  0.00     0.057 A 
HETATM    5  C   UNK N   1      30.851  17.026   6.143  0.00  0.00     0.124 A 
HETATM    6  C   UNK N   1      30.000  17.360   5.110  0.00  0.00     0.295 A 
HETATM    7  C   UNK N   1      30.711  17.399   8.701  0.00  0.00     0.072 C 
HETATM    8  C   UNK N   1      28.119  18.684   7.879  0.00  0.00     0.178 C 
ENDROOT
BRANCH   3   9
HETATM    9  C   UNK N   1      27.791  18.507   4.842  0.00  0.00     0.060 A 
HETATM   10  C   UNK N   1      27.795  19.833   4.374  0.00  0.00     0.031 A 
HETATM   11  C   UNK N   1      26.724  20.330   3.631  0.00  0.00     0.002 A 
HETATM   12  C   UNK N   1      25.635  19.506   3.345  0.00  0.00     0.000 A 
HETATM   13  C   UNK N   1      25.616  18.188   3.803  0.00  0.00     0.002 A 
HETATM   14  C   UNK N   1      26.688  17.693   4.546  0.00  0.00     0.031 A 
ENDBRANCH   3   9
BRANCH   5  15
HETATM   15  N   UNK N   1      32.102  16.346   6.032  0.00  0.00    -0.383 N 
HETATM   16  C   UNK N   1      33.317  17.068   5.768  0.00  0.00     0.149 C 
HETATM   17  C   UNK N   1      32.178  14.916   6.183  0.00  0.00     0.149 C 
ENDBRANCH   5  15
TORSDOF 2
ENDMDL
MODEL 6
REMARK VINA RESULT:      -5.5     21.921     24.694
REMARK  2 active torsions:
REMARK  status: ('A' for Active; 'I' for Inactive)
REMARK    1  A    between atoms: N_3  and  C_8 
REMARK    2  A    between atoms: N_4  and  C_6 
ROOT
HETATM    1  O   UNK N   1      29.388  26.855  -4.042  0.00  0.00    -0.264 OA
HETATM    2  N   UNK N   1      26.640  25.185  -4.999  0.00  0.00    -0.289 N 
HETATM    3  N   UNK N   1      27.896  25.192  -4.545  0.00  0.00    -0.217 N 
HETATM    4  C   UNK N   1      26.223  26.458  -5.178  0.00  0.00     0.057 A 
HETATM    5  C   UNK N   1      27.257  27.319  -4.822  0.00  0.00     0.124 A 
HETATM    6  C   UNK N   1      28.289  26.492  -4.431  0.00  0.00     0.295 A 
HETATM    7  C   UNK N   1      24.864  26.827  -5.677  0.00  0.00     0.072 C 
HETATM    8  C   UNK N   1      25.824  24.006  -5.268  0.00  0.00     0.178 C 
ENDROOT
BRANCH   3   9
HETATM    9  C   UNK N   1      28.702  24.031  -4.228  0.00  0.00     0.060 A 
HETATM   10  C   UNK N   1      28.891  23.643  -2.891  0.00  0.00     0.031 A 
HETATM   11  C   UNK N   1      29.665  22.526  -2.575  0.00  0.00     0.002 A 
HETATM   12  C   UNK N   1      30.261  21.783  -3.595  0.00  0.00     0.000 A 
HETATM   13  C   UNK N   1      30.083  22.156  -4.927  0.00  0.00     0.002 A 
HETATM   14  C   UNK N   1      29.308  23.274  -5.241  0.00  0.00     0.031 A 
ENDBRANCH   3   9
BRANCH   5  15
HETATM   15  N   UNK N   1      27.270  28.747  -4.848  0.00  0.00    -0.383 N 
HETATM   16  C   UNK N   1      27.896  29.464  -5.926  0.00  0.00     0.149 C 
HETATM   17  C   UNK N   1      26.655  29.507  -3.791  0.00  0.00     0.149 C 
ENDBRANCH   5  15
TORSDOF 2
ENDMDL
MODEL 7
REMARK VINA RESULT:      -5.5     21.643     24.435
REMARK  2 active torsions:
REMARK  status: ('A' for Active; 'I' for Inactive)
REMARK    1  A    between atoms: N_3  and  C_8 
REMARK    2  A    between atoms: N_4  and  C_6 
ROOT
HETATM    1  O   UNK N   1      26.805  24.646  -3.400  0.00  0.00    -0.264 OA
HETATM    2  N   UNK N   1      29.115  25.826  -5.528  0.00  0.00    -0.289 N 
HETATM    3  N   UNK N   1      28.710  24.910  -4.644  0.00  0.00    -0.217 N 
HETATM    4  C   UNK N   1      28.153  26.764  -5.673  0.00  0.00     0.057 A 
HETATM    5  C   UNK N   1      27.083  26.436  -4.845  0.00  0.00     0.124 A 
HETATM    6  C   UNK N   1      27.466  25.269  -4.216  0.00  0.00     0.295 A 
HETATM    7  C   UNK N   1      28.268  27.942  -6.585  0.00  0.00     0.072 C 
HETATM    8  C   UNK N   1      30.387  25.837  -6.241  0.00  0.00     0.178 C 
ENDROOT
BRANCH   3   9
HETATM    9  C   UNK N   1      29.451  23.744  -4.214  0.00  0.00     0.060 A 
HETATM   10  C   UNK N   1      29.480  22.588  -5.012  0.00  0.00     0.031 A 
HETATM   11  C   UNK N   1      30.192  21.458  -4.607  0.00  0.00     0.002 A 
HETATM   12  C   UNK N   1      30.885  21.472  -3.396  0.00  0.00     0.000 A 
HETATM   13  C   UNK N   1      30.866  22.613  -2.593  0.00  0.00     0.002 A 
HETATM   14  C   UNK N   1      30.153  23.741  -3.000  0.00  0.00     0.031 A 
ENDBRANCH   3   9
BRANCH   5  15
HETATM   15  N   UNK N   1      25.851  27.136  -4.668  0.00  0.00    -0.383 N 
HETATM   16  C   UNK N   1      25.650  28.013  -3.547  0.00  0.00     0.149 C 
HETATM   17  C   UNK N   1      24.774  26.979  -5.612  0.00  0.00     0.149 C 
ENDBRANCH   5  15
TORSDOF 2
ENDMDL
MODEL 8
REMARK VINA RESULT:      -5.5     16.272     17.852
REMARK  2 active torsions:
REMARK  status: ('A' for Active; 'I' for Inactive)
REMARK    1  A    between atoms: N_3  and  C_8 
REMARK    2  A    between atoms: N_4  and  C_6 
ROOT
HETATM    1  O   UNK N   1      21.852  18.579   6.412  0.00  0.00    -0.264 OA
HETATM    2  N   UNK N   1      20.426  16.163   4.573  0.00  0.00    -0.289 N 
HETATM    3  N   UNK N   1      20.898  16.609   5.740  0.00  0.00    -0.217 N 
HETATM    4  C   UNK N   1      20.571  17.125   3.635  0.00  0.00     0.057 A 
HETATM    5  C   UNK N   1      21.163  18.238   4.227  0.00  0.00     0.124 A 
HETATM    6  C   UNK N   1      21.353  17.879   5.546  0.00  0.00     0.295 A 
HETATM    7  C   UNK N   1      20.149  16.970   2.210  0.00  0.00     0.072 C 
HETATM    8  C   UNK N   1      19.839  14.851   4.321  0.00  0.00     0.178 C 
ENDROOT
BRANCH   3   9
HETATM    9  C   UNK N   1      20.924  15.880   6.991  0.00  0.00     0.060 A 
HETATM   10  C   UNK N   1      19.885  16.037   7.925  0.00  0.00     0.031 A 
HETATM   11  C   UNK N   1      19.901  15.340   9.133  0.00  0.00     0.002 A 
HETATM   12  C   UNK N   1      20.958  14.476   9.423  0.00  0.00     0.000 A 
HETATM   13  C   UNK N   1      21.997  14.311   8.506  0.00  0.00     0.002 A 
HETATM   14  C   UNK N   1      21.979  15.009   7.298  0.00  0.00     0.031 A 
ENDBRANCH   3   9
BRANCH   5  15
HETATM   15  N   UNK N   1      21.506  19.485   3.623  0.00  0.00    -0.383 N 
HETATM   16  C   UNK N   1      20.504  20.482   3.359  0.00  0.00     0.149 C 
HETATM   17  C   UNK N   1      22.869  19.777   3.262  0.00  0.00     0.149 C 
ENDBRANCH   5  15
TORSDOF 2
ENDMDL
MODEL 9
REMARK VINA RESULT:      -5.4     24.298     26.011
REMARK  2 active torsions:
REMARK  status: ('A' for Active; 'I' for Inactive)
REMARK    1  A    between atoms: N_3  and  C_8 
REMARK    2  A    between atoms: N_4  and  C_6 
ROOT
HETATM    1  O   UNK N   1      25.294  24.913  -7.237  0.00  0.00    -0.264 OA
HETATM    2  N   UNK N   1      28.138  24.334  -5.554  0.00  0.00    -0.289 N 
HETATM    3  N   UNK N   1      27.090  25.116  -5.832  0.00  0.00    -0.217 N 
HETATM    4  C   UNK N   1      28.059  23.203  -6.290  0.00  0.00     0.057 A 
HETATM    5  C   UNK N   1      26.910  23.261  -7.074  0.00  0.00     0.124 A 
HETATM    6  C   UNK N   1      26.328  24.473  -6.762  0.00  0.00     0.295 A 
HETATM    7  C   UNK N   1      29.066  22.101  -6.233  0.00  0.00     0.072 C 
HETATM    8  C   UNK N   1      29.210  24.629  -4.611  0.00  0.00     0.178 C 
ENDROOT
BRANCH   3   9
HETATM    9  C   UNK N   1      26.809  26.413  -5.254  0.00  0.00     0.060 A 
HETATM   10  C   UNK N   1      26.082  26.512  -4.055  0.00  0.00     0.031 A 
HETATM   11  C   UNK N   1      25.805  27.757  -3.489  0.00  0.00     0.002 A 
HETATM   12  C   UNK N   1      26.252  28.920  -4.117  0.00  0.00     0.000 A 
HETATM   13  C   UNK N   1      26.975  28.837  -5.308  0.00  0.00     0.002 A 
HETATM   14  C   UNK N   1      27.250  27.591  -5.872  0.00  0.00     0.031 A 
ENDBRANCH   3   9
BRANCH   5  15
HETATM   15  N   UNK N   1      26.422  22.294  -8.004  0.00  0.00    -0.383 N 
HETATM   16  C   UNK N   1      27.024  22.141  -9.301  0.00  0.00     0.149 C 
HETATM   17  C   UNK N   1      25.309  21.445  -7.665  0.00  0.00     0.149 C 
ENDBRANCH   5  15
TORSDOF 2
ENDMDL
