MODEL 1
REMARK VINA RESULT:      -6.5      0.000      0.000
REMARK  6 active torsions:
REMARK  status: ('A' for Active; 'I' for Inactive)
REMARK    1  A    between atoms: O_2  and  C_20 
REMARK    2  A    between atoms: N_3  and  C_15 
REMARK    3  A    between atoms: N_4  and  C_14 
REMARK       I    between atoms: N_4  and  C_17 
REMARK    4  A    between atoms: C_10  and  C_14 
REMARK    5  A    between atoms: C_15  and  C_16 
REMARK    6  A    between atoms: C_17  and  C_18 
ROOT
HETATM    1  N   UNK N   1      19.579  15.472   2.197  0.00  0.00    -0.284 N 
ATOM      2  HN  UNK N   1      19.511  14.558   2.644  1.00  0.00     0.188 HD
HETATM    3  N   UNK N   1      19.359  17.096   0.741  0.00  0.00    -0.284 N 
ATOM      4  HN  UNK N   1      19.097  17.615  -0.098  1.00  0.00     0.188 HD
HETATM    5  N   UNK N   1      19.084  15.821   1.012  0.00  0.00    -0.242 N 
HETATM    6  C   UNK N   1      21.417  17.987   4.179  0.00  0.00     0.067 A 
HETATM    7  C   UNK N   1      21.267  19.057   3.228  0.00  0.00     0.086 A 
HETATM    8  C   UNK N   1      20.854  16.725   3.881  0.00  0.00     0.053 A 
HETATM    9  C   UNK N   1      20.184  16.563   2.684  0.00  0.00     0.078 A 
HETATM   10  C   UNK N   1      20.570  18.828   2.010  0.00  0.00     0.071 A 
HETATM   11  C   UNK N   1      20.048  17.562   1.792  0.00  0.00     0.080 A 
HETATM   12  H   UNK N   1      18.583  15.219   0.416  0.00  0.00     0.208 HD
ENDROOT
BRANCH   6  13
HETATM   13  C   UNK N   1      22.152  18.195   5.479  0.00  0.00     0.254 C 
HETATM   14  O   UNK N   1      21.511  18.414   6.494  0.00  0.00    -0.268 OA
HETATM   15  N   UNK N   1      23.511  18.168   5.581  0.00  0.00    -0.355 N 
HETATM   16  H   UNK N   1      23.899  18.272   6.481  0.00  0.00     0.162 HD
BRANCH  15  17
HETATM   17  C   UNK N   1      24.428  17.999   4.479  0.00  0.00     0.158 C 
BRANCH  17  18
HETATM   18  C   UNK N   1      25.871  18.075   4.943  0.00  0.00     0.241 C 
HETATM   19  N   UNK N   1      26.719  18.620   3.896  0.00  0.00     0.098 N 
HETATM   20  C   UNK N   1      28.040  18.071   4.171  0.00  0.00     0.273 C 
HETATM   21  C   UNK N   1      27.844  16.739   4.872  0.00  0.00     0.032 C 
HETATM   22  C   UNK N   1      26.373  16.676   5.205  0.00  0.00     0.039 C 
BRANCH  19  23
HETATM   23  C   UNK N   1      26.786  20.064   4.067  0.00  0.00     0.299 C 
BRANCH  23  24
HETATM   24  C   UNK N   1      27.426  20.392   5.373  0.00  0.00    -0.007 C 
HETATM   25  C   UNK N   1      27.078  21.496   6.024  0.00  0.00     0.008 C 
ENDBRANCH  23  24
ENDBRANCH  19  23
ENDBRANCH  17  18
ENDBRANCH  15  17
ENDBRANCH   6  13
BRANCH   7  26
HETATM   26  O   UNK N   1      21.802  20.277   3.488  0.00  0.00    -0.355 OA
HETATM   27  C   UNK N   1      22.855  20.813   2.781  0.00  0.00     0.210 C 
ENDBRANCH   7  26
TORSDOF 6
ENDMDL
MODEL 2
REMARK VINA RESULT:      -6.5      8.836     11.975
REMARK  6 active torsions:
REMARK  status: ('A' for Active; 'I' for Inactive)
REMARK    1  A    between atoms: O_2  and  C_20 
REMARK    2  A    between atoms: N_3  and  C_15 
REMARK    3  A    between atoms: N_4  and  C_14 
REMARK       I    between atoms: N_4  and  C_17 
REMARK    4  A    between atoms: C_10  and  C_14 
REMARK    5  A    between atoms: C_15  and  C_16 
REMARK    6  A    between atoms: C_17  and  C_18 
ROOT
HETATM    1  N   UNK N   1      32.851  17.120   3.596  0.00  0.00    -0.284 N 
ATOM      2  HN  UNK N   1      33.730  17.142   3.081  1.00  0.00     0.188 HD
HETATM    3  N   UNK N   1      30.715  16.939   4.059  0.00  0.00    -0.284 N 
ATOM      4  HN  UNK N   1      29.710  16.801   3.950  1.00  0.00     0.188 HD
HETATM    5  N   UNK N   1      31.637  16.895   3.098  0.00  0.00    -0.242 N 
HETATM    6  C   UNK N   1      33.209  17.751   7.217  0.00  0.00     0.067 A 
HETATM    7  C   UNK N   1      31.808  17.626   7.523  0.00  0.00     0.086 A 
HETATM    8  C   UNK N   1      33.632  17.585   5.877  0.00  0.00     0.053 A 
HETATM    9  C   UNK N   1      32.684  17.313   4.911  0.00  0.00     0.078 A 
HETATM   10  C   UNK N   1      30.879  17.348   6.484  0.00  0.00     0.071 A 
HETATM   11  C   UNK N   1      31.373  17.201   5.198  0.00  0.00     0.080 A 
HETATM   12  H   UNK N   1      31.446  16.718   2.149  0.00  0.00     0.208 HD
ENDROOT
BRANCH   6  13
HETATM   13  C   UNK N   1      34.221  18.047   8.294  0.00  0.00     0.254 C 
HETATM   14  O   UNK N   1      34.843  19.097   8.251  0.00  0.00    -0.268 OA
HETATM   15  N   UNK N   1      34.496  17.189   9.317  0.00  0.00    -0.355 N 
HETATM   16  H   UNK N   1      35.142  17.489   9.997  0.00  0.00     0.162 HD
BRANCH  15  17
HETATM   17  C   UNK N   1      33.916  15.878   9.485  0.00  0.00     0.158 C 
BRANCH  17  18
HETATM   18  C   UNK N   1      34.981  14.836   9.774  0.00  0.00     0.241 C 
HETATM   19  N   UNK N   1      36.124  15.440  10.440  0.00  0.00     0.098 N 
HETATM   20  C   UNK N   1      37.247  14.581  10.093  0.00  0.00     0.273 C 
HETATM   21  C   UNK N   1      36.943  13.952   8.746  0.00  0.00     0.032 C 
HETATM   22  C   UNK N   1      35.498  14.292   8.464  0.00  0.00     0.039 C 
BRANCH  19  23
HETATM   23  C   UNK N   1      35.914  15.350  11.878  0.00  0.00     0.299 C 
BRANCH  23  24
HETATM   24  C   UNK N   1      36.269  13.984  12.359  0.00  0.00    -0.007 C 
HETATM   25  C   UNK N   1      35.479  13.359  13.225  0.00  0.00     0.008 C 
ENDBRANCH  23  24
ENDBRANCH  19  23
ENDBRANCH  17  18
ENDBRANCH  15  17
ENDBRANCH   6  13
BRANCH   7  26
HETATM   26  O   UNK N   1      31.376  17.785   8.800  0.00  0.00    -0.355 OA
HETATM   27  C   UNK N   1      30.311  18.585   9.149  0.00  0.00     0.210 C 
ENDBRANCH   7  26
TORSDOF 6
ENDMDL
MODEL 3
REMARK VINA RESULT:      -6.5      8.260     11.502
REMARK  6 active torsions:
REMARK  status: ('A' for Active; 'I' for Inactive)
REMARK    1  A    between atoms: O_2  and  C_20 
REMARK    2  A    between atoms: N_3  and  C_15 
REMARK    3  A    between atoms: N_4  and  C_14 
REMARK       I    between atoms: N_4  and  C_17 
REMARK    4  A    between atoms: C_10  and  C_14 
REMARK    5  A    between atoms: C_15  and  C_16 
REMARK    6  A    between atoms: C_17  and  C_18 
ROOT
HETATM    1  N   UNK N   1      28.948  18.733   9.531  0.00  0.00    -0.284 N 
ATOM      2  HN  UNK N   1      29.169  19.350  10.312  1.00  0.00     0.188 HD
HETATM    3  N   UNK N   1      27.819  17.555   8.066  0.00  0.00    -0.284 N 
ATOM      4  HN  UNK N   1      27.043  17.133   7.556  1.00  0.00     0.188 HD
HETATM    5  N   UNK N   1      27.736  18.371   9.116  0.00  0.00    -0.242 N 
HETATM    6  C   UNK N   1      31.910  17.433   7.750  0.00  0.00     0.067 A 
HETATM    7  C   UNK N   1      31.170  16.665   6.783  0.00  0.00     0.086 A 
HETATM    8  C   UNK N   1      31.198  18.171   8.725  0.00  0.00     0.053 A 
HETATM    9  C   UNK N   1      29.818  18.124   8.715  0.00  0.00     0.078 A 
HETATM   10  C   UNK N   1      29.749  16.653   6.827  0.00  0.00     0.071 A 
HETATM   11  C   UNK N   1      29.126  17.401   7.813  0.00  0.00     0.080 A 
HETATM   12  H   UNK N   1      26.892  18.666   9.528  0.00  0.00     0.208 HD
ENDROOT
BRANCH   6  13
HETATM   13  C   UNK N   1      33.417  17.467   7.734  0.00  0.00     0.254 C 
HETATM   14  O   UNK N   1      33.984  18.257   6.996  0.00  0.00    -0.268 OA
HETATM   15  N   UNK N   1      34.191  16.641   8.494  0.00  0.00    -0.355 N 
HETATM   16  H   UNK N   1      35.167  16.767   8.447  0.00  0.00     0.162 HD
BRANCH  15  17
HETATM   17  C   UNK N   1      33.697  15.599   9.362  0.00  0.00     0.158 C 
BRANCH  17  18
HETATM   18  C   UNK N   1      34.814  14.672   9.804  0.00  0.00     0.241 C 
HETATM   19  N   UNK N   1      35.969  15.435  10.248  0.00  0.00     0.098 N 
HETATM   20  C   UNK N   1      37.103  14.548  10.027  0.00  0.00     0.273 C 
HETATM   21  C   UNK N   1      36.746  13.630   8.872  0.00  0.00     0.032 C 
HETATM   22  C   UNK N   1      35.277  13.865   8.615  0.00  0.00     0.039 C 
BRANCH  19  23
HETATM   23  C   UNK N   1      35.845  15.659  11.682  0.00  0.00     0.299 C 
BRANCH  23  24
HETATM   24  C   UNK N   1      36.048  14.378  12.416  0.00  0.00    -0.007 C 
HETATM   25  C   UNK N   1      36.279  14.392  13.724  0.00  0.00     0.008 C 
ENDBRANCH  23  24
ENDBRANCH  19  23
ENDBRANCH  17  18
ENDBRANCH  15  17
ENDBRANCH   6  13
BRANCH   7  26
HETATM   26  O   UNK N   1      31.829  15.945   5.840  0.00  0.00    -0.355 OA
HETATM   27  C   UNK N   1      31.999  14.580   5.906  0.00  0.00     0.210 C 
ENDBRANCH   7  26
TORSDOF 6
ENDMDL
MODEL 4
REMARK VINA RESULT:      -6.4      8.703     13.127
REMARK  6 active torsions:
REMARK  status: ('A' for Active; 'I' for Inactive)
REMARK    1  A    between atoms: O_2  and  C_20 
REMARK    2  A    between atoms: N_3  and  C_15 
REMARK    3  A    between atoms: N_4  and  C_14 
REMARK       I    between atoms: N_4  and  C_17 
REMARK    4  A    between atoms: C_10  and  C_14 
REMARK    5  A    between atoms: C_15  and  C_16 
REMARK    6  A    between atoms: C_17  and  C_18 
ROOT
HETATM    1  N   UNK N   1      36.173  15.445  12.284  0.00  0.00    -0.284 N 
ATOM      2  HN  UNK N   1      36.113  16.092  13.070  1.00  0.00     0.188 HD
HETATM    3  N   UNK N   1      36.565  13.642  11.099  0.00  0.00    -0.284 N 
ATOM      4  HN  UNK N   1      36.850  12.697  10.842  1.00  0.00     0.188 HD
HETATM    5  N   UNK N   1      36.633  14.196  12.309  0.00  0.00    -0.242 N 
HETATM    6  C   UNK N   1      34.959  16.840   9.088  0.00  0.00     0.067 A 
HETATM    7  C   UNK N   1      35.209  15.654   8.310  0.00  0.00     0.086 A 
HETATM    8  C   UNK N   1      35.270  16.829  10.468  0.00  0.00     0.053 A 
HETATM    9  C   UNK N   1      35.806  15.681  11.017  0.00  0.00     0.078 A 
HETATM   10  C   UNK N   1      35.766  14.504   8.933  0.00  0.00     0.071 A 
HETATM   11  C   UNK N   1      36.044  14.574  10.289  0.00  0.00     0.080 A 
HETATM   12  H   UNK N   1      36.976  13.742  13.112  0.00  0.00     0.208 HD
ENDROOT
BRANCH   6  13
HETATM   13  C   UNK N   1      34.371  18.078   8.459  0.00  0.00     0.254 C 
HETATM   14  O   UNK N   1      35.059  19.081   8.369  0.00  0.00    -0.268 OA
HETATM   15  N   UNK N   1      33.091  18.143   7.995  0.00  0.00    -0.355 N 
HETATM   16  H   UNK N   1      32.810  18.982   7.561  0.00  0.00     0.162 HD
BRANCH  15  17
HETATM   17  C   UNK N   1      32.115  17.084   8.086  0.00  0.00     0.158 C 
BRANCH  17  18
HETATM   18  C   UNK N   1      31.038  17.231   7.027  0.00  0.00     0.241 C 
HETATM   19  N   UNK N   1      29.718  17.036   7.605  0.00  0.00     0.098 N 
HETATM   20  C   UNK N   1      28.897  16.571   6.495  0.00  0.00     0.273 C 
HETATM   21  C   UNK N   1      29.809  15.847   5.523  0.00  0.00     0.032 C 
HETATM   22  C   UNK N   1      31.212  16.138   6.001  0.00  0.00     0.039 C 
BRANCH  19  23
HETATM   23  C   UNK N   1      29.210  18.333   8.030  0.00  0.00     0.299 C 
BRANCH  23  24
HETATM   24  C   UNK N   1      29.019  18.344   9.508  0.00  0.00    -0.007 C 
HETATM   25  C   UNK N   1      29.015  17.202  10.186  0.00  0.00     0.008 C 
ENDBRANCH  23  24
ENDBRANCH  19  23
ENDBRANCH  17  18
ENDBRANCH  15  17
ENDBRANCH   6  13
BRANCH   7  26
HETATM   26  O   UNK N   1      34.923  15.641   6.983  0.00  0.00    -0.355 OA
HETATM   27  C   UNK N   1      34.488  14.521   6.310  0.00  0.00     0.210 C 
ENDBRANCH   7  26
TORSDOF 6
ENDMDL
MODEL 5
REMARK VINA RESULT:      -6.4      5.336      9.762
REMARK  6 active torsions:
REMARK  status: ('A' for Active; 'I' for Inactive)
REMARK    1  A    between atoms: O_2  and  C_20 
REMARK    2  A    between atoms: N_3  and  C_15 
REMARK    3  A    between atoms: N_4  and  C_14 
REMARK       I    between atoms: N_4  and  C_17 
REMARK    4  A    between atoms: C_10  and  C_14 
REMARK    5  A    between atoms: C_15  and  C_16 
REMARK    6  A    between atoms: C_17  and  C_18 
ROOT
HETATM    1  N   UNK N   1      32.819  17.283   9.114  0.00  0.00    -0.284 N 
ATOM      2  HN  UNK N   1      32.287  17.103   9.965  1.00  0.00     0.188 HD
HETATM    3  N   UNK N   1      34.445  17.858   7.760  0.00  0.00    -0.284 N 
ATOM      4  HN  UNK N   1      35.348  18.187   7.418  1.00  0.00     0.188 HD
HETATM    5  N   UNK N   1      34.065  17.746   9.031  0.00  0.00    -0.242 N 
HETATM    6  C   UNK N   1      30.982  16.530   6.000  0.00  0.00     0.067 A 
HETATM    7  C   UNK N   1      32.051  16.900   5.110  0.00  0.00     0.086 A 
HETATM    8  C   UNK N   1      31.188  16.638   7.396  0.00  0.00     0.053 A 
HETATM    9  C   UNK N   1      32.406  17.100   7.853  0.00  0.00     0.078 A 
HETATM   10  C   UNK N   1      33.282  17.373   5.641  0.00  0.00     0.071 A 
HETATM   11  C   UNK N   1      33.404  17.451   7.020  0.00  0.00     0.080 A 
HETATM   12  H   UNK N   1      34.629  17.974   9.806  0.00  0.00     0.208 HD
ENDROOT
BRANCH   6  13
HETATM   13  C   UNK N   1      29.663  16.026   5.471  0.00  0.00     0.254 C 
HETATM   14  O   UNK N   1      29.424  14.830   5.517  0.00  0.00    -0.268 OA
HETATM   15  N   UNK N   1      28.719  16.842   4.920  0.00  0.00    -0.355 N 
HETATM   16  H   UNK N   1      27.871  16.426   4.641  0.00  0.00     0.162 HD
BRANCH  15  17
HETATM   17  C   UNK N   1      28.861  18.263   4.715  0.00  0.00     0.158 C 
BRANCH  17  18
HETATM   18  C   UNK N   1      27.679  19.025   5.284  0.00  0.00     0.241 C 
HETATM   19  N   UNK N   1      27.611  20.364   4.721  0.00  0.00     0.098 N 
HETATM   20  C   UNK N   1      26.923  21.153   5.733  0.00  0.00     0.273 C 
HETATM   21  C   UNK N   1      27.215  20.521   7.082  0.00  0.00     0.032 C 
HETATM   22  C   UNK N   1      27.884  19.204   6.769  0.00  0.00     0.039 C 
BRANCH  19  23
HETATM   23  C   UNK N   1      26.768  20.318   3.535  0.00  0.00     0.299 C 
BRANCH  23  24
HETATM   24  C   UNK N   1      25.412  19.814   3.894  0.00  0.00    -0.007 C 
HETATM   25  C   UNK N   1      24.350  20.213   3.203  0.00  0.00     0.008 C 
ENDBRANCH  23  24
ENDBRANCH  19  23
ENDBRANCH  17  18
ENDBRANCH  15  17
ENDBRANCH   6  13
BRANCH   7  26
HETATM   26  O   UNK N   1      31.878  16.810   3.767  0.00  0.00    -0.355 OA
HETATM   27  C   UNK N   1      32.903  16.558   2.883  0.00  0.00     0.210 C 
ENDBRANCH   7  26
TORSDOF 6
ENDMDL
MODEL 6
REMARK VINA RESULT:      -6.4     11.345     12.878
REMARK  6 active torsions:
REMARK  status: ('A' for Active; 'I' for Inactive)
REMARK    1  A    between atoms: O_2  and  C_20 
REMARK    2  A    between atoms: N_3  and  C_15 
REMARK    3  A    between atoms: N_4  and  C_14 
REMARK       I    between atoms: N_4  and  C_17 
REMARK    4  A    between atoms: C_10  and  C_14 
REMARK    5  A    between atoms: C_15  and  C_16 
REMARK    6  A    between atoms: C_17  and  C_18 
ROOT
HETATM    1  N   UNK N   1      26.072  27.117  -2.828  0.00  0.00    -0.284 N 
ATOM      2  HN  UNK N   1      26.298  26.665  -1.942  1.00  0.00     0.188 HD
HETATM    3  N   UNK N   1      25.542  28.648  -4.305  0.00  0.00    -0.284 N 
ATOM      4  HN  UNK N   1      25.300  29.547  -4.723  1.00  0.00     0.188 HD
HETATM    5  N   UNK N   1      25.788  28.404  -3.020  0.00  0.00    -0.242 N 
HETATM    6  C   UNK N   1      26.069  24.835  -5.730  0.00  0.00     0.067 A 
HETATM    7  C   UNK N   1      25.729  25.840  -6.703  0.00  0.00     0.086 A 
HETATM    8  C   UNK N   1      26.204  25.215  -4.374  0.00  0.00     0.053 A 
HETATM    9  C   UNK N   1      25.999  26.537  -4.033  0.00  0.00     0.078 A 
HETATM   10  C   UNK N   1      25.527  27.185  -6.289  0.00  0.00     0.071 A 
HETATM   11  C   UNK N   1      25.676  27.476  -4.942  0.00  0.00     0.080 A 
HETATM   12  H   UNK N   1      25.764  29.083  -2.307  0.00  0.00     0.208 HD
ENDROOT
BRANCH   6  13
HETATM   13  C   UNK N   1      26.289  23.399  -6.135  0.00  0.00     0.254 C 
HETATM   14  O   UNK N   1      25.352  22.618  -6.081  0.00  0.00    -0.268 OA
HETATM   15  N   UNK N   1      27.496  22.915  -6.546  0.00  0.00    -0.355 N 
HETATM   16  H   UNK N   1      27.531  21.972  -6.830  0.00  0.00     0.162 HD
BRANCH  15  17
HETATM   17  C   UNK N   1      28.724  23.671  -6.598  0.00  0.00     0.158 C 
BRANCH  17  18
HETATM   18  C   UNK N   1      29.780  23.072  -5.688  0.00  0.00     0.241 C 
HETATM   19  N   UNK N   1      29.672  21.622  -5.659  0.00  0.00     0.098 N 
HETATM   20  C   UNK N   1      30.227  21.239  -4.368  0.00  0.00     0.273 C 
HETATM   21  C   UNK N   1      30.004  22.396  -3.412  0.00  0.00     0.032 C 
HETATM   22  C   UNK N   1      29.528  23.540  -4.275  0.00  0.00     0.039 C 
BRANCH  19  23
HETATM   23  C   UNK N   1      30.533  21.079  -6.700  0.00  0.00     0.299 C 
BRANCH  23  24
HETATM   24  C   UNK N   1      30.034  19.741  -7.126  0.00  0.00    -0.007 C 
HETATM   25  C   UNK N   1      28.967  19.649  -7.911  0.00  0.00     0.008 C 
ENDBRANCH  23  24
ENDBRANCH  19  23
ENDBRANCH  17  18
ENDBRANCH  15  17
ENDBRANCH   6  13
BRANCH   7  26
HETATM   26  O   UNK N   1      25.589  25.500  -8.010  0.00  0.00    -0.355 OA
HETATM   27  C   UNK N   1      26.461  25.900  -8.997  0.00  0.00     0.210 C 
ENDBRANCH   7  26
TORSDOF 6
ENDMDL
MODEL 7
REMARK VINA RESULT:      -6.3     10.905     12.566
REMARK  6 active torsions:
REMARK  status: ('A' for Active; 'I' for Inactive)
REMARK    1  A    between atoms: O_2  and  C_20 
REMARK    2  A    between atoms: N_3  and  C_15 
REMARK    3  A    between atoms: N_4  and  C_14 
REMARK       I    between atoms: N_4  and  C_17 
REMARK    4  A    between atoms: C_10  and  C_14 
REMARK    5  A    between atoms: C_15  and  C_16 
REMARK    6  A    between atoms: C_17  and  C_18 
ROOT
HETATM    1  N   UNK N   1      26.167  27.022  -2.719  0.00  0.00    -0.284 N 
ATOM      2  HN  UNK N   1      26.358  26.520  -1.852  1.00  0.00     0.188 HD
HETATM    3  N   UNK N   1      25.751  28.644  -4.134  0.00  0.00    -0.284 N 
ATOM      4  HN  UNK N   1      25.574  29.574  -4.515  1.00  0.00     0.188 HD
HETATM    5  N   UNK N   1      25.975  28.332  -2.859  0.00  0.00    -0.242 N 
HETATM    6  C   UNK N   1      26.015  24.863  -5.711  0.00  0.00     0.067 A 
HETATM    7  C   UNK N   1      25.748  25.928  -6.642  0.00  0.00     0.086 A 
HETATM    8  C   UNK N   1      26.172  25.178  -4.341  0.00  0.00     0.053 A 
HETATM    9  C   UNK N   1      26.059  26.497  -3.946  0.00  0.00     0.078 A 
HETATM   10  C   UNK N   1      25.639  27.266  -6.175  0.00  0.00     0.071 A 
HETATM   11  C   UNK N   1      25.804  27.492  -4.817  0.00  0.00     0.080 A 
HETATM   12  H   UNK N   1      25.997  28.983  -2.120  0.00  0.00     0.208 HD
ENDROOT
BRANCH   6  13
HETATM   13  C   UNK N   1      26.135  23.433  -6.172  0.00  0.00     0.254 C 
HETATM   14  O   UNK N   1      25.119  22.775  -6.333  0.00  0.00    -0.268 OA
HETATM   15  N   UNK N   1      27.331  22.822  -6.406  0.00  0.00    -0.355 N 
HETATM   16  H   UNK N   1      27.307  21.897  -6.747  0.00  0.00     0.162 HD
BRANCH  15  17
HETATM   17  C   UNK N   1      28.628  23.418  -6.197  0.00  0.00     0.158 C 
BRANCH  17  18
HETATM   18  C   UNK N   1      29.536  22.501  -5.399  0.00  0.00     0.241 C 
HETATM   19  N   UNK N   1      30.848  23.103  -5.223  0.00  0.00     0.098 N 
HETATM   20  C   UNK N   1      31.751  21.972  -5.055  0.00  0.00     0.273 C 
HETATM   21  C   UNK N   1      31.152  20.794  -5.800  0.00  0.00     0.032 C 
HETATM   22  C   UNK N   1      29.758  21.231  -6.185  0.00  0.00     0.039 C 
BRANCH  19  23
HETATM   23  C   UNK N   1      30.840  23.862  -3.981  0.00  0.00     0.299 C 
BRANCH  23  24
HETATM   24  C   UNK N   1      30.796  22.932  -2.817  0.00  0.00    -0.007 C 
HETATM   25  C   UNK N   1      29.807  23.020  -1.934  0.00  0.00     0.008 C 
ENDBRANCH  23  24
ENDBRANCH  19  23
ENDBRANCH  17  18
ENDBRANCH  15  17
ENDBRANCH   6  13
BRANCH   7  26
HETATM   26  O   UNK N   1      25.590  25.651  -7.962  0.00  0.00    -0.355 OA
HETATM   27  C   UNK N   1      26.509  25.996  -8.927  0.00  0.00     0.210 C 
ENDBRANCH   7  26
TORSDOF 6
ENDMDL
MODEL 8
REMARK VINA RESULT:      -6.2      8.683     13.228
REMARK  6 active torsions:
REMARK  status: ('A' for Active; 'I' for Inactive)
REMARK    1  A    between atoms: O_2  and  C_20 
REMARK    2  A    between atoms: N_3  and  C_15 
REMARK    3  A    between atoms: N_4  and  C_14 
REMARK       I    between atoms: N_4  and  C_17 
REMARK    4  A    between atoms: C_10  and  C_14 
REMARK    5  A    between atoms: C_15  and  C_16 
REMARK    6  A    between atoms: C_17  and  C_18 
ROOT
HETATM    1  N   UNK N   1      36.310  15.509  12.119  0.00  0.00    -0.284 N 
ATOM      2  HN  UNK N   1      36.270  16.220  12.849  1.00  0.00     0.188 HD
HETATM    3  N   UNK N   1      36.701  13.622  11.072  0.00  0.00    -0.284 N 
ATOM      4  HN  UNK N   1      37.008  12.669  10.879  1.00  0.00     0.188 HD
HETATM    5  N   UNK N   1      36.818  14.283  12.223  0.00  0.00    -0.242 N 
HETATM    6  C   UNK N   1      34.860  16.576   8.895  0.00  0.00     0.067 A 
HETATM    7  C   UNK N   1      35.110  15.335   8.208  0.00  0.00     0.086 A 
HETATM    8  C   UNK N   1      35.250  16.696  10.249  0.00  0.00     0.053 A 
HETATM    9  C   UNK N   1      35.861  15.620  10.862  0.00  0.00     0.078 A 
HETATM   10  C   UNK N   1      35.746  14.264   8.892  0.00  0.00     0.071 A 
HETATM   11  C   UNK N   1      36.099  14.462  10.217  0.00  0.00     0.080 A 
HETATM   12  H   UNK N   1      37.224  13.913  13.040  0.00  0.00     0.208 HD
ENDROOT
BRANCH   6  13
HETATM   13  C   UNK N   1      34.189  17.733   8.199  0.00  0.00     0.254 C 
HETATM   14  O   UNK N   1      34.856  18.709   7.894  0.00  0.00    -0.268 OA
HETATM   15  N   UNK N   1      32.859  17.756   7.903  0.00  0.00    -0.355 N 
HETATM   16  H   UNK N   1      32.520  18.538   7.409  0.00  0.00     0.162 HD
BRANCH  15  17
HETATM   17  C   UNK N   1      31.907  16.730   8.255  0.00  0.00     0.158 C 
BRANCH  17  18
HETATM   18  C   UNK N   1      30.838  16.579   7.188  0.00  0.00     0.241 C 
HETATM   19  N   UNK N   1      31.263  17.199   5.944  0.00  0.00     0.098 N 
HETATM   20  C   UNK N   1      30.022  17.557   5.270  0.00  0.00     0.273 C 
HETATM   21  C   UNK N   1      28.974  17.801   6.340  0.00  0.00     0.032 C 
HETATM   22  C   UNK N   1      29.602  17.325   7.629  0.00  0.00     0.039 C 
BRANCH  19  23
HETATM   23  C   UNK N   1      31.939  16.192   5.139  0.00  0.00     0.299 C 
BRANCH  23  24
HETATM   24  C   UNK N   1      32.171  16.713   3.761  0.00  0.00    -0.007 C 
HETATM   25  C   UNK N   1      33.209  16.282   3.055  0.00  0.00     0.008 C 
ENDBRANCH  23  24
ENDBRANCH  19  23
ENDBRANCH  17  18
ENDBRANCH  15  17
ENDBRANCH   6  13
BRANCH   7  26
HETATM   26  O   UNK N   1      34.749  15.195   6.907  0.00  0.00    -0.355 OA
HETATM   27  C   UNK N   1      35.646  14.963   5.889  0.00  0.00     0.210 C 
ENDBRANCH   7  26
TORSDOF 6
ENDMDL
MODEL 9
REMARK VINA RESULT:      -6.2      1.380      2.370
REMARK  6 active torsions:
REMARK  status: ('A' for Active; 'I' for Inactive)
REMARK    1  A    between atoms: O_2  and  C_20 
REMARK    2  A    between atoms: N_3  and  C_15 
REMARK    3  A    between atoms: N_4  and  C_14 
REMARK       I    between atoms: N_4  and  C_17 
REMARK    4  A    between atoms: C_10  and  C_14 
REMARK    5  A    between atoms: C_15  and  C_16 
REMARK    6  A    between atoms: C_17  and  C_18 
ROOT
HETATM    1  N   UNK N   1      19.319  17.995   1.535  0.00  0.00    -0.284 N 
ATOM      2  HN  UNK N   1      18.988  18.955   1.452  1.00  0.00     0.188 HD
HETATM    3  N   UNK N   1      19.608  15.854   1.155  0.00  0.00    -0.284 N 
ATOM      4  HN  UNK N   1      19.532  14.927   0.737  1.00  0.00     0.188 HD
HETATM    5  N   UNK N   1      18.986  16.964   0.761  0.00  0.00    -0.242 N 
HETATM    6  C   UNK N   1      21.684  17.450   4.318  0.00  0.00     0.067 A 
HETATM    7  C   UNK N   1      21.880  16.046   4.066  0.00  0.00     0.086 A 
HETATM    8  C   UNK N   1      20.811  18.179   3.476  0.00  0.00     0.053 A 
HETATM    9  C   UNK N   1      20.177  17.515   2.445  0.00  0.00     0.078 A 
HETATM   10  C   UNK N   1      21.196  15.418   2.991  0.00  0.00     0.071 A 
HETATM   11  C   UNK N   1      20.357  16.201   2.213  0.00  0.00     0.080 A 
HETATM   12  H   UNK N   1      18.365  17.015  -0.002  0.00  0.00     0.208 HD
ENDROOT
BRANCH   6  13
HETATM   13  C   UNK N   1      22.393  18.147   5.451  0.00  0.00     0.254 C 
HETATM   14  O   UNK N   1      21.791  18.346   6.494  0.00  0.00    -0.268 OA
HETATM   15  N   UNK N   1      23.680  18.589   5.367  0.00  0.00    -0.355 N 
HETATM   16  H   UNK N   1      24.071  18.996   6.175  0.00  0.00     0.162 HD
BRANCH  15  17
HETATM   17  C   UNK N   1      24.515  18.510   4.193  0.00  0.00     0.158 C 
BRANCH  17  18
HETATM   18  C   UNK N   1      25.734  17.641   4.439  0.00  0.00     0.241 C 
HETATM   19  N   UNK N   1      26.957  18.396   4.214  0.00  0.00     0.098 N 
HETATM   20  C   UNK N   1      27.947  17.392   3.852  0.00  0.00     0.273 C 
HETATM   21  C   UNK N   1      27.210  16.237   3.199  0.00  0.00     0.032 C 
HETATM   22  C   UNK N   1      25.744  16.517   3.432  0.00  0.00     0.039 C 
BRANCH  19  23
HETATM   23  C   UNK N   1      27.363  18.995   5.478  0.00  0.00     0.299 C 
BRANCH  23  24
HETATM   24  C   UNK N   1      27.463  20.476   5.330  0.00  0.00    -0.007 C 
HETATM   25  C   UNK N   1      26.697  21.270   6.069  0.00  0.00     0.008 C 
ENDBRANCH  23  24
ENDBRANCH  19  23
ENDBRANCH  17  18
ENDBRANCH  15  17
ENDBRANCH   6  13
BRANCH   7  26
HETATM   26  O   UNK N   1      22.709  15.324   4.862  0.00  0.00    -0.355 OA
HETATM   27  C   UNK N   1      22.266  14.423   5.805  0.00  0.00     0.210 C 
ENDBRANCH   7  26
TORSDOF 6
ENDMDL
