MODEL 1
REMARK VINA RESULT:      -5.6      0.000      0.000
REMARK  2 active torsions:
REMARK  status: ('A' for Active; 'I' for Inactive)
REMARK    1  A    between atoms: N_3  and  C_10 
REMARK    2  A    between atoms: C_6  and  C_7 
ROOT
HETATM    1  O   UNK N   1      34.945  12.570  11.726  0.00  0.00    -0.266 OA
HETATM    2  N   UNK N   1      34.217  11.748  13.681  0.00  0.00    -0.331 N 
HETATM    3  C   UNK N   1      35.154  12.581  15.723  0.00  0.00    -0.008 A 
HETATM    4  C   UNK N   1      35.977  13.437  14.981  0.00  0.00     0.048 A 
HETATM    5  C   UNK N   1      34.270  11.733  15.040  0.00  0.00     0.103 A 
HETATM    6  C   UNK N   1      35.913  13.443  13.591  0.00  0.00     0.095 A 
HETATM    7  C   UNK N   1      35.018  12.582  12.943  0.00  0.00     0.271 A 
HETATM    8  H   UNK N   1      33.591  11.147  13.217  0.00  0.00     0.168 HD
ENDROOT
BRANCH   3   9
HETATM    9  C   UNK N   1      35.223  12.574  17.199  0.00  0.00    -0.022 A 
HETATM   10  C   UNK N   1      35.404  11.372  17.895  0.00  0.00     0.029 A 
HETATM   11  C   UNK N   1      35.466  11.382  19.288  0.00  0.00     0.088 A 
HETATM   12  N   UNK N   1      35.353  12.555  19.967  0.00  0.00    -0.375 N 
HETATM   13  C   UNK N   1      35.178  13.737  19.318  0.00  0.00     0.088 A 
ATOM     14  HN  UNK N   1      35.400  12.547  20.986  1.00  0.00     0.164 HD
HETATM   15  C   UNK N   1      35.109  13.768  17.925  0.00  0.00     0.029 A 
ENDBRANCH   3   9
BRANCH   6  16
HETATM   16  N   UNK N   1      36.748  14.310  12.856  0.00  0.00    -0.395 N 
HETATM   17  H   UNK N   1      36.453  15.229  12.663  0.00  0.00     0.156 HD
HETATM   18  H   UNK N   1      37.624  13.996  12.534  0.00  0.00     0.156 HD
ENDBRANCH   6  16
TORSDOF 2
ENDMDL
MODEL 2
REMARK VINA RESULT:      -5.6      7.949     11.297
REMARK  2 active torsions:
REMARK  status: ('A' for Active; 'I' for Inactive)
REMARK    1  A    between atoms: N_3  and  C_10 
REMARK    2  A    between atoms: C_6  and  C_7 
ROOT
HETATM    1  O   UNK N   1      35.242  16.967  10.758  0.00  0.00    -0.266 OA
HETATM    2  N   UNK N   1      34.838  18.010   8.816  0.00  0.00    -0.331 N 
HETATM    3  C   UNK N   1      33.147  17.147   7.353  0.00  0.00    -0.008 A 
HETATM    4  C   UNK N   1      32.892  16.123   8.273  0.00  0.00     0.048 A 
HETATM    5  C   UNK N   1      34.139  18.092   7.652  0.00  0.00     0.103 A 
HETATM    6  C   UNK N   1      33.614  16.049   9.461  0.00  0.00     0.095 A 
HETATM    7  C   UNK N   1      34.598  17.011   9.725  0.00  0.00     0.271 A 
HETATM    8  H   UNK N   1      35.531  18.681   9.010  0.00  0.00     0.168 HD
ENDROOT
BRANCH   3   9
HETATM    9  C   UNK N   1      32.381  17.224   6.092  0.00  0.00    -0.022 A 
HETATM   10  C   UNK N   1      33.042  17.423   4.872  0.00  0.00     0.029 A 
HETATM   11  C   UNK N   1      32.305  17.493   3.690  0.00  0.00     0.088 A 
HETATM   12  N   UNK N   1      30.951  17.369   3.722  0.00  0.00    -0.375 N 
HETATM   13  C   UNK N   1      30.284  17.175   4.891  0.00  0.00     0.088 A 
ATOM     14  HN  UNK N   1      30.425  17.423   2.850  1.00  0.00     0.164 HD
HETATM   15  C   UNK N   1      30.985  17.100   6.095  0.00  0.00     0.029 A 
ENDBRANCH   3   9
BRANCH   6  16
HETATM   16  N   UNK N   1      33.348  15.012  10.379  0.00  0.00    -0.395 N 
HETATM   17  H   UNK N   1      32.436  14.888  10.729  0.00  0.00     0.156 HD
HETATM   18  H   UNK N   1      34.073  14.414  10.669  0.00  0.00     0.156 HD
ENDBRANCH   6  16
TORSDOF 2
ENDMDL
MODEL 3
REMARK VINA RESULT:      -5.4     13.715     15.698
REMARK  2 active torsions:
REMARK  status: ('A' for Active; 'I' for Inactive)
REMARK    1  A    between atoms: N_3  and  C_10 
REMARK    2  A    between atoms: C_6  and  C_7 
ROOT
HETATM    1  O   UNK N   1      23.292  11.636  13.133  0.00  0.00    -0.266 OA
HETATM    2  N   UNK N   1      21.496  12.063  11.861  0.00  0.00    -0.331 N 
HETATM    3  C   UNK N   1      21.810  12.862   9.624  0.00  0.00    -0.008 A 
HETATM    4  C   UNK N   1      23.196  12.814   9.815  0.00  0.00     0.048 A 
HETATM    5  C   UNK N   1      20.969  12.476  10.678  0.00  0.00     0.103 A 
HETATM    6  C   UNK N   1      23.724  12.389  11.030  0.00  0.00     0.095 A 
HETATM    7  C   UNK N   1      22.853  12.011  12.061  0.00  0.00     0.271 A 
HETATM    8  H   UNK N   1      20.892  11.795  12.590  0.00  0.00     0.168 HD
ENDROOT
BRANCH   3   9
HETATM    9  C   UNK N   1      21.250  13.314   8.333  0.00  0.00    -0.022 A 
HETATM   10  C   UNK N   1      21.189  12.438   7.241  0.00  0.00     0.029 A 
HETATM   11  C   UNK N   1      20.658  12.880   6.030  0.00  0.00     0.088 A 
HETATM   12  N   UNK N   1      20.201  14.155   5.910  0.00  0.00    -0.375 N 
HETATM   13  C   UNK N   1      20.247  15.026   6.953  0.00  0.00     0.088 A 
ATOM     14  HN  UNK N   1      19.815  14.464   5.018  1.00  0.00     0.164 HD
HETATM   15  C   UNK N   1      20.772  14.622   8.181  0.00  0.00     0.029 A 
ENDBRANCH   3   9
BRANCH   6  16
HETATM   16  N   UNK N   1      25.122  12.346  11.210  0.00  0.00    -0.395 N 
HETATM   17  H   UNK N   1      25.671  11.753  10.647  0.00  0.00     0.156 HD
HETATM   18  H   UNK N   1      25.548  12.907  11.897  0.00  0.00     0.156 HD
ENDBRANCH   6  16
TORSDOF 2
ENDMDL
MODEL 4
REMARK VINA RESULT:      -5.3      0.818      2.240
REMARK  2 active torsions:
REMARK  status: ('A' for Active; 'I' for Inactive)
REMARK    1  A    between atoms: N_3  and  C_10 
REMARK    2  A    between atoms: C_6  and  C_7 
ROOT
HETATM    1  O   UNK N   1      35.119  12.945  12.003  0.00  0.00    -0.266 OA
HETATM    2  N   UNK N   1      35.812  13.649  14.015  0.00  0.00    -0.331 N 
HETATM    3  C   UNK N   1      35.244  12.372  15.962  0.00  0.00    -0.008 A 
HETATM    4  C   UNK N   1      34.565  11.457  15.148  0.00  0.00     0.048 A 
HETATM    5  C   UNK N   1      35.868  13.476  15.363  0.00  0.00     0.103 A 
HETATM    6  C   UNK N   1      34.515  11.645  13.770  0.00  0.00     0.095 A 
HETATM    7  C   UNK N   1      35.150  12.760  13.207  0.00  0.00     0.271 A 
HETATM    8  H   UNK N   1      36.255  14.429  13.611  0.00  0.00     0.168 HD
ENDROOT
BRANCH   3   9
HETATM    9  C   UNK N   1      35.297  12.172  17.425  0.00  0.00    -0.022 A 
HETATM   10  C   UNK N   1      35.152  13.262  18.295  0.00  0.00     0.029 A 
HETATM   11  C   UNK N   1      35.204  13.057  19.673  0.00  0.00     0.088 A 
HETATM   12  N   UNK N   1      35.393  11.806  20.171  0.00  0.00    -0.375 N 
HETATM   13  C   UNK N   1      35.535  10.730  19.350  0.00  0.00     0.088 A 
ATOM     14  HN  UNK N   1      35.429  11.671  21.181  1.00  0.00     0.164 HD
HETATM   15  C   UNK N   1      35.490  10.894  17.966  0.00  0.00     0.029 A 
ENDBRANCH   3   9
BRANCH   6  16
HETATM   16  N   UNK N   1      33.828  10.716  12.962  0.00  0.00    -0.395 N 
HETATM   17  H   UNK N   1      33.757  10.867  11.991  0.00  0.00     0.156 HD
HETATM   18  H   UNK N   1      33.419   9.918  13.367  0.00  0.00     0.156 HD
ENDBRANCH   6  16
TORSDOF 2
ENDMDL
MODEL 5
REMARK VINA RESULT:      -5.2     12.323     14.559
REMARK  2 active torsions:
REMARK  status: ('A' for Active; 'I' for Inactive)
REMARK    1  A    between atoms: N_3  and  C_10 
REMARK    2  A    between atoms: C_6  and  C_7 
ROOT
HETATM    1  O   UNK N   1      22.957  11.558  13.297  0.00  0.00    -0.266 OA
HETATM    2  N   UNK N   1      24.425  12.154  11.710  0.00  0.00    -0.331 N 
HETATM    3  C   UNK N   1      23.613  12.819   9.556  0.00  0.00    -0.008 A 
HETATM    4  C   UNK N   1      22.302  12.607   9.998  0.00  0.00     0.048 A 
HETATM    5  C   UNK N   1      24.672  12.582  10.443  0.00  0.00     0.103 A 
HETATM    6  C   UNK N   1      22.061  12.169  11.297  0.00  0.00     0.095 A 
HETATM    7  C   UNK N   1      23.144  11.942  12.156  0.00  0.00     0.271 A 
HETATM    8  H   UNK N   1      25.180  11.992  12.320  0.00  0.00     0.168 HD
ENDROOT
BRANCH   3   9
HETATM    9  C   UNK N   1      23.869  13.284   8.177  0.00  0.00    -0.022 A 
HETATM   10  C   UNK N   1      22.805  13.473   7.284  0.00  0.00     0.029 A 
HETATM   11  C   UNK N   1      23.063  13.912   5.985  0.00  0.00     0.088 A 
HETATM   12  N   UNK N   1      24.340  14.155   5.588  0.00  0.00    -0.375 N 
HETATM   13  C   UNK N   1      25.391  13.981   6.434  0.00  0.00     0.088 A 
ATOM     14  HN  UNK N   1      24.514  14.475   4.636  1.00  0.00     0.164 HD
HETATM   15  C   UNK N   1      25.175  13.543   7.740  0.00  0.00     0.029 A 
ENDBRANCH   3   9
BRANCH   6  16
HETATM   16  N   UNK N   1      20.735  11.958  11.730  0.00  0.00    -0.395 N 
HETATM   17  H   UNK N   1      20.099  11.480  11.151  0.00  0.00     0.156 HD
HETATM   18  H   UNK N   1      20.446  12.291  12.610  0.00  0.00     0.156 HD
ENDBRANCH   6  16
TORSDOF 2
ENDMDL
MODEL 6
REMARK VINA RESULT:      -5.2      8.404     10.486
REMARK  2 active torsions:
REMARK  status: ('A' for Active; 'I' for Inactive)
REMARK    1  A    between atoms: N_3  and  C_10 
REMARK    2  A    between atoms: C_6  and  C_7 
ROOT
HETATM    1  O   UNK N   1      35.391  16.029   9.098  0.00  0.00    -0.266 OA
HETATM    2  N   UNK N   1      33.236  15.434   8.927  0.00  0.00    -0.331 N 
HETATM    3  C   UNK N   1      31.603  17.098   8.372  0.00  0.00    -0.008 A 
HETATM    4  C   UNK N   1      32.619  18.059   8.316  0.00  0.00     0.048 A 
HETATM    5  C   UNK N   1      31.942  15.774   8.685  0.00  0.00     0.103 A 
HETATM    6  C   UNK N   1      33.941  17.700   8.566  0.00  0.00     0.095 A 
HETATM    7  C   UNK N   1      34.241  16.367   8.875  0.00  0.00     0.271 A 
HETATM    8  H   UNK N   1      33.457  14.500   9.145  0.00  0.00     0.168 HD
ENDROOT
BRANCH   3   9
HETATM    9  C   UNK N   1      30.200  17.480   8.107  0.00  0.00    -0.022 A 
HETATM   10  C   UNK N   1      29.463  18.182   9.070  0.00  0.00     0.029 A 
HETATM   11  C   UNK N   1      28.140  18.535   8.805  0.00  0.00     0.088 A 
HETATM   12  N   UNK N   1      27.569  18.200   7.617  0.00  0.00    -0.375 N 
HETATM   13  C   UNK N   1      28.262  17.520   6.664  0.00  0.00     0.088 A 
ATOM     14  HN  UNK N   1      26.601  18.465   7.438  1.00  0.00     0.164 HD
HETATM   15  C   UNK N   1      29.587  17.148   6.892  0.00  0.00     0.029 A 
ENDBRANCH   3   9
BRANCH   6  16
HETATM   16  N   UNK N   1      34.955  18.677   8.506  0.00  0.00    -0.395 N 
HETATM   17  H   UNK N   1      35.901  18.408   8.555  0.00  0.00     0.156 HD
HETATM   18  H   UNK N   1      34.718  19.629   8.415  0.00  0.00     0.156 HD
ENDBRANCH   6  16
TORSDOF 2
ENDMDL
MODEL 7
REMARK VINA RESULT:      -5.1     14.435     16.394
REMARK  2 active torsions:
REMARK  status: ('A' for Active; 'I' for Inactive)
REMARK    1  A    between atoms: N_3  and  C_10 
REMARK    2  A    between atoms: C_6  and  C_7 
ROOT
HETATM    1  O   UNK N   1      23.401  11.635  12.048  0.00  0.00    -0.266 OA
HETATM    2  N   UNK N   1      23.505  13.022  10.290  0.00  0.00    -0.331 N 
HETATM    3  C   UNK N   1      21.472  13.848   9.328  0.00  0.00    -0.008 A 
HETATM    4  C   UNK N   1      20.743  13.121  10.277  0.00  0.00     0.048 A 
HETATM    5  C   UNK N   1      22.872  13.781   9.356  0.00  0.00     0.103 A 
HETATM    6  C   UNK N   1      21.402  12.348  11.228  0.00  0.00     0.095 A 
HETATM    7  C   UNK N   1      22.802  12.305  11.225  0.00  0.00     0.271 A 
HETATM    8  H   UNK N   1      24.489  12.986  10.295  0.00  0.00     0.168 HD
ENDROOT
BRANCH   3   9
HETATM    9  C   UNK N   1      20.771  14.668   8.318  0.00  0.00    -0.022 A 
HETATM   10  C   UNK N   1      20.691  14.237   6.987  0.00  0.00     0.029 A 
HETATM   11  C   UNK N   1      20.026  15.022   6.045  0.00  0.00     0.088 A 
HETATM   12  N   UNK N   1      19.458  16.200   6.418  0.00  0.00    -0.375 N 
HETATM   13  C   UNK N   1      19.520  16.642   7.702  0.00  0.00     0.088 A 
ATOM     14  HN  UNK N   1      18.976  16.764   5.718  1.00  0.00     0.164 HD
HETATM   15  C   UNK N   1      20.176  15.886   8.673  0.00  0.00     0.029 A 
ENDBRANCH   3   9
BRANCH   6  16
HETATM   16  N   UNK N   1      20.656  11.621  12.178  0.00  0.00    -0.395 N 
HETATM   17  H   UNK N   1      20.025  12.089  12.771  0.00  0.00     0.156 HD
HETATM   18  H   UNK N   1      20.767  10.645  12.249  0.00  0.00     0.156 HD
ENDBRANCH   6  16
TORSDOF 2
ENDMDL
MODEL 8
REMARK VINA RESULT:      -5.0      9.593     10.946
REMARK  2 active torsions:
REMARK  status: ('A' for Active; 'I' for Inactive)
REMARK    1  A    between atoms: N_3  and  C_10 
REMARK    2  A    between atoms: C_6  and  C_7 
ROOT
HETATM    1  O   UNK N   1      35.309  15.927   5.909  0.00  0.00    -0.266 OA
HETATM    2  N   UNK N   1      34.060  16.547   7.665  0.00  0.00    -0.331 N 
HETATM    3  C   UNK N   1      31.773  17.167   7.314  0.00  0.00    -0.008 A 
HETATM    4  C   UNK N   1      31.930  16.924   5.945  0.00  0.00     0.048 A 
HETATM    5  C   UNK N   1      32.868  16.969   8.166  0.00  0.00     0.103 A 
HETATM    6  C   UNK N   1      33.154  16.492   5.444  0.00  0.00     0.095 A 
HETATM    7  C   UNK N   1      34.227  16.305   6.325  0.00  0.00     0.271 A 
HETATM    8  H   UNK N   1      34.819  16.412   8.277  0.00  0.00     0.168 HD
ENDROOT
BRANCH   3   9
HETATM    9  C   UNK N   1      30.472  17.627   7.845  0.00  0.00    -0.022 A 
HETATM   10  C   UNK N   1      29.308  17.505   7.074  0.00  0.00     0.029 A 
HETATM   11  C   UNK N   1      28.089  17.943   7.589  0.00  0.00     0.088 A 
HETATM   12  N   UNK N   1      28.030  18.485   8.835  0.00  0.00    -0.375 N 
HETATM   13  C   UNK N   1      29.143  18.615   9.606  0.00  0.00     0.088 A 
ATOM     14  HN  UNK N   1      27.131  18.802   9.199  1.00  0.00     0.164 HD
HETATM   15  C   UNK N   1      30.382  18.189   9.125  0.00  0.00     0.029 A 
ENDBRANCH   3   9
BRANCH   6  16
HETATM   16  N   UNK N   1      33.300  16.251   4.062  0.00  0.00    -0.395 N 
HETATM   17  H   UNK N   1      32.900  16.871   3.410  0.00  0.00     0.156 HD
HETATM   18  H   UNK N   1      33.800  15.463   3.749  0.00  0.00     0.156 HD
ENDBRANCH   6  16
TORSDOF 2
ENDMDL
MODEL 9
REMARK VINA RESULT:      -4.9     27.193     28.046
REMARK  2 active torsions:
REMARK  status: ('A' for Active; 'I' for Inactive)
REMARK    1  A    between atoms: N_3  and  C_10 
REMARK    2  A    between atoms: C_6  and  C_7 
ROOT
HETATM    1  O   UNK N   1      25.350  22.934  -9.413  0.00  0.00    -0.266 OA
HETATM    2  N   UNK N   1      25.761  25.126  -9.185  0.00  0.00    -0.331 N 
HETATM    3  C   UNK N   1      26.003  26.050  -6.988  0.00  0.00    -0.008 A 
HETATM    4  C   UNK N   1      25.787  24.779  -6.443  0.00  0.00     0.048 A 
HETATM    5  C   UNK N   1      25.985  26.200  -8.382  0.00  0.00     0.103 A 
HETATM    6  C   UNK N   1      25.559  23.687  -7.276  0.00  0.00     0.095 A 
HETATM    7  C   UNK N   1      25.547  23.875  -8.664  0.00  0.00     0.271 A 
HETATM    8  H   UNK N   1      25.751  25.249 -10.162  0.00  0.00     0.168 HD
ENDROOT
BRANCH   3   9
HETATM    9  C   UNK N   1      26.244  27.209  -6.103  0.00  0.00    -0.022 A 
HETATM   10  C   UNK N   1      25.476  27.389  -4.945  0.00  0.00     0.029 A 
HETATM   11  C   UNK N   1      25.716  28.488  -4.120  0.00  0.00     0.088 A 
HETATM   12  N   UNK N   1      26.691  29.380  -4.439  0.00  0.00    -0.375 N 
HETATM   13  C   UNK N   1      27.453  29.229  -5.556  0.00  0.00     0.088 A 
ATOM     14  HN  UNK N   1      26.855  30.179  -3.827  1.00  0.00     0.164 HD
HETATM   15  C   UNK N   1      27.243  28.144  -6.406  0.00  0.00     0.029 A 
ENDBRANCH   3   9
BRANCH   6  16
HETATM   16  N   UNK N   1      25.342  22.412  -6.714  0.00  0.00    -0.395 N 
HETATM   17  H   UNK N   1      25.563  21.604  -7.231  0.00  0.00     0.156 HD
HETATM   18  H   UNK N   1      24.969  22.330  -5.807  0.00  0.00     0.156 HD
ENDBRANCH   6  16
TORSDOF 2
ENDMDL
