MODEL 1
REMARK VINA RESULT:      -6.4      0.000      0.000
REMARK  4 active torsions:
REMARK  status: ('A' for Active; 'I' for Inactive)
REMARK    1  A    between atoms: O_1  and  C_9 
REMARK    2  A    between atoms: O_2  and  C_7 
REMARK    3  A    between atoms: C_4  and  C_5 
REMARK    4  A    between atoms: C_5  and  C_6 
ROOT
HETATM    1  C   UNK N   1      34.185  16.611   8.848  0.00  0.00     0.048 A 
HETATM    2  C   UNK N   1      35.038  16.889   9.947  0.00  0.00     0.082 A 
HETATM    3  C   UNK N   1      33.469  15.406   8.859  0.00  0.00     0.021 A 
HETATM    4  C   UNK N   1      34.421  14.776  10.987  0.00  0.00     0.070 A 
HETATM    5  C   UNK N   1      35.147  15.972  11.002  0.00  0.00     0.074 A 
HETATM    6  C   UNK N   1      33.580  14.501   9.906  0.00  0.00     0.038 A 
ENDROOT
BRANCH   1   7
HETATM    7  C   UNK N   1      34.035  17.564   7.690  0.00  0.00     0.195 C 
HETATM    8  O   UNK N   1      34.828  18.490   7.580  0.00  0.00    -0.287 OA
BRANCH   7   9
HETATM    9  C   UNK N   1      32.954  17.437   6.657  0.00  0.00     0.015 A 
HETATM   10  C   UNK N   1      33.288  17.492   5.293  0.00  0.00     0.015 A 
HETATM   11  C   UNK N   1      32.296  17.374   4.312  0.00  0.00     0.001 A 
HETATM   12  C   UNK N   1      30.960  17.203   4.682  0.00  0.00     0.000 A 
HETATM   13  C   UNK N   1      30.614  17.147   6.031  0.00  0.00     0.001 A 
HETATM   14  C   UNK N   1      31.604  17.264   7.007  0.00  0.00     0.015 A 
ENDBRANCH   7   9
ENDBRANCH   1   7
BRANCH   2  15
HETATM   15  O   UNK N   1      35.755  18.027  10.003  0.00  0.00    -0.360 OA
HETATM   16  H   UNK N   1      35.666  18.600  10.737  0.00  0.00     0.217 HD
ENDBRANCH   2  15
BRANCH   4  17
HETATM   17  O   UNK N   1      34.547  13.909  12.019  0.00  0.00    -0.356 OA
HETATM   18  C   UNK N   1      35.562  13.992  12.947  0.00  0.00     0.210 C 
ENDBRANCH   4  17
TORSDOF 4
ENDMDL
MODEL 2
REMARK VINA RESULT:      -6.4      9.090     12.316
REMARK  4 active torsions:
REMARK  status: ('A' for Active; 'I' for Inactive)
REMARK    1  A    between atoms: O_1  and  C_9 
REMARK    2  A    between atoms: O_2  and  C_7 
REMARK    3  A    between atoms: C_4  and  C_5 
REMARK    4  A    between atoms: C_5  and  C_6 
ROOT
HETATM    1  C   UNK N   1      23.313  19.570   3.439  0.00  0.00     0.048 A 
HETATM    2  C   UNK N   1      22.041  20.125   3.146  0.00  0.00     0.082 A 
HETATM    3  C   UNK N   1      23.359  18.268   3.958  0.00  0.00     0.021 A 
HETATM    4  C   UNK N   1      20.952  18.080   3.893  0.00  0.00     0.070 A 
HETATM    5  C   UNK N   1      20.877  19.377   3.374  0.00  0.00     0.074 A 
HETATM    6  C   UNK N   1      22.204  17.531   4.182  0.00  0.00     0.038 A 
ENDROOT
BRANCH   1   7
HETATM    7  C   UNK N   1      24.592  20.334   3.212  0.00  0.00     0.195 C 
HETATM    8  O   UNK N   1      24.699  21.020   2.204  0.00  0.00    -0.287 OA
BRANCH   7   9
HETATM    9  C   UNK N   1      25.751  20.296   4.164  0.00  0.00     0.015 A 
HETATM   10  C   UNK N   1      26.971  19.733   3.752  0.00  0.00     0.015 A 
HETATM   11  C   UNK N   1      28.065  19.689   4.623  0.00  0.00     0.001 A 
HETATM   12  C   UNK N   1      27.954  20.206   5.916  0.00  0.00     0.000 A 
HETATM   13  C   UNK N   1      26.750  20.768   6.338  0.00  0.00     0.001 A 
HETATM   14  C   UNK N   1      25.661  20.810   5.469  0.00  0.00     0.015 A 
ENDBRANCH   7   9
ENDBRANCH   1   7
BRANCH   2  15
HETATM   15  O   UNK N   1      21.922  21.369   2.646  0.00  0.00    -0.360 OA
HETATM   16  H   UNK N   1      21.141  21.863   2.801  0.00  0.00     0.217 HD
ENDBRANCH   2  15
BRANCH   4  17
HETATM   17  O   UNK N   1      19.811  17.381   4.104  0.00  0.00    -0.356 OA
HETATM   18  C   UNK N   1      19.721  16.020   3.909  0.00  0.00     0.210 C 
ENDBRANCH   4  17
TORSDOF 4
ENDMDL
MODEL 3
REMARK VINA RESULT:      -6.3     11.264     13.920
REMARK  4 active torsions:
REMARK  status: ('A' for Active; 'I' for Inactive)
REMARK    1  A    between atoms: O_1  and  C_9 
REMARK    2  A    between atoms: O_2  and  C_7 
REMARK    3  A    between atoms: C_4  and  C_5 
REMARK    4  A    between atoms: C_5  and  C_6 
ROOT
HETATM    1  C   UNK N   1      20.704  14.483   8.532  0.00  0.00     0.048 A 
HETATM    2  C   UNK N   1      20.607  13.970   7.213  0.00  0.00     0.082 A 
HETATM    3  C   UNK N   1      20.684  15.875   8.700  0.00  0.00     0.021 A 
HETATM    4  C   UNK N   1      20.477  16.231   6.320  0.00  0.00     0.070 A 
HETATM    5  C   UNK N   1      20.495  14.845   6.124  0.00  0.00     0.074 A 
HETATM    6  C   UNK N   1      20.572  16.738   7.618  0.00  0.00     0.038 A 
ENDROOT
BRANCH   1   7
HETATM    7  C   UNK N   1      20.828  13.583   9.735  0.00  0.00     0.195 C 
HETATM    8  O   UNK N   1      19.813  13.271  10.346  0.00  0.00    -0.287 OA
BRANCH   7   9
HETATM    9  C   UNK N   1      22.139  13.046  10.228  0.00  0.00     0.015 A 
HETATM   10  C   UNK N   1      22.181  12.303  11.420  0.00  0.00     0.015 A 
HETATM   11  C   UNK N   1      23.394  11.792  11.897  0.00  0.00     0.001 A 
HETATM   12  C   UNK N   1      24.577  12.018  11.191  0.00  0.00     0.000 A 
HETATM   13  C   UNK N   1      24.550  12.753  10.007  0.00  0.00     0.001 A 
HETATM   14  C   UNK N   1      23.341  13.261   9.533  0.00  0.00     0.015 A 
ENDBRANCH   7   9
ENDBRANCH   1   7
BRANCH   2  15
HETATM   15  O   UNK N   1      20.620  12.645   6.978  0.00  0.00    -0.360 OA
HETATM   16  H   UNK N   1      21.275  12.275   6.421  0.00  0.00     0.217 HD
ENDBRANCH   2  15
BRANCH   4  17
HETATM   17  O   UNK N   1      20.369  17.053   5.249  0.00  0.00    -0.356 OA
HETATM   18  C   UNK N   1      20.112  16.593   3.976  0.00  0.00     0.210 C 
ENDBRANCH   4  17
TORSDOF 4
ENDMDL
MODEL 4
REMARK VINA RESULT:      -6.2     13.895     16.120
REMARK  4 active torsions:
REMARK  status: ('A' for Active; 'I' for Inactive)
REMARK    1  A    between atoms: O_1  and  C_9 
REMARK    2  A    between atoms: O_2  and  C_7 
REMARK    3  A    between atoms: C_4  and  C_5 
REMARK    4  A    between atoms: C_5  and  C_6 
ROOT
HETATM    1  C   UNK N   1      28.857  24.116  -3.659  0.00  0.00     0.048 A 
HETATM    2  C   UNK N   1      29.761  23.495  -2.759  0.00  0.00     0.082 A 
HETATM    3  C   UNK N   1      29.342  24.504  -4.915  0.00  0.00     0.021 A 
HETATM    4  C   UNK N   1      31.553  23.682  -4.396  0.00  0.00     0.070 A 
HETATM    5  C   UNK N   1      31.094  23.284  -3.135  0.00  0.00     0.074 A 
HETATM    6  C   UNK N   1      30.664  24.294  -5.283  0.00  0.00     0.038 A 
ENDROOT
BRANCH   1   7
HETATM    7  C   UNK N   1      27.414  24.365  -3.301  0.00  0.00     0.195 C 
HETATM    8  O   UNK N   1      26.883  23.651  -2.460  0.00  0.00    -0.287 OA
BRANCH   7   9
HETATM    9  C   UNK N   1      26.588  25.450  -3.926  0.00  0.00     0.015 A 
HETATM   10  C   UNK N   1      25.874  25.186  -5.107  0.00  0.00     0.015 A 
HETATM   11  C   UNK N   1      25.096  26.183  -5.707  0.00  0.00     0.001 A 
HETATM   12  C   UNK N   1      25.023  27.456  -5.135  0.00  0.00     0.000 A 
HETATM   13  C   UNK N   1      25.727  27.732  -3.963  0.00  0.00     0.001 A 
HETATM   14  C   UNK N   1      26.501  26.737  -3.368  0.00  0.00     0.015 A 
ENDBRANCH   7   9
ENDBRANCH   1   7
BRANCH   2  15
HETATM   15  O   UNK N   1      29.363  23.096  -1.536  0.00  0.00    -0.360 OA
HETATM   16  H   UNK N   1      29.391  22.188  -1.308  0.00  0.00     0.217 HD
ENDBRANCH   2  15
BRANCH   4  17
HETATM   17  O   UNK N   1      32.847  23.467  -4.732  0.00  0.00    -0.356 OA
HETATM   18  C   UNK N   1      33.426  22.217  -4.715  0.00  0.00     0.210 C 
ENDBRANCH   4  17
TORSDOF 4
ENDMDL
MODEL 5
REMARK VINA RESULT:      -6.2     12.897     15.690
REMARK  4 active torsions:
REMARK  status: ('A' for Active; 'I' for Inactive)
REMARK    1  A    between atoms: O_1  and  C_9 
REMARK    2  A    between atoms: O_2  and  C_7 
REMARK    3  A    between atoms: C_4  and  C_5 
REMARK    4  A    between atoms: C_5  and  C_6 
ROOT
HETATM    1  C   UNK N   1      29.352  23.776  -3.400  0.00  0.00     0.048 A 
HETATM    2  C   UNK N   1      27.994  23.953  -3.032  0.00  0.00     0.082 A 
HETATM    3  C   UNK N   1      29.820  24.455  -4.534  0.00  0.00     0.021 A 
HETATM    4  C   UNK N   1      27.655  25.452  -4.920  0.00  0.00     0.070 A 
HETATM    5  C   UNK N   1      27.162  24.786  -3.792  0.00  0.00     0.074 A 
HETATM    6  C   UNK N   1      28.993  25.279  -5.284  0.00  0.00     0.038 A 
ENDROOT
BRANCH   1   7
HETATM    7  C   UNK N   1      30.286  22.890  -2.616  0.00  0.00     0.195 C 
HETATM    8  O   UNK N   1      30.343  23.022  -1.400  0.00  0.00    -0.287 OA
BRANCH   7   9
HETATM    9  C   UNK N   1      31.158  21.848  -3.252  0.00  0.00     0.015 A 
HETATM   10  C   UNK N   1      32.497  21.720  -2.846  0.00  0.00     0.015 A 
HETATM   11  C   UNK N   1      33.327  20.753  -3.425  0.00  0.00     0.001 A 
HETATM   12  C   UNK N   1      32.831  19.905  -4.417  0.00  0.00     0.000 A 
HETATM   13  C   UNK N   1      31.504  20.020  -4.830  0.00  0.00     0.001 A 
HETATM   14  C   UNK N   1      30.678  20.984  -4.252  0.00  0.00     0.015 A 
ENDBRANCH   7   9
ENDBRANCH   1   7
BRANCH   2  15
HETATM   15  O   UNK N   1      27.477  23.332  -1.955  0.00  0.00    -0.360 OA
HETATM   16  H   UNK N   1      26.558  23.156  -1.913  0.00  0.00     0.217 HD
ENDBRANCH   2  15
BRANCH   4  17
HETATM   17  O   UNK N   1      26.828  26.250  -5.636  0.00  0.00    -0.356 OA
HETATM   18  C   UNK N   1      25.646  25.802  -6.184  0.00  0.00     0.210 C 
ENDBRANCH   4  17
TORSDOF 4
ENDMDL
MODEL 6
REMARK VINA RESULT:      -6.1      3.410      5.288
REMARK  4 active torsions:
REMARK  status: ('A' for Active; 'I' for Inactive)
REMARK    1  A    between atoms: O_1  and  C_9 
REMARK    2  A    between atoms: O_2  and  C_7 
REMARK    3  A    between atoms: C_4  and  C_5 
REMARK    4  A    between atoms: C_5  and  C_6 
ROOT
HETATM    1  C   UNK N   1      30.394  17.512   7.081  0.00  0.00     0.048 A 
HETATM    2  C   UNK N   1      31.234  17.681   8.212  0.00  0.00     0.082 A 
HETATM    3  C   UNK N   1      30.987  17.111   5.876  0.00  0.00     0.021 A 
HETATM    4  C   UNK N   1      33.178  17.047   6.892  0.00  0.00     0.070 A 
HETATM    5  C   UNK N   1      32.611  17.447   8.107  0.00  0.00     0.074 A 
HETATM    6  C   UNK N   1      32.353  16.881   5.776  0.00  0.00     0.038 A 
ENDROOT
BRANCH   1   7
HETATM    7  C   UNK N   1      28.908  17.752   7.143  0.00  0.00     0.195 C 
HETATM    8  O   UNK N   1      28.231  17.071   7.903  0.00  0.00    -0.287 OA
BRANCH   7   9
HETATM    9  C   UNK N   1      28.208  18.790   6.317  0.00  0.00     0.015 A 
HETATM   10  C   UNK N   1      27.686  19.937   6.938  0.00  0.00     0.015 A 
HETATM   11  C   UNK N   1      27.030  20.918   6.185  0.00  0.00     0.001 A 
HETATM   12  C   UNK N   1      26.887  20.765   4.804  0.00  0.00     0.000 A 
HETATM   13  C   UNK N   1      27.400  19.632   4.174  0.00  0.00     0.001 A 
HETATM   14  C   UNK N   1      28.053  18.656   4.926  0.00  0.00     0.015 A 
ENDBRANCH   7   9
ENDBRANCH   1   7
BRANCH   2  15
HETATM   15  O   UNK N   1      30.732  18.064   9.401  0.00  0.00    -0.360 OA
HETATM   16  H   UNK N   1      30.676  17.449  10.105  0.00  0.00     0.217 HD
ENDBRANCH   2  15
BRANCH   4  17
HETATM   17  O   UNK N   1      34.512  16.829   6.819  0.00  0.00    -0.356 OA
HETATM   18  C   UNK N   1      35.053  15.650   6.356  0.00  0.00     0.210 C 
ENDBRANCH   4  17
TORSDOF 4
ENDMDL
MODEL 7
REMARK VINA RESULT:      -6.1      7.364     12.645
REMARK  4 active torsions:
REMARK  status: ('A' for Active; 'I' for Inactive)
REMARK    1  A    between atoms: O_1  and  C_9 
REMARK    2  A    between atoms: O_2  and  C_7 
REMARK    3  A    between atoms: C_4  and  C_5 
REMARK    4  A    between atoms: C_5  and  C_6 
ROOT
HETATM    1  C   UNK N   1      35.199  11.313  18.189  0.00  0.00     0.048 A 
HETATM    2  C   UNK N   1      35.178  12.732  18.191  0.00  0.00     0.082 A 
HETATM    3  C   UNK N   1      35.139  10.656  16.952  0.00  0.00     0.021 A 
HETATM    4  C   UNK N   1      35.042  12.755  15.760  0.00  0.00     0.070 A 
HETATM    5  C   UNK N   1      35.100  13.436  16.981  0.00  0.00     0.074 A 
HETATM    6  C   UNK N   1      35.062  11.358  15.756  0.00  0.00     0.038 A 
ENDROOT
BRANCH   1   7
HETATM    7  C   UNK N   1      35.280  10.511  19.462  0.00  0.00     0.195 C 
HETATM    8  O   UNK N   1      36.363  10.405  20.025  0.00  0.00    -0.287 OA
BRANCH   7   9
HETATM    9  C   UNK N   1      34.096   9.830  20.081  0.00  0.00     0.015 A 
HETATM   10  C   UNK N   1      33.639  10.241  21.345  0.00  0.00     0.015 A 
HETATM   11  C   UNK N   1      32.535   9.620  21.940  0.00  0.00     0.001 A 
HETATM   12  C   UNK N   1      31.875   8.580  21.281  0.00  0.00     0.000 A 
HETATM   13  C   UNK N   1      32.317   8.161  20.027  0.00  0.00     0.001 A 
HETATM   14  C   UNK N   1      33.417   8.782  19.436  0.00  0.00     0.015 A 
ENDBRANCH   7   9
ENDBRANCH   1   7
BRANCH   2  15
HETATM   15  O   UNK N   1      35.232  13.428  19.342  0.00  0.00    -0.360 OA
HETATM   16  H   UNK N   1      35.988  13.366  19.890  0.00  0.00     0.217 HD
ENDBRANCH   2  15
BRANCH   4  17
HETATM   17  O   UNK N   1      34.966  13.461  14.607  0.00  0.00    -0.356 OA
HETATM   18  C   UNK N   1      36.080  13.902  13.927  0.00  0.00     0.210 C 
ENDBRANCH   4  17
TORSDOF 4
ENDMDL
MODEL 8
REMARK VINA RESULT:      -6.1     12.966     14.866
REMARK  4 active torsions:
REMARK  status: ('A' for Active; 'I' for Inactive)
REMARK    1  A    between atoms: O_1  and  C_9 
REMARK    2  A    between atoms: O_2  and  C_7 
REMARK    3  A    between atoms: C_4  and  C_5 
REMARK    4  A    between atoms: C_5  and  C_6 
ROOT
HETATM    1  C   UNK N   1      30.882  22.054  -3.650  0.00  0.00     0.048 A 
HETATM    2  C   UNK N   1      32.036  21.332  -3.253  0.00  0.00     0.082 A 
HETATM    3  C   UNK N   1      30.405  21.867  -4.955  0.00  0.00     0.021 A 
HETATM    4  C   UNK N   1      32.169  20.293  -5.451  0.00  0.00     0.070 A 
HETATM    5  C   UNK N   1      32.666  20.461  -4.153  0.00  0.00     0.074 A 
HETATM    6  C   UNK N   1      31.032  21.004  -5.844  0.00  0.00     0.038 A 
ENDROOT
BRANCH   1   7
HETATM    7  C   UNK N   1      30.171  23.002  -2.720  0.00  0.00     0.195 C 
HETATM    8  O   UNK N   1      30.375  22.912  -1.516  0.00  0.00    -0.287 OA
BRANCH   7   9
HETATM    9  C   UNK N   1      29.217  24.059  -3.194  0.00  0.00     0.015 A 
HETATM   10  C   UNK N   1      27.833  23.854  -3.064  0.00  0.00     0.015 A 
HETATM   11  C   UNK N   1      26.925  24.827  -3.499  0.00  0.00     0.001 A 
HETATM   12  C   UNK N   1      27.389  26.014  -4.070  0.00  0.00     0.000 A 
HETATM   13  C   UNK N   1      28.760  26.231  -4.205  0.00  0.00     0.001 A 
HETATM   14  C   UNK N   1      29.662  25.261  -3.771  0.00  0.00     0.015 A 
ENDBRANCH   7   9
ENDBRANCH   1   7
BRANCH   2  15
HETATM   15  O   UNK N   1      32.549  21.462  -2.015  0.00  0.00    -0.360 OA
HETATM   16  H   UNK N   1      32.465  22.275  -1.557  0.00  0.00     0.217 HD
ENDBRANCH   2  15
BRANCH   4  17
HETATM   17  O   UNK N   1      32.798  19.446  -6.300  0.00  0.00    -0.356 OA
HETATM   18  C   UNK N   1      32.808  19.627  -7.665  0.00  0.00     0.210 C 
ENDBRANCH   4  17
TORSDOF 4
ENDMDL
MODEL 9
REMARK VINA RESULT:      -6.0     10.409     13.315
REMARK  4 active torsions:
REMARK  status: ('A' for Active; 'I' for Inactive)
REMARK    1  A    between atoms: O_1  and  C_9 
REMARK    2  A    between atoms: O_2  and  C_7 
REMARK    3  A    between atoms: C_4  and  C_5 
REMARK    4  A    between atoms: C_5  and  C_6 
ROOT
HETATM    1  C   UNK N   1      34.118   9.801  20.296  0.00  0.00     0.048 A 
HETATM    2  C   UNK N   1      33.279  10.023  21.419  0.00  0.00     0.082 A 
HETATM    3  C   UNK N   1      33.812   8.728  19.448  0.00  0.00     0.021 A 
HETATM    4  C   UNK N   1      31.899   8.119  20.791  0.00  0.00     0.070 A 
HETATM    5  C   UNK N   1      32.182   9.183  21.654  0.00  0.00     0.074 A 
HETATM    6  C   UNK N   1      32.724   7.899  19.685  0.00  0.00     0.038 A 
ENDROOT
BRANCH   1   7
HETATM    7  C   UNK N   1      35.310  10.675  20.001  0.00  0.00     0.195 C 
HETATM    8  O   UNK N   1      36.282  10.618  20.744  0.00  0.00    -0.287 OA
BRANCH   7   9
HETATM    9  C   UNK N   1      35.368  11.620  18.838  0.00  0.00     0.015 A 
HETATM   10  C   UNK N   1      35.166  12.995  19.048  0.00  0.00     0.015 A 
HETATM   11  C   UNK N   1      35.217  13.894  17.977  0.00  0.00     0.001 A 
HETATM   12  C   UNK N   1      35.469  13.431  16.683  0.00  0.00     0.000 A 
HETATM   13  C   UNK N   1      35.671  12.070  16.459  0.00  0.00     0.001 A 
HETATM   14  C   UNK N   1      35.620  11.176  17.528  0.00  0.00     0.015 A 
ENDBRANCH   7   9
ENDBRANCH   1   7
BRANCH   2  15
HETATM   15  O   UNK N   1      33.514  11.035  22.275  0.00  0.00    -0.360 OA
HETATM   16  H   UNK N   1      34.351  11.115  22.686  0.00  0.00     0.217 HD
ENDBRANCH   2  15
BRANCH   4  17
HETATM   17  O   UNK N   1      30.833   7.323  21.043  0.00  0.00    -0.356 OA
HETATM   18  C   UNK N   1      30.889   5.949  20.959  0.00  0.00     0.210 C 
ENDBRANCH   4  17
TORSDOF 4
ENDMDL
