REMARK  4 active torsions:
REMARK  status: ('A' for Active; 'I' for Inactive)
REMARK    1  A    between atoms: O_1  and  C_9 
REMARK    2  A    between atoms: O_2  and  C_7 
REMARK    3  A    between atoms: C_4  and  C_5 
REMARK    4  A    between atoms: C_5  and  C_6 
ROOT
HETATM    1  C   UNK N   1       3.184   0.001  -0.002  0.00  0.00     0.048 A 
HETATM    2  C   UNK N   1       1.978  -0.746   0.003  0.00  0.00     0.082 A 
HETATM    3  C   UNK N   1       4.395  -0.705  -0.006  0.00  0.00     0.021 A 
HETATM    4  C   UNK N   1       3.241  -2.827  -0.001  0.00  0.00     0.070 A 
HETATM    5  C   UNK N   1       2.018  -2.147   0.003  0.00  0.00     0.074 A 
HETATM    6  C   UNK N   1       4.430  -2.093  -0.006  0.00  0.00     0.038 A 
ENDROOT
BRANCH   1   7
HETATM    7  C   UNK N   1       3.193   1.508  -0.001  0.00  0.00     0.195 C 
HETATM    8  O   UNK N   1       2.124   2.105  -0.002  0.00  0.00    -0.287 OA
BRANCH   7   9
HETATM    9  C   UNK N   1       4.453   2.322  -0.000  0.00  0.00     0.015 A 
HETATM   10  C   UNK N   1       4.374   3.725  -0.004  0.00  0.00     0.015 A 
HETATM   11  C   UNK N   1       5.537   4.504  -0.002  0.00  0.00     0.001 A 
HETATM   12  C   UNK N   1       6.792   3.891   0.003  0.00  0.00     0.000 A 
HETATM   13  C   UNK N   1       6.886   2.500   0.007  0.00  0.00     0.001 A 
HETATM   14  C   UNK N   1       5.726   1.726   0.005  0.00  0.00     0.015 A 
ENDBRANCH   7   9
ENDBRANCH   1   7
BRANCH   2  15
HETATM   15  O   UNK N   1       0.779  -0.134   0.007  0.00  0.00    -0.360 OA
HETATM   16  H   UNK N   1       0.731   0.801   0.010  0.00  0.00     0.217 HD
ENDBRANCH   2  15
BRANCH   4  17
HETATM   17  O   UNK N   1       3.250  -4.181  -0.000  0.00  0.00    -0.356 OA
HETATM   18  C   UNK N   1       4.412  -4.921  -0.002  0.00  0.00     0.210 C 
ENDBRANCH   4  17
TORSDOF 4
