MODEL 1
REMARK VINA RESULT:      -6.2      0.000      0.000
REMARK  8 active torsions:
REMARK  status: ('A' for Active; 'I' for Inactive)
REMARK    1  A    between atoms: N_1  and  C_3 
REMARK    2  A    between atoms: N_1  and  C_8 
REMARK    3  A    between atoms: N_1  and  C_10 
REMARK    4  A    between atoms: N_2  and  C_13 
REMARK    5  A    between atoms: N_2  and  C_18 
REMARK    6  A    between atoms: N_2  and  C_19 
REMARK    7  A    between atoms: C_8  and  C_9 
REMARK    8  A    between atoms: C_9  and  C_13 
ROOT
HETATM    1  N   UNK N   1      26.058  24.394  -6.503  0.00  0.00    -0.375 N 
ENDROOT
BRANCH   1   2
HETATM    2  C   UNK N   1      25.713  25.804  -6.754  0.00  0.00     0.093 A 
HETATM    3  C   UNK N   1      26.884  26.692  -7.253  0.00  0.00     0.064 A 
HETATM    4  C   UNK N   1      26.912  27.804  -6.292  0.00  0.00    -0.050 A 
HETATM    5  C   UNK N   1      25.956  27.692  -5.328  0.00  0.00    -0.050 A 
HETATM    6  C   UNK N   1      27.802  28.877  -6.311  0.00  0.00     0.007 A 
HETATM    7  C   UNK N   1      25.128  26.485  -5.486  0.00  0.00     0.064 A 
HETATM    8  C   UNK N   1      25.831  28.647  -4.319  0.00  0.00     0.007 A 
HETATM    9  C   UNK N   1      26.714  29.738  -4.312  0.00  0.00     0.001 A 
HETATM   10  C   UNK N   1      27.699  29.854  -5.310  0.00  0.00     0.001 A 
ENDBRANCH   1   2
BRANCH   1  11
HETATM   11  C   UNK N   1      26.316  23.987  -5.129  0.00  0.00     0.125 C 
BRANCH  11  12
HETATM   12  C   UNK N   1      27.815  23.960  -4.878  0.00  0.00     0.050 C 
BRANCH  12  13
HETATM   13  C   UNK N   1      28.280  25.090  -3.961  0.00  0.00     0.274 C 
BRANCH  13  14
HETATM   14  N   UNK N   1      29.551  24.820  -3.286  0.00  0.00     0.087 N 
BRANCH  14  15
HETATM   15  C   UNK N   1      30.585  25.729  -3.779  0.00  0.00     0.268 C 
HETATM   16  C   UNK N   1      30.045  27.147  -3.839  0.00  0.00     0.037 C 
ENDBRANCH  14  15
BRANCH  14  17
HETATM   17  C   UNK N   1      29.923  23.472  -3.700  0.00  0.00     0.268 C 
HETATM   18  C   UNK N   1      30.523  22.686  -2.548  0.00  0.00     0.037 C 
ENDBRANCH  14  17
ENDBRANCH  13  14
ENDBRANCH  12  13
ENDBRANCH  11  12
ENDBRANCH   1  11
BRANCH   1  19
HETATM   19  C   UNK N   1      25.952  23.352  -7.497  0.00  0.00     0.030 A 
HETATM   20  C   UNK N   1      25.460  22.083  -7.136  0.00  0.00     0.029 A 
HETATM   21  C   UNK N   1      25.333  21.065  -8.084  0.00  0.00     0.002 A 
HETATM   22  C   UNK N   1      25.692  21.297  -9.411  0.00  0.00     0.000 A 
HETATM   23  C   UNK N   1      26.177  22.549  -9.791  0.00  0.00     0.002 A 
HETATM   24  C   UNK N   1      26.301  23.567  -8.843  0.00  0.00     0.029 A 
ENDBRANCH   1  19
TORSDOF 8
ENDMDL
MODEL 2
REMARK VINA RESULT:      -6.1      0.533      1.862
REMARK  8 active torsions:
REMARK  status: ('A' for Active; 'I' for Inactive)
REMARK    1  A    between atoms: N_1  and  C_3 
REMARK    2  A    between atoms: N_1  and  C_8 
REMARK    3  A    between atoms: N_1  and  C_10 
REMARK    4  A    between atoms: N_2  and  C_13 
REMARK    5  A    between atoms: N_2  and  C_18 
REMARK    6  A    between atoms: N_2  and  C_19 
REMARK    7  A    between atoms: C_8  and  C_9 
REMARK    8  A    between atoms: C_9  and  C_13 
ROOT
HETATM    1  N   UNK N   1      26.105  24.616  -6.118  0.00  0.00    -0.375 N 
ENDROOT
BRANCH   1   2
HETATM    2  C   UNK N   1      25.735  26.014  -6.401  0.00  0.00     0.093 A 
HETATM    3  C   UNK N   1      26.873  26.894  -6.984  0.00  0.00     0.064 A 
HETATM    4  C   UNK N   1      26.934  28.038  -6.063  0.00  0.00    -0.050 A 
HETATM    5  C   UNK N   1      26.025  27.951  -5.052  0.00  0.00    -0.050 A 
HETATM    6  C   UNK N   1      27.812  29.117  -6.159  0.00  0.00     0.007 A 
HETATM    7  C   UNK N   1      25.203  26.733  -5.130  0.00  0.00     0.064 A 
HETATM    8  C   UNK N   1      25.938  28.939  -4.071  0.00  0.00     0.007 A 
HETATM    9  C   UNK N   1      26.808  30.037  -4.142  0.00  0.00     0.001 A 
HETATM   10  C   UNK N   1      27.746  30.127  -5.187  0.00  0.00     0.001 A 
ENDBRANCH   1   2
BRANCH   1  11
HETATM   11  C   UNK N   1      26.499  24.273  -4.759  0.00  0.00     0.125 C 
BRANCH  11  12
HETATM   12  C   UNK N   1      27.967  23.878  -4.738  0.00  0.00     0.050 C 
BRANCH  12  13
HETATM   13  C   UNK N   1      28.895  25.071  -4.517  0.00  0.00     0.274 C 
BRANCH  13  14
HETATM   14  N   UNK N   1      30.224  24.704  -4.020  0.00  0.00     0.087 N 
BRANCH  14  15
HETATM   15  C   UNK N   1      30.100  23.772  -2.899  0.00  0.00     0.268 C 
HETATM   16  C   UNK N   1      31.187  22.715  -2.981  0.00  0.00     0.037 C 
ENDBRANCH  14  15
BRANCH  14  17
HETATM   17  C   UNK N   1      30.790  25.942  -3.496  0.00  0.00     0.268 C 
HETATM   18  C   UNK N   1      29.891  27.129  -3.795  0.00  0.00     0.037 C 
ENDBRANCH  14  17
ENDBRANCH  13  14
ENDBRANCH  12  13
ENDBRANCH  11  12
ENDBRANCH   1  11
BRANCH   1  19
HETATM   19  C   UNK N   1      25.902  23.529  -7.046  0.00  0.00     0.030 A 
HETATM   20  C   UNK N   1      26.441  23.603  -8.345  0.00  0.00     0.029 A 
HETATM   21  C   UNK N   1      26.272  22.557  -9.255  0.00  0.00     0.002 A 
HETATM   22  C   UNK N   1      25.563  21.416  -8.883  0.00  0.00     0.000 A 
HETATM   23  C   UNK N   1      25.025  21.319  -7.600  0.00  0.00     0.002 A 
HETATM   24  C   UNK N   1      25.196  22.365  -6.689  0.00  0.00     0.029 A 
ENDBRANCH   1  19
TORSDOF 8
ENDMDL
MODEL 3
REMARK VINA RESULT:      -6.0     12.151     15.330
REMARK  8 active torsions:
REMARK  status: ('A' for Active; 'I' for Inactive)
REMARK    1  A    between atoms: N_1  and  C_3 
REMARK    2  A    between atoms: N_1  and  C_8 
REMARK    3  A    between atoms: N_1  and  C_10 
REMARK    4  A    between atoms: N_2  and  C_13 
REMARK    5  A    between atoms: N_2  and  C_18 
REMARK    6  A    between atoms: N_2  and  C_19 
REMARK    7  A    between atoms: C_8  and  C_9 
REMARK    8  A    between atoms: C_9  and  C_13 
ROOT
HETATM    1  N   UNK N   1      30.543  16.780   6.629  0.00  0.00    -0.375 N 
ENDROOT
BRANCH   1   2
HETATM    2  C   UNK N   1      29.101  17.071   6.544  0.00  0.00     0.093 A 
HETATM    3  C   UNK N   1      28.551  17.272   5.106  0.00  0.00     0.064 A 
HETATM    4  C   UNK N   1      27.900  18.588   5.164  0.00  0.00    -0.050 A 
HETATM    5  C   UNK N   1      27.994  19.170   6.392  0.00  0.00    -0.050 A 
HETATM    6  C   UNK N   1      27.250  19.225   4.107  0.00  0.00     0.007 A 
HETATM    7  C   UNK N   1      28.724  18.338   7.362  0.00  0.00     0.064 A 
HETATM    8  C   UNK N   1      27.445  20.428   6.640  0.00  0.00     0.007 A 
HETATM    9  C   UNK N   1      26.786  21.093   5.595  0.00  0.00     0.001 A 
HETATM   10  C   UNK N   1      26.687  20.490   4.327  0.00  0.00     0.001 A 
ENDBRANCH   1   2
BRANCH   1  11
HETATM   11  C   UNK N   1      31.121  16.566   7.948  0.00  0.00     0.125 C 
BRANCH  11  12
HETATM   12  C   UNK N   1      32.186  17.617   8.216  0.00  0.00     0.050 C 
BRANCH  12  13
HETATM   13  C   UNK N   1      33.584  17.017   8.358  0.00  0.00     0.274 C 
BRANCH  13  14
HETATM   14  N   UNK N   1      33.585  15.612   8.776  0.00  0.00     0.087 N 
BRANCH  14  15
HETATM   15  C   UNK N   1      34.144  15.490  10.122  0.00  0.00     0.268 C 
HETATM   16  C   UNK N   1      35.154  16.596  10.368  0.00  0.00     0.037 C 
ENDBRANCH  14  15
BRANCH  14  17
HETATM   17  C   UNK N   1      34.504  14.944   7.861  0.00  0.00     0.268 C 
HETATM   18  C   UNK N   1      34.831  15.824   6.667  0.00  0.00     0.037 C 
ENDBRANCH  14  17
ENDBRANCH  13  14
ENDBRANCH  12  13
ENDBRANCH  11  12
ENDBRANCH   1  11
BRANCH   1  19
HETATM   19  C   UNK N   1      31.373  16.491   5.483  0.00  0.00     0.030 A 
HETATM   20  C   UNK N   1      31.577  15.157   5.083  0.00  0.00     0.029 A 
HETATM   21  C   UNK N   1      32.362  14.853   3.968  0.00  0.00     0.002 A 
HETATM   22  C   UNK N   1      32.954  15.877   3.230  0.00  0.00     0.000 A 
HETATM   23  C   UNK N   1      32.760  17.206   3.607  0.00  0.00     0.002 A 
HETATM   24  C   UNK N   1      31.974  17.510   4.721  0.00  0.00     0.029 A 
ENDBRANCH   1  19
TORSDOF 8
ENDMDL
MODEL 4
REMARK VINA RESULT:      -5.9      1.582      2.322
REMARK  8 active torsions:
REMARK  status: ('A' for Active; 'I' for Inactive)
REMARK    1  A    between atoms: N_1  and  C_3 
REMARK    2  A    between atoms: N_1  and  C_8 
REMARK    3  A    between atoms: N_1  and  C_10 
REMARK    4  A    between atoms: N_2  and  C_13 
REMARK    5  A    between atoms: N_2  and  C_18 
REMARK    6  A    between atoms: N_2  and  C_19 
REMARK    7  A    between atoms: C_8  and  C_9 
REMARK    8  A    between atoms: C_9  and  C_13 
ROOT
HETATM    1  N   UNK N   1      27.113  24.488  -7.087  0.00  0.00    -0.375 N 
ENDROOT
BRANCH   1   2
HETATM    2  C   UNK N   1      26.346  25.744  -7.041  0.00  0.00     0.093 A 
HETATM    3  C   UNK N   1      27.175  27.035  -7.278  0.00  0.00     0.064 A 
HETATM    4  C   UNK N   1      26.879  27.859  -6.097  0.00  0.00    -0.050 A 
HETATM    5  C   UNK N   1      26.027  27.249  -5.228  0.00  0.00    -0.050 A 
HETATM    6  C   UNK N   1      27.395  29.129  -5.838  0.00  0.00     0.007 A 
HETATM    7  C   UNK N   1      25.607  25.914  -5.684  0.00  0.00     0.064 A 
HETATM    8  C   UNK N   1      25.636  27.871  -4.042  0.00  0.00     0.007 A 
HETATM    9  C   UNK N   1      26.138  29.149  -3.754  0.00  0.00     0.001 A 
HETATM   10  C   UNK N   1      27.018  29.779  -4.654  0.00  0.00     0.001 A 
ENDBRANCH   1   2
BRANCH   1  11
HETATM   11  C   UNK N   1      28.452  24.482  -6.515  0.00  0.00     0.125 C 
BRANCH  11  12
HETATM   12  C   UNK N   1      28.499  23.521  -5.338  0.00  0.00     0.050 C 
BRANCH  12  13
HETATM   13  C   UNK N   1      29.906  22.986  -5.071  0.00  0.00     0.274 C 
BRANCH  13  14
HETATM   14  N   UNK N   1      29.930  21.615  -4.555  0.00  0.00     0.087 N 
BRANCH  14  15
HETATM   15  C   UNK N   1      30.649  21.570  -3.282  0.00  0.00     0.268 C 
HETATM   16  C   UNK N   1      30.556  22.916  -2.585  0.00  0.00     0.037 C 
ENDBRANCH  14  15
BRANCH  14  17
HETATM   17  C   UNK N   1      30.713  20.858  -5.525  0.00  0.00     0.268 C 
HETATM   18  C   UNK N   1      29.869  20.454  -6.721  0.00  0.00     0.037 C 
ENDBRANCH  14  17
ENDBRANCH  13  14
ENDBRANCH  12  13
ENDBRANCH  11  12
ENDBRANCH   1  11
BRANCH   1  19
HETATM   19  C   UNK N   1      26.549  23.216  -7.474  0.00  0.00     0.030 A 
HETATM   20  C   UNK N   1      27.138  22.473  -8.514  0.00  0.00     0.029 A 
HETATM   21  C   UNK N   1      26.621  21.233  -8.895  0.00  0.00     0.002 A 
HETATM   22  C   UNK N   1      25.505  20.711  -8.240  0.00  0.00     0.000 A 
HETATM   23  C   UNK N   1      24.909  21.429  -7.203  0.00  0.00     0.002 A 
HETATM   24  C   UNK N   1      25.429  22.668  -6.822  0.00  0.00     0.029 A 
ENDBRANCH   1  19
TORSDOF 8
ENDMDL
MODEL 5
REMARK VINA RESULT:      -5.9     11.694     14.768
REMARK  8 active torsions:
REMARK  status: ('A' for Active; 'I' for Inactive)
REMARK    1  A    between atoms: N_1  and  C_3 
REMARK    2  A    between atoms: N_1  and  C_8 
REMARK    3  A    between atoms: N_1  and  C_10 
REMARK    4  A    between atoms: N_2  and  C_13 
REMARK    5  A    between atoms: N_2  and  C_18 
REMARK    6  A    between atoms: N_2  and  C_19 
REMARK    7  A    between atoms: C_8  and  C_9 
REMARK    8  A    between atoms: C_9  and  C_13 
ROOT
HETATM    1  N   UNK N   1      29.335  16.303   5.993  0.00  0.00    -0.375 N 
ENDROOT
BRANCH   1   2
HETATM    2  C   UNK N   1      28.857  16.843   4.708  0.00  0.00     0.093 A 
HETATM    3  C   UNK N   1      28.963  18.384   4.557  0.00  0.00     0.064 A 
HETATM    4  C   UNK N   1      27.594  18.794   4.214  0.00  0.00    -0.050 A 
HETATM    5  C   UNK N   1      26.729  17.744   4.151  0.00  0.00    -0.050 A 
HETATM    6  C   UNK N   1      27.168  20.101   3.978  0.00  0.00     0.007 A 
HETATM    7  C   UNK N   1      27.377  16.455   4.440  0.00  0.00     0.064 A 
HETATM    8  C   UNK N   1      25.380  17.935   3.848  0.00  0.00     0.007 A 
HETATM    9  C   UNK N   1      24.923  19.239   3.606  0.00  0.00     0.001 A 
HETATM   10  C   UNK N   1      25.818  20.323   3.669  0.00  0.00     0.001 A 
ENDBRANCH   1   2
BRANCH   1  11
HETATM   11  C   UNK N   1      30.069  15.046   5.977  0.00  0.00     0.125 C 
BRANCH  11  12
HETATM   12  C   UNK N   1      30.709  14.846   4.613  0.00  0.00     0.050 C 
BRANCH  12  13
HETATM   13  C   UNK N   1      32.195  15.202   4.602  0.00  0.00     0.274 C 
BRANCH  13  14
HETATM   14  N   UNK N   1      32.500  16.489   5.233  0.00  0.00     0.087 N 
BRANCH  14  15
HETATM   15  C   UNK N   1      32.622  17.531   4.214  0.00  0.00     0.268 C 
HETATM   16  C   UNK N   1      32.824  16.900   2.847  0.00  0.00     0.037 C 
ENDBRANCH  14  15
BRANCH  14  17
HETATM   17  C   UNK N   1      33.816  16.314   5.837  0.00  0.00     0.268 C 
HETATM   18  C   UNK N   1      34.087  17.376   6.887  0.00  0.00     0.037 C 
ENDBRANCH  14  17
ENDBRANCH  13  14
ENDBRANCH  12  13
ENDBRANCH  11  12
ENDBRANCH   1  11
BRANCH   1  19
HETATM   19  C   UNK N   1      29.304  17.040   7.234  0.00  0.00     0.030 A 
HETATM   20  C   UNK N   1      30.496  17.563   7.771  0.00  0.00     0.029 A 
HETATM   21  C   UNK N   1      30.489  18.294   8.962  0.00  0.00     0.002 A 
HETATM   22  C   UNK N   1      29.289  18.518   9.636  0.00  0.00     0.000 A 
HETATM   23  C   UNK N   1      28.096  18.013   9.119  0.00  0.00     0.002 A 
HETATM   24  C   UNK N   1      28.104  17.285   7.927  0.00  0.00     0.029 A 
ENDBRANCH   1  19
TORSDOF 8
ENDMDL
MODEL 6
REMARK VINA RESULT:      -5.8     21.994     26.481
REMARK  8 active torsions:
REMARK  status: ('A' for Active; 'I' for Inactive)
REMARK    1  A    between atoms: N_1  and  C_3 
REMARK    2  A    between atoms: N_1  and  C_8 
REMARK    3  A    between atoms: N_1  and  C_10 
REMARK    4  A    between atoms: N_2  and  C_13 
REMARK    5  A    between atoms: N_2  and  C_18 
REMARK    6  A    between atoms: N_2  and  C_19 
REMARK    7  A    between atoms: C_8  and  C_9 
REMARK    8  A    between atoms: C_9  and  C_13 
ROOT
HETATM    1  N   UNK N   1      35.032  11.673  15.829  0.00  0.00    -0.375 N 
ENDROOT
BRANCH   1   2
HETATM    2  C   UNK N   1      34.592  10.423  15.184  0.00  0.00     0.093 A 
HETATM    3  C   UNK N   1      35.729   9.549  14.590  0.00  0.00     0.064 A 
HETATM    4  C   UNK N   1      35.326   9.359  13.190  0.00  0.00    -0.050 A 
HETATM    5  C   UNK N   1      34.154   9.984  12.889  0.00  0.00    -0.050 A 
HETATM    6  C   UNK N   1      36.032   8.636  12.228  0.00  0.00     0.007 A 
HETATM    7  C   UNK N   1      33.576  10.695  14.040  0.00  0.00     0.064 A 
HETATM    8  C   UNK N   1      33.614   9.927  11.604  0.00  0.00     0.007 A 
HETATM    9  C   UNK N   1      34.302   9.208  10.615  0.00  0.00     0.001 A 
HETATM   10  C   UNK N   1      35.512   8.561  10.928  0.00  0.00     0.001 A 
ENDBRANCH   1   2
BRANCH   1  11
HETATM   11  C   UNK N   1      35.096  12.877  15.013  0.00  0.00     0.125 C 
BRANCH  11  12
HETATM   12  C   UNK N   1      36.526  13.102  14.548  0.00  0.00     0.050 C 
BRANCH  12  13
HETATM   13  C   UNK N   1      36.601  13.732  13.157  0.00  0.00     0.274 C 
BRANCH  13  14
HETATM   14  N   UNK N   1      35.554  13.270  12.242  0.00  0.00     0.087 N 
BRANCH  14  15
HETATM   15  C   UNK N   1      36.156  12.609  11.084  0.00  0.00     0.268 C 
HETATM   16  C   UNK N   1      37.470  11.959  11.482  0.00  0.00     0.037 C 
ENDBRANCH  14  15
BRANCH  14  17
HETATM   17  C   UNK N   1      34.906  14.485  11.762  0.00  0.00     0.268 C 
HETATM   18  C   UNK N   1      35.926  15.501  11.281  0.00  0.00     0.037 C 
ENDBRANCH  14  17
ENDBRANCH  13  14
ENDBRANCH  12  13
ENDBRANCH  11  12
ENDBRANCH   1  11
BRANCH   1  19
HETATM   19  C   UNK N   1      35.202  11.824  17.254  0.00  0.00     0.030 A 
HETATM   20  C   UNK N   1      35.573  10.716  18.039  0.00  0.00     0.029 A 
HETATM   21  C   UNK N   1      35.759  10.841  19.418  0.00  0.00     0.002 A 
HETATM   22  C   UNK N   1      35.581  12.078  20.037  0.00  0.00     0.000 A 
HETATM   23  C   UNK N   1      35.218  13.190  19.277  0.00  0.00     0.002 A 
HETATM   24  C   UNK N   1      35.034  13.064  17.898  0.00  0.00     0.029 A 
ENDBRANCH   1  19
TORSDOF 8
ENDMDL
MODEL 7
REMARK VINA RESULT:      -5.8     11.539     14.614
REMARK  8 active torsions:
REMARK  status: ('A' for Active; 'I' for Inactive)
REMARK    1  A    between atoms: N_1  and  C_3 
REMARK    2  A    between atoms: N_1  and  C_8 
REMARK    3  A    between atoms: N_1  and  C_10 
REMARK    4  A    between atoms: N_2  and  C_13 
REMARK    5  A    between atoms: N_2  and  C_18 
REMARK    6  A    between atoms: N_2  and  C_19 
REMARK    7  A    between atoms: C_8  and  C_9 
REMARK    8  A    between atoms: C_9  and  C_13 
ROOT
HETATM    1  N   UNK N   1      28.034  16.527   4.417  0.00  0.00    -0.375 N 
ENDROOT
BRANCH   1   2
HETATM    2  C   UNK N   1      28.389  16.100   5.781  0.00  0.00     0.093 A 
HETATM    3  C   UNK N   1      27.510  16.700   6.912  0.00  0.00     0.064 A 
HETATM    4  C   UNK N   1      28.486  17.323   7.818  0.00  0.00    -0.050 A 
HETATM    5  C   UNK N   1      29.770  17.181   7.387  0.00  0.00    -0.050 A 
HETATM    6  C   UNK N   1      28.186  18.004   8.997  0.00  0.00     0.007 A 
HETATM    7  C   UNK N   1      29.867  16.438   6.120  0.00  0.00     0.064 A 
HETATM    8  C   UNK N   1      30.838  17.715   8.108  0.00  0.00     0.007 A 
HETATM    9  C   UNK N   1      30.567  18.406   9.299  0.00  0.00     0.001 A 
HETATM   10  C   UNK N   1      29.240  18.550   9.745  0.00  0.00     0.001 A 
ENDBRANCH   1   2
BRANCH   1  11
HETATM   11  C   UNK N   1      28.191  15.565   3.336  0.00  0.00     0.125 C 
BRANCH  11  12
HETATM   12  C   UNK N   1      29.523  15.792   2.640  0.00  0.00     0.050 C 
BRANCH  12  13
HETATM   13  C   UNK N   1      30.572  14.748   3.020  0.00  0.00     0.274 C 
BRANCH  13  14
HETATM   14  N   UNK N   1      31.945  15.258   3.009  0.00  0.00     0.087 N 
BRANCH  14  15
HETATM   15  C   UNK N   1      32.618  14.914   4.262  0.00  0.00     0.268 C 
HETATM   16  C   UNK N   1      31.983  13.675   4.869  0.00  0.00     0.037 C 
ENDBRANCH  14  15
BRANCH  14  17
HETATM   17  C   UNK N   1      31.811  16.710   2.972  0.00  0.00     0.268 C 
HETATM   18  C   UNK N   1      32.743  17.375   3.969  0.00  0.00     0.037 C 
ENDBRANCH  14  17
ENDBRANCH  13  14
ENDBRANCH  12  13
ENDBRANCH  11  12
ENDBRANCH   1  11
BRANCH   1  19
HETATM   19  C   UNK N   1      27.348  17.761   4.115  0.00  0.00     0.030 A 
HETATM   20  C   UNK N   1      26.015  17.733   3.663  0.00  0.00     0.029 A 
HETATM   21  C   UNK N   1      25.325  18.914   3.380  0.00  0.00     0.002 A 
HETATM   22  C   UNK N   1      25.955  20.147   3.547  0.00  0.00     0.000 A 
HETATM   23  C   UNK N   1      27.274  20.198   3.999  0.00  0.00     0.002 A 
HETATM   24  C   UNK N   1      27.962  19.016   4.283  0.00  0.00     0.029 A 
ENDBRANCH   1  19
TORSDOF 8
ENDMDL
MODEL 8
REMARK VINA RESULT:      -5.8      1.635      6.785
REMARK  8 active torsions:
REMARK  status: ('A' for Active; 'I' for Inactive)
REMARK    1  A    between atoms: N_1  and  C_3 
REMARK    2  A    between atoms: N_1  and  C_8 
REMARK    3  A    between atoms: N_1  and  C_10 
REMARK    4  A    between atoms: N_2  and  C_13 
REMARK    5  A    between atoms: N_2  and  C_18 
REMARK    6  A    between atoms: N_2  and  C_19 
REMARK    7  A    between atoms: C_8  and  C_9 
REMARK    8  A    between atoms: C_9  and  C_13 
ROOT
HETATM    1  N   UNK N   1      27.709  25.413  -4.400  0.00  0.00    -0.375 N 
ENDROOT
BRANCH   1   2
HETATM    2  C   UNK N   1      29.093  24.922  -4.515  0.00  0.00     0.093 A 
HETATM    3  C   UNK N   1      29.402  24.109  -5.801  0.00  0.00     0.064 A 
HETATM    4  C   UNK N   1      29.946  22.843  -5.290  0.00  0.00    -0.050 A 
HETATM    5  C   UNK N   1      29.991  22.799  -3.930  0.00  0.00    -0.050 A 
HETATM    6  C   UNK N   1      30.374  21.766  -6.066  0.00  0.00     0.007 A 
HETATM    7  C   UNK N   1      29.487  24.032  -3.303  0.00  0.00     0.064 A 
HETATM    8  C   UNK N   1      30.469  21.674  -3.258  0.00  0.00     0.007 A 
HETATM    9  C   UNK N   1      30.907  20.575  -4.012  0.00  0.00     0.001 A 
HETATM   10  C   UNK N   1      30.861  20.621  -5.418  0.00  0.00     0.001 A 
ENDBRANCH   1   2
BRANCH   1  11
HETATM   11  C   UNK N   1      26.674  24.462  -4.021  0.00  0.00     0.125 C 
BRANCH  11  12
HETATM   12  C   UNK N   1      25.604  24.415  -5.100  0.00  0.00     0.050 C 
BRANCH  12  13
HETATM   13  C   UNK N   1      25.910  23.387  -6.189  0.00  0.00     0.274 C 
BRANCH  13  14
HETATM   14  N   UNK N   1      25.508  23.810  -7.532  0.00  0.00     0.087 N 
BRANCH  14  15
HETATM   15  C   UNK N   1      25.540  22.671  -8.448  0.00  0.00     0.268 C 
HETATM   16  C   UNK N   1      25.061  21.418  -7.736  0.00  0.00     0.037 C 
ENDBRANCH  14  15
BRANCH  14  17
HETATM   17  C   UNK N   1      26.543  24.744  -7.962  0.00  0.00     0.268 C 
HETATM   18  C   UNK N   1      25.943  26.067  -8.405  0.00  0.00     0.037 C 
ENDBRANCH  14  17
ENDBRANCH  13  14
ENDBRANCH  12  13
ENDBRANCH  11  12
ENDBRANCH   1  11
BRANCH   1  19
HETATM   19  C   UNK N   1      27.348  26.811  -4.435  0.00  0.00     0.030 A 
HETATM   20  C   UNK N   1      27.719  27.605  -5.537  0.00  0.00     0.029 A 
HETATM   21  C   UNK N   1      27.367  28.955  -5.602  0.00  0.00     0.002 A 
HETATM   22  C   UNK N   1      26.635  29.536  -4.567  0.00  0.00     0.000 A 
HETATM   23  C   UNK N   1      26.253  28.766  -3.468  0.00  0.00     0.002 A 
HETATM   24  C   UNK N   1      26.603  27.415  -3.406  0.00  0.00     0.029 A 
ENDBRANCH   1  19
TORSDOF 8
ENDMDL
MODEL 9
REMARK VINA RESULT:      -5.6     27.590     31.955
REMARK  8 active torsions:
REMARK  status: ('A' for Active; 'I' for Inactive)
REMARK    1  A    between atoms: N_1  and  C_3 
REMARK    2  A    between atoms: N_1  and  C_8 
REMARK    3  A    between atoms: N_1  and  C_10 
REMARK    4  A    between atoms: N_2  and  C_13 
REMARK    5  A    between atoms: N_2  and  C_18 
REMARK    6  A    between atoms: N_2  and  C_19 
REMARK    7  A    between atoms: C_8  and  C_9 
REMARK    8  A    between atoms: C_9  and  C_13 
ROOT
HETATM    1  N   UNK N   1      33.455   9.825  21.223  0.00  0.00    -0.375 N 
ENDROOT
BRANCH   1   2
HETATM    2  C   UNK N   1      34.684  10.192  20.497  0.00  0.00     0.093 A 
HETATM    3  C   UNK N   1      34.926  11.716  20.333  0.00  0.00     0.064 A 
HETATM    4  C   UNK N   1      35.088  11.889  18.883  0.00  0.00    -0.050 A 
HETATM    5  C   UNK N   1      34.973  10.719  18.196  0.00  0.00    -0.050 A 
HETATM    6  C   UNK N   1      35.326  13.097  18.227  0.00  0.00     0.007 A 
HETATM    7  C   UNK N   1      34.715   9.567  19.074  0.00  0.00     0.064 A 
HETATM    8  C   UNK N   1      35.087  10.682  16.806  0.00  0.00     0.007 A 
HETATM    9  C   UNK N   1      35.326  11.882  16.118  0.00  0.00     0.001 A 
HETATM   10  C   UNK N   1      35.447  13.090  16.829  0.00  0.00     0.001 A 
ENDBRANCH   1   2
BRANCH   1  11
HETATM   11  C   UNK N   1      32.912  10.783  22.175  0.00  0.00     0.125 C 
BRANCH  11  12
HETATM   12  C   UNK N   1      32.517  10.064  23.455  0.00  0.00     0.050 C 
BRANCH  12  13
HETATM   13  C   UNK N   1      33.157  10.681  24.698  0.00  0.00     0.274 C 
BRANCH  13  14
HETATM   14  N   UNK N   1      32.188  11.119  25.706  0.00  0.00     0.087 N 
BRANCH  14  15
HETATM   15  C   UNK N   1      32.744  10.942  27.047  0.00  0.00     0.268 C 
HETATM   16  C   UNK N   1      34.248  11.153  27.018  0.00  0.00     0.037 C 
ENDBRANCH  14  15
BRANCH  14  17
HETATM   17  C   UNK N   1      31.063  10.201  25.577  0.00  0.00     0.268 C 
HETATM   18  C   UNK N   1      29.834  10.728  26.297  0.00  0.00     0.037 C 
ENDBRANCH  14  17
ENDBRANCH  13  14
ENDBRANCH  12  13
ENDBRANCH  11  12
ENDBRANCH   1  11
BRANCH   1  19
HETATM   19  C   UNK N   1      32.647   8.673  20.902  0.00  0.00     0.030 A 
HETATM   20  C   UNK N   1      33.095   7.383  21.243  0.00  0.00     0.029 A 
HETATM   21  C   UNK N   1      32.323   6.254  20.958  0.00  0.00     0.002 A 
HETATM   22  C   UNK N   1      31.086   6.395  20.329  0.00  0.00     0.000 A 
HETATM   23  C   UNK N   1      30.621   7.665  19.987  0.00  0.00     0.002 A 
HETATM   24  C   UNK N   1      31.393   8.793  20.275  0.00  0.00     0.029 A 
ENDBRANCH   1  19
TORSDOF 8
ENDMDL
