REMARK  8 active torsions:
REMARK  status: ('A' for Active; 'I' for Inactive)
REMARK    1  A    between atoms: N_1  and  C_3 
REMARK    2  A    between atoms: N_1  and  C_8 
REMARK    3  A    between atoms: N_1  and  C_10 
REMARK    4  A    between atoms: N_2  and  C_13 
REMARK    5  A    between atoms: N_2  and  C_18 
REMARK    6  A    between atoms: N_2  and  C_19 
REMARK    7  A    between atoms: C_8  and  C_9 
REMARK    8  A    between atoms: C_9  and  C_13 
ROOT
HETATM    1  N   UNK N   1       5.430  -0.216  -0.020  0.00  0.00    -0.375 N 
ENDROOT
BRANCH   1   2
HETATM    2  C   UNK N   1       4.201  -0.067   0.779  0.00  0.00     0.093 A 
HETATM    3  C   UNK N   1       3.322  -1.342   0.885  0.00  0.00     0.064 A 
HETATM    4  C   UNK N   1       2.002  -0.894   0.419  0.00  0.00    -0.050 A 
HETATM    5  C   UNK N   1       1.987   0.420   0.061  0.00  0.00    -0.050 A 
HETATM    6  C   UNK N   1       0.858  -1.686   0.324  0.00  0.00     0.007 A 
HETATM    7  C   UNK N   1       3.296   1.071   0.230  0.00  0.00     0.064 A 
HETATM    8  C   UNK N   1       0.825   1.026  -0.417  0.00  0.00     0.007 A 
HETATM    9  C   UNK N   1      -0.342   0.254  -0.524  0.00  0.00     0.001 A 
HETATM   10  C   UNK N   1      -0.326  -1.103  -0.152  0.00  0.00     0.001 A 
ENDBRANCH   1   2
BRANCH   1  11
HETATM   11  C   UNK N   1       6.067   0.991  -0.527  0.00  0.00     0.125 C 
BRANCH  11  12
HETATM   12  C   UNK N   1       6.485   1.875   0.637  0.00  0.00     0.050 C 
BRANCH  12  13
HETATM   13  C   UNK N   1       7.532   2.915   0.240  0.00  0.00     0.274 C 
BRANCH  13  14
HETATM   14  N   UNK N   1       8.802   2.336  -0.205  0.00  0.00     0.087 N 
BRANCH  14  15
HETATM   15  C   UNK N   1       9.278   1.358   0.773  0.00  0.00     0.268 C 
HETATM   16  C   UNK N   1      10.079   0.273   0.075  0.00  0.00     0.037 C 
ENDBRANCH  14  15
BRANCH  14  17
HETATM   17  C   UNK N   1       9.747   3.447  -0.205  0.00  0.00     0.268 C 
HETATM   18  C   UNK N   1      10.951   3.147  -1.080  0.00  0.00     0.037 C 
ENDBRANCH  14  17
ENDBRANCH  13  14
ENDBRANCH  12  13
ENDBRANCH  11  12
ENDBRANCH   1  11
BRANCH   1  19
HETATM   19  C   UNK N   1       6.153  -1.458  -0.156  0.00  0.00     0.030 A 
HETATM   20  C   UNK N   1       7.326  -1.507  -0.933  0.00  0.00     0.029 A 
HETATM   21  C   UNK N   1       8.052  -2.693  -1.066  0.00  0.00     0.002 A 
HETATM   22  C   UNK N   1       7.620  -3.852  -0.422  0.00  0.00     0.000 A 
HETATM   23  C   UNK N   1       6.463  -3.824   0.357  0.00  0.00     0.002 A 
HETATM   24  C   UNK N   1       5.739  -2.637   0.491  0.00  0.00     0.029 A 
ENDBRANCH   1  19
TORSDOF 8
