MODEL 1
REMARK VINA RESULT:      -8.1      0.000      0.000
REMARK  7 active torsions:
REMARK  status: ('A' for Active; 'I' for Inactive)
REMARK    1  A    between atoms: N_3  and  C_15 
REMARK       I    between atoms: N_4  and  C_20 
REMARK       I    between atoms: N_11  and  C_31 
REMARK    2  A    between atoms: N_11  and  C_33 
REMARK       I    between atoms: N_12  and  C_32 
REMARK    3  A    between atoms: N_12  and  C_34 
REMARK    4  A    between atoms: C_15  and  C_18 
REMARK    5  A    between atoms: C_15  and  C_19 
REMARK    6  A    between atoms: C_33  and  C_35 
REMARK    7  A    between atoms: C_34  and  C_36 
ROOT
HETATM    1  N   UNK N   1      37.061  12.370  14.374  0.00  0.00     0.105 N 
HETATM    2  N   UNK N   1      35.559  13.175  12.141  0.00  0.00    -0.213 N 
HETATM    3  N   UNK N   1      35.064  15.177  10.897  0.00  0.00    -0.021 N 
ATOM      4  HN  UNK N   1      34.793  15.640  11.765  1.00  0.00     0.203 HD
HETATM    5  N   UNK N   1      35.853  13.279   9.766  0.00  0.00    -0.021 N 
ATOM      6  HN  UNK N   1      36.187  12.316   9.786  1.00  0.00     0.203 HD
HETATM    7  N   UNK N   1      35.344  15.227   8.563  0.00  0.00    -0.022 N 
ATOM      8  HN  UNK N   1      35.278  15.726   7.675  1.00  0.00     0.203 HD
HETATM    9  N   UNK N   1      34.555  17.193   9.720  0.00  0.00    -0.222 N 
HETATM   10  N   UNK N   1      36.082  13.244   7.395  0.00  0.00    -0.222 N 
HETATM   11  C   UNK N   1      37.357  11.869  13.020  0.00  0.00     0.294 C 
HETATM   12  C   UNK N   1      36.517  13.742  14.278  0.00  0.00     0.294 C 
HETATM   13  C   UNK N   1      36.098  11.841  12.158  0.00  0.00     0.171 C 
HETATM   14  C   UNK N   1      35.261  13.806  13.400  0.00  0.00     0.171 C 
HETATM   15  C   UNK N   1      35.488  13.887  10.921  0.00  0.00     0.709 A 
HETATM   16  C   UNK N   1      35.001  15.852   9.723  0.00  0.00     0.707 A 
HETATM   17  C   UNK N   1      35.776  13.936   8.589  0.00  0.00     0.707 A 
HETATM   18  H   UNK N   1      34.270  17.602  10.569  0.00  0.00     0.178 HD
HETATM   19  H   UNK N   1      36.656  12.446   7.436  0.00  0.00     0.178 HD
ENDROOT
BRANCH   1  20
HETATM   20  C   UNK N   1      36.171  11.449  15.124  0.00  0.00     0.289 C 
BRANCH  20  21
HETATM   21  C   UNK N   1      36.533   9.980  14.947  0.00  0.00    -0.021 A 
HETATM   22  C   UNK N   1      37.823   9.549  15.294  0.00  0.00     0.012 A 
HETATM   23  C   UNK N   1      38.155   8.192  15.260  0.00  0.00     0.043 A 
HETATM   24  C   UNK N   1      37.200   7.251  14.872  0.00  0.00     0.116 A 
HETATM   25  F   UNK N   1      37.520   5.934  14.846  0.00  0.00    -0.206 F 
HETATM   26  C   UNK N   1      35.915   7.667  14.517  0.00  0.00     0.043 A 
HETATM   27  C   UNK N   1      35.578   9.024  14.569  0.00  0.00     0.012 A 
ENDBRANCH  20  21
BRANCH  20  28
HETATM   28  C   UNK N   1      35.854  11.931  16.529  0.00  0.00    -0.021 A 
HETATM   29  C   UNK N   1      35.475  13.256  16.787  0.00  0.00     0.012 A 
HETATM   30  C   UNK N   1      35.098  13.649  18.074  0.00  0.00     0.043 A 
HETATM   31  C   UNK N   1      35.073  12.713  19.111  0.00  0.00     0.116 A 
HETATM   32  F   UNK N   1      34.686  13.087  20.354  0.00  0.00    -0.206 F 
HETATM   33  C   UNK N   1      35.440  11.389  18.865  0.00  0.00     0.043 A 
HETATM   34  C   UNK N   1      35.830  11.001  17.580  0.00  0.00     0.012 A 
ENDBRANCH  20  28
ENDBRANCH   1  20
BRANCH   9  35
HETATM   35  C   UNK N   1      34.504  17.981   8.517  0.00  0.00     0.164 C 
BRANCH  35  36
HETATM   36  C   UNK N   1      33.110  17.969   7.991  0.00  0.00    -0.017 C 
HETATM   37  C   UNK N   1      32.854  17.503   6.773  0.00  0.00     0.008 C 
ENDBRANCH  35  36
ENDBRANCH   9  35
BRANCH  10  38
HETATM   38  C   UNK N   1      35.577  13.682   6.122  0.00  0.00     0.164 C 
BRANCH  38  39
HETATM   39  C   UNK N   1      36.595  14.481   5.395  0.00  0.00    -0.017 C 
HETATM   40  C   UNK N   1      37.881  14.178   5.536  0.00  0.00     0.008 C 
ENDBRANCH  38  39
ENDBRANCH  10  38
TORSDOF 7
ENDMDL
MODEL 2
REMARK VINA RESULT:      -8.1      0.888      4.851
REMARK  7 active torsions:
REMARK  status: ('A' for Active; 'I' for Inactive)
REMARK    1  A    between atoms: N_3  and  C_15 
REMARK       I    between atoms: N_4  and  C_20 
REMARK       I    between atoms: N_11  and  C_31 
REMARK    2  A    between atoms: N_11  and  C_33 
REMARK       I    between atoms: N_12  and  C_32 
REMARK    3  A    between atoms: N_12  and  C_34 
REMARK    4  A    between atoms: C_15  and  C_18 
REMARK    5  A    between atoms: C_15  and  C_19 
REMARK    6  A    between atoms: C_33  and  C_35 
REMARK    7  A    between atoms: C_34  and  C_36 
ROOT
HETATM    1  N   UNK N   1      35.342  11.396  13.918  0.00  0.00     0.105 N 
HETATM    2  N   UNK N   1      36.195  13.237  11.975  0.00  0.00    -0.213 N 
HETATM    3  N   UNK N   1      36.384  13.410   9.580  0.00  0.00    -0.021 N 
ATOM      4  HN  UNK N   1      36.895  12.528   9.565  1.00  0.00     0.203 HD
HETATM    5  N   UNK N   1      35.265  15.090  10.776  0.00  0.00    -0.021 N 
ATOM      6  HN  UNK N   1      34.922  15.464  11.661  1.00  0.00     0.203 HD
HETATM    7  N   UNK N   1      35.476  15.260   8.447  0.00  0.00    -0.022 N 
ATOM      8  HN  UNK N   1      35.310  15.771   7.579  1.00  0.00     0.203 HD
HETATM    9  N   UNK N   1      36.605  13.525   7.204  0.00  0.00    -0.222 N 
HETATM   10  N   UNK N   1      34.393  17.024   9.693  0.00  0.00    -0.222 N 
HETATM   11  C   UNK N   1      34.672  12.696  13.736  0.00  0.00     0.294 C 
HETATM   12  C   UNK N   1      35.875  10.936  12.617  0.00  0.00     0.294 C 
HETATM   13  C   UNK N   1      35.646  13.744  13.204  0.00  0.00     0.171 C 
HETATM   14  C   UNK N   1      36.844  11.952  11.998  0.00  0.00     0.171 C 
HETATM   15  C   UNK N   1      35.948  13.920  10.762  0.00  0.00     0.709 A 
HETATM   16  C   UNK N   1      36.141  14.071   8.422  0.00  0.00     0.707 A 
HETATM   17  C   UNK N   1      35.033  15.766   9.631  0.00  0.00     0.707 A 
HETATM   18  H   UNK N   1      37.123  12.688   7.224  0.00  0.00     0.178 HD
HETATM   19  H   UNK N   1      33.831  17.239  10.472  0.00  0.00     0.178 HD
ENDROOT
BRANCH   1  20
HETATM   20  C   UNK N   1      36.378  11.448  14.978  0.00  0.00     0.289 C 
BRANCH  20  21
HETATM   21  C   UNK N   1      35.845  11.930  16.322  0.00  0.00    -0.021 A 
HETATM   22  C   UNK N   1      35.638  10.995  17.348  0.00  0.00     0.012 A 
HETATM   23  C   UNK N   1      35.266  11.413  18.629  0.00  0.00     0.043 A 
HETATM   24  C   UNK N   1      35.090  12.771  18.895  0.00  0.00     0.116 A 
HETATM   25  F   UNK N   1      34.736  13.176  20.139  0.00  0.00    -0.206 F 
HETATM   26  C   UNK N   1      35.285  13.711  17.881  0.00  0.00     0.043 A 
HETATM   27  C   UNK N   1      35.676  13.294  16.604  0.00  0.00     0.012 A 
ENDBRANCH  20  21
BRANCH  20  28
HETATM   28  C   UNK N   1      37.300  10.241  14.980  0.00  0.00    -0.021 A 
HETATM   29  C   UNK N   1      38.667  10.357  14.691  0.00  0.00     0.012 A 
HETATM   30  C   UNK N   1      39.510   9.247  14.791  0.00  0.00     0.043 A 
HETATM   31  C   UNK N   1      38.997   8.015  15.205  0.00  0.00     0.116 A 
HETATM   32  F   UNK N   1      39.817   6.943  15.324  0.00  0.00    -0.206 F 
HETATM   33  C   UNK N   1      37.639   7.889  15.503  0.00  0.00     0.043 A 
HETATM   34  C   UNK N   1      36.795   8.998  15.389  0.00  0.00     0.012 A 
ENDBRANCH  20  28
ENDBRANCH   1  20
BRANCH   9  35
HETATM   35  C   UNK N   1      36.346  14.152   5.935  0.00  0.00     0.164 C 
BRANCH  35  36
HETATM   36  C   UNK N   1      37.536  13.973   5.056  0.00  0.00    -0.017 C 
HETATM   37  C   UNK N   1      38.662  14.634   5.305  0.00  0.00     0.008 C 
ENDBRANCH  35  36
ENDBRANCH   9  35
BRANCH  10  38
HETATM   38  C   UNK N   1      34.542  17.996   8.644  0.00  0.00     0.164 C 
BRANCH  38  39
HETATM   39  C   UNK N   1      33.345  18.013   7.765  0.00  0.00    -0.017 C 
HETATM   40  C   UNK N   1      33.468  17.643   6.495  0.00  0.00     0.008 C 
ENDBRANCH  38  39
ENDBRANCH  10  38
TORSDOF 7
ENDMDL
MODEL 3
REMARK VINA RESULT:      -8.0      9.818     14.351
REMARK  7 active torsions:
REMARK  status: ('A' for Active; 'I' for Inactive)
REMARK    1  A    between atoms: N_3  and  C_15 
REMARK       I    between atoms: N_4  and  C_20 
REMARK       I    between atoms: N_11  and  C_31 
REMARK    2  A    between atoms: N_11  and  C_33 
REMARK       I    between atoms: N_12  and  C_32 
REMARK    3  A    between atoms: N_12  and  C_34 
REMARK    4  A    between atoms: C_15  and  C_18 
REMARK    5  A    between atoms: C_15  and  C_19 
REMARK    6  A    between atoms: C_33  and  C_35 
REMARK    7  A    between atoms: C_34  and  C_36 
ROOT
HETATM    1  N   UNK N   1      28.447  15.993   5.594  0.00  0.00     0.105 N 
HETATM    2  N   UNK N   1      27.683  14.792   3.172  0.00  0.00    -0.213 N 
HETATM    3  N   UNK N   1      27.644  12.614   2.144  0.00  0.00    -0.021 N 
ATOM      4  HN  UNK N   1      28.632  12.500   2.368  1.00  0.00     0.203 HD
HETATM    5  N   UNK N   1      25.683  13.902   2.201  0.00  0.00    -0.021 N 
ATOM      6  HN  UNK N   1      25.194  14.752   2.480  1.00  0.00     0.203 HD
HETATM    7  N   UNK N   1      25.663  11.789   1.183  0.00  0.00    -0.022 N 
ATOM      8  HN  UNK N   1      25.164  11.056   0.677  1.00  0.00     0.203 HD
HETATM    9  N   UNK N   1      27.669  10.447   1.139  0.00  0.00    -0.222 N 
HETATM   10  N   UNK N   1      23.667  13.152   1.176  0.00  0.00    -0.222 N 
HETATM   11  C   UNK N   1      27.045  15.986   5.141  0.00  0.00     0.294 C 
HETATM   12  C   UNK N   1      29.123  14.772   5.104  0.00  0.00     0.294 C 
HETATM   13  C   UNK N   1      26.961  15.954   3.617  0.00  0.00     0.171 C 
HETATM   14  C   UNK N   1      29.058  14.647   3.576  0.00  0.00     0.171 C 
HETATM   15  C   UNK N   1      26.998  13.757   2.496  0.00  0.00     0.709 A 
HETATM   16  C   UNK N   1      26.978  11.626   1.498  0.00  0.00     0.707 A 
HETATM   17  C   UNK N   1      25.014  12.931   1.541  0.00  0.00     0.707 A 
HETATM   18  H   UNK N   1      28.631  10.379   1.339  0.00  0.00     0.178 HD
HETATM   19  H   UNK N   1      23.137  13.814   1.674  0.00  0.00     0.178 HD
ENDROOT
BRANCH   1  20
HETATM   20  C   UNK N   1      29.152  17.238   5.201  0.00  0.00     0.289 C 
BRANCH  20  21
HETATM   21  C   UNK N   1      28.351  18.502   5.485  0.00  0.00    -0.021 A 
HETATM   22  C   UNK N   1      28.108  18.869   6.819  0.00  0.00     0.012 A 
HETATM   23  C   UNK N   1      27.483  20.082   7.121  0.00  0.00     0.043 A 
HETATM   24  C   UNK N   1      27.089  20.939   6.093  0.00  0.00     0.116 A 
HETATM   25  F   UNK N   1      26.489  22.118   6.386  0.00  0.00    -0.206 F 
HETATM   26  C   UNK N   1      27.318  20.582   4.761  0.00  0.00     0.043 A 
HETATM   27  C   UNK N   1      27.961  19.376   4.459  0.00  0.00     0.012 A 
ENDBRANCH  20  21
BRANCH  20  28
HETATM   28  C   UNK N   1      30.624  17.239   5.574  0.00  0.00    -0.021 A 
HETATM   29  C   UNK N   1      31.627  17.452   4.617  0.00  0.00     0.012 A 
HETATM   30  C   UNK N   1      32.968  17.541   5.001  0.00  0.00     0.043 A 
HETATM   31  C   UNK N   1      33.315  17.443   6.351  0.00  0.00     0.116 A 
HETATM   32  F   UNK N   1      34.612  17.552   6.728  0.00  0.00    -0.206 F 
HETATM   33  C   UNK N   1      32.324  17.239   7.314  0.00  0.00     0.043 A 
HETATM   34  C   UNK N   1      30.986  17.136   6.925  0.00  0.00     0.012 A 
ENDBRANCH  20  28
ENDBRANCH   1  20
BRANCH   9  35
HETATM   35  C   UNK N   1      27.014   9.342   0.490  0.00  0.00     0.164 C 
BRANCH  35  36
HETATM   36  C   UNK N   1      28.003   8.632  -0.370  0.00  0.00    -0.017 C 
HETATM   37  C   UNK N   1      29.047   9.283  -0.874  0.00  0.00     0.008 C 
ENDBRANCH  35  36
ENDBRANCH   9  35
BRANCH  10  38
HETATM   38  C   UNK N   1      23.054  12.429   0.096  0.00  0.00     0.164 C 
BRANCH  38  39
HETATM   39  C   UNK N   1      21.647  12.083   0.422  0.00  0.00    -0.017 C 
HETATM   40  C   UNK N   1      20.801  13.051   0.754  0.00  0.00     0.008 C 
ENDBRANCH  38  39
ENDBRANCH  10  38
TORSDOF 7
ENDMDL
MODEL 4
REMARK VINA RESULT:      -7.7      3.553     10.360
REMARK  7 active torsions:
REMARK  status: ('A' for Active; 'I' for Inactive)
REMARK    1  A    between atoms: N_3  and  C_15 
REMARK       I    between atoms: N_4  and  C_20 
REMARK       I    between atoms: N_11  and  C_31 
REMARK    2  A    between atoms: N_11  and  C_33 
REMARK       I    between atoms: N_12  and  C_32 
REMARK    3  A    between atoms: N_12  and  C_34 
REMARK    4  A    between atoms: C_15  and  C_18 
REMARK    5  A    between atoms: C_15  and  C_19 
REMARK    6  A    between atoms: C_33  and  C_35 
REMARK    7  A    between atoms: C_34  and  C_36 
ROOT
HETATM    1  N   UNK N   1      35.656  15.018   9.219  0.00  0.00     0.105 N 
HETATM    2  N   UNK N   1      35.407  13.123  11.277  0.00  0.00    -0.213 N 
HETATM    3  N   UNK N   1      36.790  11.621  12.555  0.00  0.00    -0.021 N 
ATOM      4  HN  UNK N   1      37.164  11.240  11.686  1.00  0.00     0.203 HD
HETATM    5  N   UNK N   1      35.371  13.119  13.672  0.00  0.00    -0.021 N 
ATOM      6  HN  UNK N   1      34.686  13.874  13.642  1.00  0.00     0.203 HD
HETATM    7  N   UNK N   1      36.704  11.635  14.905  0.00  0.00    -0.022 N 
ATOM      8  HN  UNK N   1      37.011  11.259  15.803  1.00  0.00     0.203 HD
HETATM    9  N   UNK N   1      38.185  10.105  13.766  0.00  0.00    -0.222 N 
HETATM   10  N   UNK N   1      35.184  13.126  16.047  0.00  0.00    -0.222 N 
HETATM   11  C   UNK N   1      35.206  15.397  10.569  0.00  0.00     0.294 C 
HETATM   12  C   UNK N   1      36.592  13.877   9.319  0.00  0.00     0.294 C 
HETATM   13  C   UNK N   1      34.494  14.234  11.256  0.00  0.00     0.171 C 
HETATM   14  C   UNK N   1      35.961  12.671  10.027  0.00  0.00     0.171 C 
HETATM   15  C   UNK N   1      35.861  12.612  12.515  0.00  0.00     0.709 A 
HETATM   16  C   UNK N   1      37.220  11.138  13.746  0.00  0.00     0.707 A 
HETATM   17  C   UNK N   1      35.779  12.633  14.864  0.00  0.00     0.707 A 
HETATM   18  H   UNK N   1      38.504   9.736  12.911  0.00  0.00     0.178 HD
HETATM   19  H   UNK N   1      34.758  14.013  16.037  0.00  0.00     0.178 HD
ENDROOT
BRANCH   1  20
HETATM   20  C   UNK N   1      34.516  14.749   8.308  0.00  0.00     0.289 C 
BRANCH  20  21
HETATM   21  C   UNK N   1      33.474  15.861   8.297  0.00  0.00    -0.021 A 
HETATM   22  C   UNK N   1      32.153  15.560   8.666  0.00  0.00     0.012 A 
HETATM   23  C   UNK N   1      31.198  16.574   8.785  0.00  0.00     0.043 A 
HETATM   24  C   UNK N   1      31.553  17.899   8.530  0.00  0.00     0.116 A 
HETATM   25  F   UNK N   1      30.630  18.883   8.652  0.00  0.00    -0.206 F 
HETATM   26  C   UNK N   1      32.863  18.210   8.154  0.00  0.00     0.043 A 
HETATM   27  C   UNK N   1      33.823  17.198   8.054  0.00  0.00     0.012 A 
ENDBRANCH  20  21
BRANCH  20  28
HETATM   28  C   UNK N   1      34.938  14.168   6.969  0.00  0.00    -0.021 A 
HETATM   29  C   UNK N   1      36.027  14.683   6.253  0.00  0.00     0.012 A 
HETATM   30  C   UNK N   1      36.452  14.071   5.070  0.00  0.00     0.043 A 
HETATM   31  C   UNK N   1      35.805  12.922   4.607  0.00  0.00     0.116 A 
HETATM   32  F   UNK N   1      36.229  12.315   3.473  0.00  0.00    -0.206 F 
HETATM   33  C   UNK N   1      34.724  12.396   5.316  0.00  0.00     0.043 A 
HETATM   34  C   UNK N   1      34.292  13.018   6.491  0.00  0.00     0.012 A 
ENDBRANCH  20  28
ENDBRANCH   1  20
BRANCH   9  35
HETATM   35  C   UNK N   1      38.717   9.577  14.994  0.00  0.00     0.164 C 
BRANCH  35  36
HETATM   36  C   UNK N   1      39.717   8.519  14.671  0.00  0.00    -0.017 C 
HETATM   37  C   UNK N   1      40.991   8.670  15.016  0.00  0.00     0.008 C 
ENDBRANCH  35  36
ENDBRANCH   9  35
BRANCH  10  38
HETATM   38  C   UNK N   1      35.188  12.362  17.265  0.00  0.00     0.164 C 
BRANCH  38  39
HETATM   39  C   UNK N   1      35.161  13.256  18.450  0.00  0.00    -0.017 C 
HETATM   40  C   UNK N   1      35.439  14.546  18.296  0.00  0.00     0.008 C 
ENDBRANCH  38  39
ENDBRANCH  10  38
TORSDOF 7
ENDMDL
MODEL 5
REMARK VINA RESULT:      -7.6      6.186     12.486
REMARK  7 active torsions:
REMARK  status: ('A' for Active; 'I' for Inactive)
REMARK    1  A    between atoms: N_3  and  C_15 
REMARK       I    between atoms: N_4  and  C_20 
REMARK       I    between atoms: N_11  and  C_31 
REMARK    2  A    between atoms: N_11  and  C_33 
REMARK       I    between atoms: N_12  and  C_32 
REMARK    3  A    between atoms: N_12  and  C_34 
REMARK    4  A    between atoms: C_15  and  C_18 
REMARK    5  A    between atoms: C_15  and  C_19 
REMARK    6  A    between atoms: C_33  and  C_35 
REMARK    7  A    between atoms: C_34  and  C_36 
ROOT
HETATM    1  N   UNK N   1      30.326  16.843   4.901  0.00  0.00     0.105 N 
HETATM    2  N   UNK N   1      31.634  15.484   6.982  0.00  0.00    -0.213 N 
HETATM    3  N   UNK N   1      33.301  13.772   7.282  0.00  0.00    -0.021 N 
ATOM      4  HN  UNK N   1      32.774  13.161   6.658  1.00  0.00     0.203 HD
HETATM    5  N   UNK N   1      33.546  15.830   8.383  0.00  0.00    -0.021 N 
ATOM      6  HN  UNK N   1      33.209  16.773   8.575  1.00  0.00     0.203 HD
HETATM    7  N   UNK N   1      35.150  14.146   8.686  0.00  0.00    -0.022 N 
ATOM      8  HN  UNK N   1      36.011  13.813   9.122  1.00  0.00     0.203 HD
HETATM    9  N   UNK N   1      34.919  12.033   7.540  0.00  0.00    -0.222 N 
HETATM   10  N   UNK N   1      35.355  16.239   9.877  0.00  0.00    -0.222 N 
HETATM   11  C   UNK N   1      31.197  17.547   5.858  0.00  0.00     0.294 C 
HETATM   12  C   UNK N   1      30.823  15.463   4.713  0.00  0.00     0.294 C 
HETATM   13  C   UNK N   1      31.210  16.840   7.210  0.00  0.00     0.171 C 
HETATM   14  C   UNK N   1      30.895  14.689   6.036  0.00  0.00     0.171 C 
HETATM   15  C   UNK N   1      32.840  15.020   7.556  0.00  0.00     0.709 A 
HETATM   16  C   UNK N   1      34.459  13.336   7.836  0.00  0.00     0.707 A 
HETATM   17  C   UNK N   1      34.691  15.399   8.955  0.00  0.00     0.707 A 
HETATM   18  H   UNK N   1      34.373  11.456   6.960  0.00  0.00     0.178 HD
HETATM   19  H   UNK N   1      35.199  17.210   9.842  0.00  0.00     0.178 HD
ENDROOT
BRANCH   1  20
HETATM   20  C   UNK N   1      28.900  16.891   5.309  0.00  0.00     0.289 C 
BRANCH  20  21
HETATM   21  C   UNK N   1      28.408  18.297   5.626  0.00  0.00    -0.021 A 
HETATM   22  C   UNK N   1      28.189  19.197   4.570  0.00  0.00     0.012 A 
HETATM   23  C   UNK N   1      27.625  20.453   4.810  0.00  0.00     0.043 A 
HETATM   24  C   UNK N   1      27.279  20.825   6.109  0.00  0.00     0.116 A 
HETATM   25  F   UNK N   1      26.725  22.040   6.340  0.00  0.00    -0.206 F 
HETATM   26  C   UNK N   1      27.498  19.942   7.169  0.00  0.00     0.043 A 
HETATM   27  C   UNK N   1      28.045  18.678   6.927  0.00  0.00     0.012 A 
ENDBRANCH  20  21
BRANCH  20  28
HETATM   28  C   UNK N   1      28.001  16.006   4.462  0.00  0.00    -0.021 A 
HETATM   29  C   UNK N   1      27.995  16.086   3.063  0.00  0.00     0.012 A 
HETATM   30  C   UNK N   1      27.227  15.196   2.304  0.00  0.00     0.043 A 
HETATM   31  C   UNK N   1      26.479  14.202   2.940  0.00  0.00     0.116 A 
HETATM   32  F   UNK N   1      25.753  13.325   2.206  0.00  0.00    -0.206 F 
HETATM   33  C   UNK N   1      26.484  14.108   4.333  0.00  0.00     0.043 A 
HETATM   34  C   UNK N   1      27.241  15.008   5.090  0.00  0.00     0.012 A 
ENDBRANCH  20  28
ENDBRANCH   1  20
BRANCH   9  35
HETATM   35  C   UNK N   1      36.161  11.523   8.059  0.00  0.00     0.164 C 
BRANCH  35  36
HETATM   36  C   UNK N   1      35.875  10.690   9.262  0.00  0.00    -0.017 C 
HETATM   37  C   UNK N   1      36.149  11.148  10.479  0.00  0.00     0.008 C 
ENDBRANCH  35  36
ENDBRANCH   9  35
BRANCH  10  38
HETATM   38  C   UNK N   1      36.256  15.707  10.863  0.00  0.00     0.164 C 
BRANCH  38  39
HETATM   39  C   UNK N   1      35.507  15.121  12.003  0.00  0.00    -0.017 C 
HETATM   40  C   UNK N   1      36.125  14.277  12.821  0.00  0.00     0.008 C 
ENDBRANCH  38  39
ENDBRANCH  10  38
TORSDOF 7
ENDMDL
MODEL 6
REMARK VINA RESULT:      -7.4      9.542     13.108
REMARK  7 active torsions:
REMARK  status: ('A' for Active; 'I' for Inactive)
REMARK    1  A    between atoms: N_3  and  C_15 
REMARK       I    between atoms: N_4  and  C_20 
REMARK       I    between atoms: N_11  and  C_31 
REMARK    2  A    between atoms: N_11  and  C_33 
REMARK       I    between atoms: N_12  and  C_32 
REMARK    3  A    between atoms: N_12  and  C_34 
REMARK    4  A    between atoms: C_15  and  C_18 
REMARK    5  A    between atoms: C_15  and  C_19 
REMARK    6  A    between atoms: C_33  and  C_35 
REMARK    7  A    between atoms: C_34  and  C_36 
ROOT
HETATM    1  N   UNK N   1      29.748  16.862   4.288  0.00  0.00     0.105 N 
HETATM    2  N   UNK N   1      27.106  16.091   4.846  0.00  0.00    -0.213 N 
HETATM    3  N   UNK N   1      24.955  17.097   5.247  0.00  0.00    -0.021 N 
ATOM      4  HN  UNK N   1      25.373  17.686   5.966  1.00  0.00     0.203 HD
HETATM    5  N   UNK N   1      25.165  15.430   3.608  0.00  0.00    -0.021 N 
ATOM      6  HN  UNK N   1      25.746  14.775   3.087  1.00  0.00     0.203 HD
HETATM    7  N   UNK N   1      23.071  16.401   4.024  0.00  0.00    -0.022 N 
ATOM      8  HN  UNK N   1      22.071  16.463   3.829  1.00  0.00     0.203 HD
HETATM    9  N   UNK N   1      22.848  18.133   5.691  0.00  0.00    -0.222 N 
HETATM   10  N   UNK N   1      23.279  14.629   2.393  0.00  0.00    -0.222 N 
HETATM   11  C   UNK N   1      28.953  16.073   3.330  0.00  0.00     0.294 C 
HETATM   12  C   UNK N   1      28.847  17.743   5.061  0.00  0.00     0.294 C 
HETATM   13  C   UNK N   1      27.922  15.211   4.054  0.00  0.00     0.171 C 
HETATM   14  C   UNK N   1      27.758  16.953   5.798  0.00  0.00     0.171 C 
HETATM   15  C   UNK N   1      25.725  16.208   4.567  0.00  0.00     0.709 A 
HETATM   16  C   UNK N   1      23.632  17.203   4.971  0.00  0.00     0.707 A 
HETATM   17  C   UNK N   1      23.844  15.515   3.338  0.00  0.00     0.707 A 
HETATM   18  H   UNK N   1      23.273  18.665   6.401  0.00  0.00     0.178 HD
HETATM   19  H   UNK N   1      23.859  14.219   1.712  0.00  0.00     0.178 HD
ENDROOT
BRANCH   1  20
HETATM   20  C   UNK N   1      30.592  16.000   5.152  0.00  0.00     0.289 C 
BRANCH  20  21
HETATM   21  C   UNK N   1      31.148  14.779   4.431  0.00  0.00    -0.021 A 
HETATM   22  C   UNK N   1      31.913  14.965   3.268  0.00  0.00     0.012 A 
HETATM   23  C   UNK N   1      32.540  13.881   2.647  0.00  0.00     0.043 A 
HETATM   24  C   UNK N   1      32.404  12.598   3.179  0.00  0.00     0.116 A 
HETATM   25  F   UNK N   1      33.018  11.549   2.581  0.00  0.00    -0.206 F 
HETATM   26  C   UNK N   1      31.639  12.399   4.331  0.00  0.00     0.043 A 
HETATM   27  C   UNK N   1      31.027  13.487   4.963  0.00  0.00     0.012 A 
ENDBRANCH  20  21
BRANCH  20  28
HETATM   28  C   UNK N   1      31.541  16.785   6.042  0.00  0.00    -0.021 A 
HETATM   29  C   UNK N   1      31.245  17.045   7.387  0.00  0.00     0.012 A 
HETATM   30  C   UNK N   1      32.177  17.687   8.207  0.00  0.00     0.043 A 
HETATM   31  C   UNK N   1      33.424  18.053   7.694  0.00  0.00     0.116 A 
HETATM   32  F   UNK N   1      34.336  18.656   8.493  0.00  0.00    -0.206 F 
HETATM   33  C   UNK N   1      33.733  17.792   6.358  0.00  0.00     0.043 A 
HETATM   34  C   UNK N   1      32.794  17.162   5.536  0.00  0.00     0.012 A 
ENDBRANCH  20  28
ENDBRANCH   1  20
BRANCH   9  35
HETATM   35  C   UNK N   1      21.448  18.327   5.420  0.00  0.00     0.164 C 
BRANCH  35  36
HETATM   36  C   UNK N   1      21.305  19.233   4.245  0.00  0.00    -0.017 C 
HETATM   37  C   UNK N   1      20.464  18.932   3.261  0.00  0.00     0.008 C 
ENDBRANCH  35  36
ENDBRANCH   9  35
BRANCH  10  38
HETATM   38  C   UNK N   1      21.876  14.318   2.401  0.00  0.00     0.164 C 
BRANCH  38  39
HETATM   39  C   UNK N   1      21.237  14.719   1.122  0.00  0.00    -0.017 C 
HETATM   40  C   UNK N   1      20.585  15.874   1.057  0.00  0.00     0.008 C 
ENDBRANCH  38  39
ENDBRANCH  10  38
TORSDOF 7
ENDMDL
MODEL 7
REMARK VINA RESULT:      -7.4     10.189     15.351
REMARK  7 active torsions:
REMARK  status: ('A' for Active; 'I' for Inactive)
REMARK    1  A    between atoms: N_3  and  C_15 
REMARK       I    between atoms: N_4  and  C_20 
REMARK       I    between atoms: N_11  and  C_31 
REMARK    2  A    between atoms: N_11  and  C_33 
REMARK       I    between atoms: N_12  and  C_32 
REMARK    3  A    between atoms: N_12  and  C_34 
REMARK    4  A    between atoms: C_15  and  C_18 
REMARK    5  A    between atoms: C_15  and  C_19 
REMARK    6  A    between atoms: C_33  and  C_35 
REMARK    7  A    between atoms: C_34  and  C_36 
ROOT
HETATM    1  N   UNK N   1      23.988  16.474   4.069  0.00  0.00     0.105 N 
HETATM    2  N   UNK N   1      26.461  15.466   4.939  0.00  0.00    -0.213 N 
HETATM    3  N   UNK N   1      28.739  15.301   4.173  0.00  0.00    -0.021 N 
ATOM      4  HN  UNK N   1      28.408  14.887   3.302  1.00  0.00     0.203 HD
HETATM    5  N   UNK N   1      28.293  16.215   6.288  0.00  0.00    -0.021 N 
ATOM      6  HN  UNK N   1      27.623  16.500   7.002  1.00  0.00     0.203 HD
HETATM    7  N   UNK N   1      30.508  16.028   5.541  0.00  0.00    -0.022 N 
ATOM      8  HN  UNK N   1      31.509  16.154   5.700  1.00  0.00     0.203 HD
HETATM    9  N   UNK N   1      30.977  15.111   3.358  0.00  0.00    -0.222 N 
HETATM   10  N   UNK N   1      30.047  16.896   7.749  0.00  0.00    -0.222 N 
HETATM   11  C   UNK N   1      24.663  17.006   5.266  0.00  0.00     0.294 C 
HETATM   12  C   UNK N   1      25.006  16.016   3.099  0.00  0.00     0.294 C 
HETATM   13  C   UNK N   1      25.528  15.936   5.927  0.00  0.00     0.171 C 
HETATM   14  C   UNK N   1      25.940  14.956   3.697  0.00  0.00     0.171 C 
HETATM   15  C   UNK N   1      27.848  15.660   5.134  0.00  0.00     0.709 A 
HETATM   16  C   UNK N   1      30.067  15.493   4.369  0.00  0.00     0.707 A 
HETATM   17  C   UNK N   1      29.614  16.394   6.501  0.00  0.00     0.707 A 
HETATM   18  H   UNK N   1      30.629  14.684   2.541  0.00  0.00     0.178 HD
HETATM   19  H   UNK N   1      29.421  17.418   8.300  0.00  0.00     0.178 HD
ENDROOT
BRANCH   1  20
HETATM   20  C   UNK N   1      23.001  15.421   4.410  0.00  0.00     0.289 C 
BRANCH  20  21
HETATM   21  C   UNK N   1      22.135  15.769   5.613  0.00  0.00    -0.021 A 
HETATM   22  C   UNK N   1      22.029  14.846   6.666  0.00  0.00     0.012 A 
HETATM   23  C   UNK N   1      21.343  15.177   7.838  0.00  0.00     0.043 A 
HETATM   24  C   UNK N   1      20.751  16.434   7.967  0.00  0.00     0.116 A 
HETATM   25  F   UNK N   1      20.093  16.758   9.106  0.00  0.00    -0.206 F 
HETATM   26  C   UNK N   1      20.843  17.358   6.924  0.00  0.00     0.043 A 
HETATM   27  C   UNK N   1      21.545  17.033   5.759  0.00  0.00     0.012 A 
ENDBRANCH  20  21
BRANCH  20  28
HETATM   28  C   UNK N   1      22.310  14.827   3.194  0.00  0.00    -0.021 A 
HETATM   29  C   UNK N   1      22.381  13.458   2.901  0.00  0.00     0.012 A 
HETATM   30  C   UNK N   1      21.659  12.923   1.830  0.00  0.00     0.043 A 
HETATM   31  C   UNK N   1      20.841  13.750   1.057  0.00  0.00     0.116 A 
HETATM   32  F   UNK N   1      20.123  13.230   0.032  0.00  0.00    -0.206 F 
HETATM   33  C   UNK N   1      20.756  15.114   1.344  0.00  0.00     0.043 A 
HETATM   34  C   UNK N   1      21.490  15.649   2.407  0.00  0.00     0.012 A 
ENDBRANCH  20  28
ENDBRANCH   1  20
BRANCH   9  35
HETATM   35  C   UNK N   1      32.394  15.325   3.481  0.00  0.00     0.164 C 
BRANCH  35  36
HETATM   36  C   UNK N   1      32.713  16.713   3.042  0.00  0.00    -0.017 C 
HETATM   37  C   UNK N   1      32.999  17.653   3.936  0.00  0.00     0.008 C 
ENDBRANCH  35  36
ENDBRANCH   9  35
BRANCH  10  38
HETATM   38  C   UNK N   1      31.381  16.664   8.231  0.00  0.00     0.164 C 
BRANCH  38  39
HETATM   39  C   UNK N   1      32.155  17.930   8.277  0.00  0.00    -0.017 C 
HETATM   40  C   UNK N   1      33.322  18.001   7.646  0.00  0.00     0.008 C 
ENDBRANCH  38  39
ENDBRANCH  10  38
TORSDOF 7
ENDMDL
MODEL 8
REMARK VINA RESULT:      -7.4     11.217     14.296
REMARK  7 active torsions:
REMARK  status: ('A' for Active; 'I' for Inactive)
REMARK    1  A    between atoms: N_3  and  C_15 
REMARK       I    between atoms: N_4  and  C_20 
REMARK       I    between atoms: N_11  and  C_31 
REMARK    2  A    between atoms: N_11  and  C_33 
REMARK       I    between atoms: N_12  and  C_32 
REMARK    3  A    between atoms: N_12  and  C_34 
REMARK    4  A    between atoms: C_15  and  C_18 
REMARK    5  A    between atoms: C_15  and  C_19 
REMARK    6  A    between atoms: C_33  and  C_35 
REMARK    7  A    between atoms: C_34  and  C_36 
ROOT
HETATM    1  N   UNK N   1      23.654  12.195   6.181  0.00  0.00     0.105 N 
HETATM    2  N   UNK N   1      24.565  14.839   6.447  0.00  0.00    -0.213 N 
HETATM    3  N   UNK N   1      26.550  16.029   7.114  0.00  0.00    -0.021 N 
ATOM      4  HN  UNK N   1      26.567  15.497   7.984  1.00  0.00     0.203 HD
HETATM    5  N   UNK N   1      25.553  16.511   5.045  0.00  0.00    -0.021 N 
ATOM      6  HN  UNK N   1      24.826  16.331   4.354  1.00  0.00     0.203 HD
HETATM    7  N   UNK N   1      27.472  17.680   5.716  0.00  0.00    -0.022 N 
ATOM      8  HN  UNK N   1      28.180  18.394   5.539  1.00  0.00     0.203 HD
HETATM    9  N   UNK N   1      28.520  17.175   7.832  0.00  0.00    -0.222 N 
HETATM   10  N   UNK N   1      26.396  18.225   3.623  0.00  0.00    -0.222 N 
HETATM   11  C   UNK N   1      23.775  13.093   5.019  0.00  0.00     0.294 C 
HETATM   12  C   UNK N   1      24.689  12.546   7.178  0.00  0.00     0.294 C 
HETATM   13  C   UNK N   1      23.588  14.551   5.432  0.00  0.00     0.171 C 
HETATM   14  C   UNK N   1      24.589  14.010   7.625  0.00  0.00     0.171 C 
HETATM   15  C   UNK N   1      25.568  15.805   6.203  0.00  0.00     0.709 A 
HETATM   16  C   UNK N   1      27.508  16.956   6.870  0.00  0.00     0.707 A 
HETATM   17  C   UNK N   1      26.492  17.450   4.800  0.00  0.00     0.707 A 
HETATM   18  H   UNK N   1      28.491  16.670   8.676  0.00  0.00     0.178 HD
HETATM   19  H   UNK N   1      25.891  17.873   2.855  0.00  0.00     0.178 HD
ENDROOT
BRANCH   1  20
HETATM   20  C   UNK N   1      22.283  12.202   6.748  0.00  0.00     0.289 C 
BRANCH  20  21
HETATM   21  C   UNK N   1      21.334  11.238   6.047  0.00  0.00    -0.021 A 
HETATM   22  C   UNK N   1      20.110  11.723   5.557  0.00  0.00     0.012 A 
HETATM   23  C   UNK N   1      19.267  10.901   4.804  0.00  0.00     0.043 A 
HETATM   24  C   UNK N   1      19.637   9.582   4.538  0.00  0.00     0.116 A 
HETATM   25  F   UNK N   1      18.823   8.787   3.802  0.00  0.00    -0.206 F 
HETATM   26  C   UNK N   1      20.848   9.085   5.026  0.00  0.00     0.043 A 
HETATM   27  C   UNK N   1      21.700   9.914   5.763  0.00  0.00     0.012 A 
ENDBRANCH  20  21
BRANCH  20  28
HETATM   28  C   UNK N   1      22.259  12.232   8.267  0.00  0.00    -0.021 A 
HETATM   29  C   UNK N   1      21.410  13.095   8.973  0.00  0.00     0.012 A 
HETATM   30  C   UNK N   1      21.340  13.036  10.369  0.00  0.00     0.043 A 
HETATM   31  C   UNK N   1      22.103  12.097  11.067  0.00  0.00     0.116 A 
HETATM   32  F   UNK N   1      22.020  12.024  12.417  0.00  0.00    -0.206 F 
HETATM   33  C   UNK N   1      22.947  11.228  10.373  0.00  0.00     0.043 A 
HETATM   34  C   UNK N   1      23.025  11.297   8.979  0.00  0.00     0.012 A 
ENDBRANCH  20  28
ENDBRANCH   1  20
BRANCH   9  35
HETATM   35  C   UNK N   1      29.590  18.113   7.619  0.00  0.00     0.164 C 
BRANCH  35  36
HETATM   36  C   UNK N   1      30.355  18.269   8.889  0.00  0.00    -0.017 C 
HETATM   37  C   UNK N   1      29.769  18.770   9.971  0.00  0.00     0.008 C 
ENDBRANCH  35  36
ENDBRANCH   9  35
BRANCH  10  38
HETATM   38  C   UNK N   1      27.022  19.515   3.520  0.00  0.00     0.164 C 
BRANCH  38  39
HETATM   39  C   UNK N   1      26.005  20.598   3.517  0.00  0.00    -0.017 C 
HETATM   40  C   UNK N   1      24.972  20.515   2.686  0.00  0.00     0.008 C 
ENDBRANCH  38  39
ENDBRANCH  10  38
TORSDOF 7
ENDMDL
MODEL 9
REMARK VINA RESULT:      -7.2     10.119     15.123
REMARK  7 active torsions:
REMARK  status: ('A' for Active; 'I' for Inactive)
REMARK    1  A    between atoms: N_3  and  C_15 
REMARK       I    between atoms: N_4  and  C_20 
REMARK       I    between atoms: N_11  and  C_31 
REMARK    2  A    between atoms: N_11  and  C_33 
REMARK       I    between atoms: N_12  and  C_32 
REMARK    3  A    between atoms: N_12  and  C_34 
REMARK    4  A    between atoms: C_15  and  C_18 
REMARK    5  A    between atoms: C_15  and  C_19 
REMARK    6  A    between atoms: C_33  and  C_35 
REMARK    7  A    between atoms: C_34  and  C_36 
ROOT
HETATM    1  N   UNK N   1      28.145  16.085   5.529  0.00  0.00     0.105 N 
HETATM    2  N   UNK N   1      26.308  15.392   3.521  0.00  0.00    -0.213 N 
HETATM    3  N   UNK N   1      25.530  13.434   2.354  0.00  0.00    -0.021 N 
ATOM      4  HN  UNK N   1      26.495  13.193   2.131  1.00  0.00     0.203 HD
HETATM    5  N   UNK N   1      23.976  14.868   3.372  0.00  0.00    -0.021 N 
ATOM      6  HN  UNK N   1      23.775  15.700   3.927  1.00  0.00     0.203 HD
HETATM    7  N   UNK N   1      23.228  12.972   2.212  0.00  0.00    -0.022 N 
ATOM      8  HN  UNK N   1      22.463  12.385   1.877  1.00  0.00     0.203 HD
HETATM    9  N   UNK N   1      24.819  11.478   1.181  0.00  0.00    -0.222 N 
HETATM   10  N   UNK N   1      21.630  14.494   3.196  0.00  0.00    -0.222 N 
HETATM   11  C   UNK N   1      26.696  16.286   5.703  0.00  0.00     0.294 C 
HETATM   12  C   UNK N   1      28.374  14.909   4.663  0.00  0.00     0.294 C 
HETATM   13  C   UNK N   1      26.011  16.522   4.360  0.00  0.00     0.171 C 
HETATM   14  C   UNK N   1      27.690  15.054   3.298  0.00  0.00     0.171 C 
HETATM   15  C   UNK N   1      25.260  14.555   3.074  0.00  0.00     0.709 A 
HETATM   16  C   UNK N   1      24.518  12.637   1.931  0.00  0.00     0.707 A 
HETATM   17  C   UNK N   1      22.960  14.091   2.940  0.00  0.00     0.707 A 
HETATM   18  H   UNK N   1      25.759  11.288   0.954  0.00  0.00     0.178 HD
HETATM   19  H   UNK N   1      21.449  15.108   3.944  0.00  0.00     0.178 HD
ENDROOT
BRANCH   1  20
HETATM   20  C   UNK N   1      28.819  17.309   5.029  0.00  0.00     0.289 C 
BRANCH  20  21
HETATM   21  C   UNK N   1      28.071  18.592   5.364  0.00  0.00    -0.021 A 
HETATM   22  C   UNK N   1      27.953  18.981   6.709  0.00  0.00     0.012 A 
HETATM   23  C   UNK N   1      27.380  20.210   7.048  0.00  0.00     0.043 A 
HETATM   24  C   UNK N   1      26.913  21.061   6.045  0.00  0.00     0.116 A 
HETATM   25  F   UNK N   1      26.364  22.256   6.374  0.00  0.00    -0.206 F 
HETATM   26  C   UNK N   1      27.017  20.683   4.705  0.00  0.00     0.043 A 
HETATM   27  C   UNK N   1      27.608  19.461   4.365  0.00  0.00     0.012 A 
ENDBRANCH  20  21
BRANCH  20  28
HETATM   28  C   UNK N   1      30.324  17.297   5.240  0.00  0.00    -0.021 A 
HETATM   29  C   UNK N   1      30.895  16.893   6.455  0.00  0.00     0.012 A 
HETATM   30  C   UNK N   1      32.283  16.802   6.591  0.00  0.00     0.043 A 
HETATM   31  C   UNK N   1      33.112  17.091   5.503  0.00  0.00     0.116 A 
HETATM   32  F   UNK N   1      34.456  16.982   5.627  0.00  0.00    -0.206 F 
HETATM   33  C   UNK N   1      32.554  17.487   4.286  0.00  0.00     0.043 A 
HETATM   34  C   UNK N   1      31.166  17.591   4.157  0.00  0.00     0.012 A 
ENDBRANCH  20  28
ENDBRANCH   1  20
BRANCH   9  35
HETATM   35  C   UNK N   1      23.799  10.565   0.737  0.00  0.00     0.164 C 
BRANCH  35  36
HETATM   36  C   UNK N   1      24.341   9.740  -0.379  0.00  0.00    -0.017 C 
HETATM   37  C   UNK N   1      23.526   9.022  -1.144  0.00  0.00     0.008 C 
ENDBRANCH  35  36
ENDBRANCH   9  35
BRANCH  10  38
HETATM   38  C   UNK N   1      20.535  14.026   2.391  0.00  0.00     0.164 C 
BRANCH  38  39
HETATM   39  C   UNK N   1      20.250  14.974   1.284  0.00  0.00    -0.017 C 
HETATM   40  C   UNK N   1      19.233  14.728   0.465  0.00  0.00     0.008 C 
ENDBRANCH  38  39
ENDBRANCH  10  38
TORSDOF 7
ENDMDL
