MODEL 1
REMARK VINA RESULT:      -7.1      0.000      0.000
REMARK  3 active torsions:
REMARK  status: ('A' for Active; 'I' for Inactive)
REMARK    1  A    between atoms: C_6  and  O_1 
REMARK    2  A    between atoms: C_6  and  C_16 
REMARK    3  A    between atoms: C_16  and  C_21 
ROOT
HETATM    1  C   UNK N   1      35.349  10.002  19.616  0.00  0.00    -0.009 C 
HETATM    2  C   UNK N   1      34.762  10.014  18.209  0.00  0.00     0.001 C 
HETATM    3  C   UNK N   1      35.466  11.044  17.306  0.00  0.00    -0.005 C 
HETATM    4  C   UNK N   1      35.678  12.421  18.053  0.00  0.00    -0.002 C 
HETATM    5  C   UNK N   1      34.674   8.755  20.214  0.00  0.00     0.068 C 
HETATM    6  C   UNK N   1      35.061  11.333  20.337  0.00  0.00     0.013 C 
HETATM    7  C   UNK N   1      34.840   8.556  17.763  0.00  0.00     0.009 C 
HETATM    8  C   UNK N   1      34.864  12.522  19.365  0.00  0.00     0.006 C 
HETATM    9  C   UNK N   1      34.808   7.739  19.069  0.00  0.00     0.039 C 
HETATM   10  C   UNK N   1      35.349  13.630  17.140  0.00  0.00     0.019 C 
HETATM   11  C   UNK N   1      34.737  11.191  15.958  0.00  0.00     0.009 C 
HETATM   12  C   UNK N   1      36.875   9.802  19.582  0.00  0.00     0.019 C 
HETATM   13  C   UNK N   1      35.533  12.123  15.033  0.00  0.00     0.034 C 
HETATM   14  C   UNK N   1      35.921  13.386  15.752  0.00  0.00    -0.079 C 
HETATM   15  C   UNK N   1      35.778  14.973  17.756  0.00  0.00     0.010 C 
HETATM   16  C   UNK N   1      37.209  15.325  17.380  0.00  0.00     0.004 C 
HETATM   17  C   UNK N   1      36.798  14.226  15.177  0.00  0.00    -0.024 C 
HETATM   18  C   UNK N   1      37.281  15.474  15.864  0.00  0.00     0.027 C 
ENDROOT
BRANCH   5  19
HETATM   19  O   UNK N   1      35.329   8.325  21.373  0.00  0.00    -0.389 OA
HETATM   20  H   UNK N   1      35.741   7.468  21.564  0.00  0.00     0.210 HD
ENDBRANCH   5  19
BRANCH   5  21
HETATM   21  C   UNK N   1      33.177   8.985  20.524  0.00  0.00     0.065 C 
BRANCH  21  22
HETATM   22  C   UNK N   1      32.224   7.868  20.161  0.00  0.00    -0.034 C 
HETATM   23  C   UNK N   1      30.913   8.040  19.985  0.00  0.00     0.007 C 
ENDBRANCH  21  22
ENDBRANCH   5  21
TORSDOF 3
ENDMDL
MODEL 2
REMARK VINA RESULT:      -7.0      2.387      6.673
REMARK  3 active torsions:
REMARK  status: ('A' for Active; 'I' for Inactive)
REMARK    1  A    between atoms: C_6  and  O_1 
REMARK    2  A    between atoms: C_6  and  C_16 
REMARK    3  A    between atoms: C_16  and  C_21 
ROOT
HETATM    1  C   UNK N   1      35.356  12.027  15.393  0.00  0.00    -0.009 C 
HETATM    2  C   UNK N   1      36.395  10.931  15.599  0.00  0.00     0.001 C 
HETATM    3  C   UNK N   1      35.800   9.711  16.326  0.00  0.00    -0.005 C 
HETATM    4  C   UNK N   1      34.902  10.148  17.552  0.00  0.00    -0.002 C 
HETATM    5  C   UNK N   1      36.109  12.984  14.450  0.00  0.00     0.068 C 
HETATM    6  C   UNK N   1      34.916  12.623  16.744  0.00  0.00     0.013 C 
HETATM    7  C   UNK N   1      36.954  10.681  14.201  0.00  0.00     0.009 C 
HETATM    8  C   UNK N   1      35.083  11.638  17.927  0.00  0.00     0.006 C 
HETATM    9  C   UNK N   1      36.743  12.009  13.446  0.00  0.00     0.039 C 
HETATM   10  C   UNK N   1      35.154   9.261  18.798  0.00  0.00     0.019 C 
HETATM   11  C   UNK N   1      36.899   8.703  16.709  0.00  0.00     0.009 C 
HETATM   12  C   UNK N   1      34.102  11.481  14.685  0.00  0.00     0.019 C 
HETATM   13  C   UNK N   1      36.263   7.442  17.314  0.00  0.00     0.034 C 
HETATM   14  C   UNK N   1      35.257   7.806  18.371  0.00  0.00    -0.079 C 
HETATM   15  C   UNK N   1      34.126   9.504  19.917  0.00  0.00     0.010 C 
HETATM   16  C   UNK N   1      32.912   8.602  19.761  0.00  0.00     0.004 C 
HETATM   17  C   UNK N   1      34.448   6.852  18.861  0.00  0.00    -0.024 C 
HETATM   18  C   UNK N   1      33.376   7.153  19.873  0.00  0.00     0.027 C 
ENDROOT
BRANCH   5  19
HETATM   19  O   UNK N   1      35.235  13.880  13.827  0.00  0.00    -0.389 OA
HETATM   20  H   UNK N   1      35.395  14.473  13.076  0.00  0.00     0.210 HD
ENDBRANCH   5  19
BRANCH   5  21
HETATM   21  C   UNK N   1      37.223  13.772  15.176  0.00  0.00     0.065 C 
BRANCH  21  22
HETATM   22  C   UNK N   1      37.034  15.268  15.297  0.00  0.00    -0.034 C 
HETATM   23  C   UNK N   1      37.539  16.001  16.291  0.00  0.00     0.007 C 
ENDBRANCH  21  22
ENDBRANCH   5  21
TORSDOF 3
ENDMDL
MODEL 3
REMARK VINA RESULT:      -6.8     24.654     27.935
REMARK  3 active torsions:
REMARK  status: ('A' for Active; 'I' for Inactive)
REMARK    1  A    between atoms: C_6  and  O_1 
REMARK    2  A    between atoms: C_6  and  C_16 
REMARK    3  A    between atoms: C_16  and  C_21 
ROOT
HETATM    1  C   UNK N   1      27.063  25.269  -5.077  0.00  0.00    -0.009 C 
HETATM    2  C   UNK N   1      28.366  26.057  -5.003  0.00  0.00     0.001 C 
HETATM    3  C   UNK N   1      29.595  25.133  -5.090  0.00  0.00    -0.005 C 
HETATM    4  C   UNK N   1      29.426  23.854  -4.177  0.00  0.00    -0.002 C 
HETATM    5  C   UNK N   1      26.032  26.403  -5.227  0.00  0.00     0.068 C 
HETATM    6  C   UNK N   1      26.897  24.371  -3.837  0.00  0.00     0.013 C 
HETATM    7  C   UNK N   1      28.228  27.108  -6.101  0.00  0.00     0.009 C 
HETATM    8  C   UNK N   1      28.245  23.978  -3.185  0.00  0.00     0.006 C 
HETATM    9  C   UNK N   1      26.709  27.314  -6.264  0.00  0.00     0.039 C 
HETATM   10  C   UNK N   1      30.727  23.522  -3.401  0.00  0.00     0.019 C 
HETATM   11  C   UNK N   1      30.894  25.911  -4.811  0.00  0.00     0.009 C 
HETATM   12  C   UNK N   1      27.027  24.366  -6.325  0.00  0.00     0.019 C 
HETATM   13  C   UNK N   1      32.108  24.997  -5.032  0.00  0.00     0.034 C 
HETATM   14  C   UNK N   1      31.922  23.681  -4.327  0.00  0.00    -0.079 C 
HETATM   15  C   UNK N   1      30.668  22.153  -2.701  0.00  0.00     0.010 C 
HETATM   16  C   UNK N   1      31.157  21.040  -3.615  0.00  0.00     0.004 C 
HETATM   17  C   UNK N   1      32.778  22.676  -4.578  0.00  0.00    -0.024 C 
HETATM   18  C   UNK N   1      32.618  21.314  -3.960  0.00  0.00     0.027 C 
ENDROOT
BRANCH   5  19
HETATM   19  O   UNK N   1      24.802  25.919  -5.682  0.00  0.00    -0.389 OA
HETATM   20  H   UNK N   1      24.428  25.935  -6.577  0.00  0.00     0.210 HD
ENDBRANCH   5  19
BRANCH   5  21
HETATM   21  C   UNK N   1      25.824  27.188  -3.912  0.00  0.00     0.065 C 
BRANCH  21  22
HETATM   22  C   UNK N   1      25.856  28.698  -4.005  0.00  0.00    -0.034 C 
HETATM   23  C   UNK N   1      26.694  29.466  -3.307  0.00  0.00     0.007 C 
ENDBRANCH  21  22
ENDBRANCH   5  21
TORSDOF 3
ENDMDL
MODEL 4
REMARK VINA RESULT:      -6.8      3.051      6.532
REMARK  3 active torsions:
REMARK  status: ('A' for Active; 'I' for Inactive)
REMARK    1  A    between atoms: C_6  and  O_1 
REMARK    2  A    between atoms: C_6  and  C_16 
REMARK    3  A    between atoms: C_16  and  C_21 
ROOT
HETATM    1  C   UNK N   1      36.388  11.440  13.893  0.00  0.00    -0.009 C 
HETATM    2  C   UNK N   1      35.639  12.499  14.694  0.00  0.00     0.001 C 
HETATM    3  C   UNK N   1      35.858  12.327  16.209  0.00  0.00    -0.005 C 
HETATM    4  C   UNK N   1      35.732  10.812  16.645  0.00  0.00    -0.002 C 
HETATM    5  C   UNK N   1      36.223  11.975  12.458  0.00  0.00     0.068 C 
HETATM    6  C   UNK N   1      35.804  10.040  14.159  0.00  0.00     0.013 C 
HETATM    7  C   UNK N   1      36.103  13.820  14.088  0.00  0.00     0.009 C 
HETATM    8  C   UNK N   1      35.115   9.920  15.541  0.00  0.00     0.006 C 
HETATM    9  C   UNK N   1      36.507  13.474  12.642  0.00  0.00     0.039 C 
HETATM   10  C   UNK N   1      34.922  10.654  17.957  0.00  0.00     0.019 C 
HETATM   11  C   UNK N   1      34.941  13.267  17.012  0.00  0.00     0.009 C 
HETATM   12  C   UNK N   1      37.882  11.410  14.267  0.00  0.00     0.019 C 
HETATM   13  C   UNK N   1      35.272  13.167  18.509  0.00  0.00     0.034 C 
HETATM   14  C   UNK N   1      35.344  11.729  18.945  0.00  0.00    -0.079 C 
HETATM   15  C   UNK N   1      34.993   9.228  18.531  0.00  0.00     0.010 C 
HETATM   16  C   UNK N   1      36.179   9.066  19.470  0.00  0.00     0.004 C 
HETATM   17  C   UNK N   1      35.829  11.438  20.164  0.00  0.00    -0.024 C 
HETATM   18  C   UNK N   1      35.991  10.021  20.644  0.00  0.00     0.027 C 
ENDROOT
BRANCH   5  19
HETATM   19  O   UNK N   1      37.132  11.374  11.581  0.00  0.00    -0.389 OA
HETATM   20  H   UNK N   1      37.016  11.128  10.650  0.00  0.00     0.210 HD
ENDBRANCH   5  19
BRANCH   5  21
HETATM   21  C   UNK N   1      34.786  11.785  11.920  0.00  0.00     0.065 C 
BRANCH  21  22
HETATM   22  C   UNK N   1      34.572  10.667  10.924  0.00  0.00    -0.034 C 
HETATM   23  C   UNK N   1      33.670   9.697  11.082  0.00  0.00     0.007 C 
ENDBRANCH  21  22
ENDBRANCH   5  21
TORSDOF 3
ENDMDL
MODEL 5
REMARK VINA RESULT:      -6.7     25.024     28.451
REMARK  3 active torsions:
REMARK  status: ('A' for Active; 'I' for Inactive)
REMARK    1  A    between atoms: C_6  and  O_1 
REMARK    2  A    between atoms: C_6  and  C_16 
REMARK    3  A    between atoms: C_16  and  C_21 
ROOT
HETATM    1  C   UNK N   1      27.150  26.186  -4.441  0.00  0.00    -0.009 C 
HETATM    2  C   UNK N   1      27.272  25.404  -5.744  0.00  0.00     0.001 C 
HETATM    3  C   UNK N   1      27.970  24.048  -5.531  0.00  0.00    -0.005 C 
HETATM    4  C   UNK N   1      29.245  24.191  -4.607  0.00  0.00    -0.002 C 
HETATM    5  C   UNK N   1      26.220  27.337  -4.867  0.00  0.00     0.068 C 
HETATM    6  C   UNK N   1      28.539  26.602  -3.922  0.00  0.00     0.013 C 
HETATM    7  C   UNK N   1      25.845  25.355  -6.283  0.00  0.00     0.009 C 
HETATM    8  C   UNK N   1      29.674  25.663  -4.401  0.00  0.00     0.006 C 
HETATM    9  C   UNK N   1      25.154  26.599  -5.691  0.00  0.00     0.039 C 
HETATM   10  C   UNK N   1      30.444  23.368  -5.145  0.00  0.00     0.019 C 
HETATM   11  C   UNK N   1      28.270  23.361  -6.876  0.00  0.00     0.009 C 
HETATM   12  C   UNK N   1      26.467  25.344  -3.347  0.00  0.00     0.019 C 
HETATM   13  C   UNK N   1      28.846  21.958  -6.629  0.00  0.00     0.034 C 
HETATM   14  C   UNK N   1      29.954  22.007  -5.613  0.00  0.00    -0.079 C 
HETATM   15  C   UNK N   1      31.609  23.292  -4.143  0.00  0.00     0.010 C 
HETATM   16  C   UNK N   1      31.461  22.102  -3.207  0.00  0.00     0.004 C 
HETATM   17  C   UNK N   1      30.434  20.856  -5.111  0.00  0.00    -0.024 C 
HETATM   18  C   UNK N   1      31.496  20.829  -4.046  0.00  0.00     0.027 C 
ENDROOT
BRANCH   5  19
HETATM   19  O   UNK N   1      25.667  27.984  -3.757  0.00  0.00    -0.389 OA
HETATM   20  H   UNK N   1      25.837  27.839  -2.813  0.00  0.00     0.210 HD
ENDBRANCH   5  19
BRANCH   5  21
HETATM   21  C   UNK N   1      26.936  28.374  -5.763  0.00  0.00     0.065 C 
BRANCH  21  22
HETATM   22  C   UNK N   1      27.278  29.705  -5.129  0.00  0.00    -0.034 C 
HETATM   23  C   UNK N   1      28.359  30.419  -5.444  0.00  0.00     0.007 C 
ENDBRANCH  21  22
ENDBRANCH   5  21
TORSDOF 3
ENDMDL
MODEL 6
REMARK VINA RESULT:      -6.7     12.689     15.485
REMARK  3 active torsions:
REMARK  status: ('A' for Active; 'I' for Inactive)
REMARK    1  A    between atoms: C_6  and  O_1 
REMARK    2  A    between atoms: C_6  and  C_16 
REMARK    3  A    between atoms: C_16  and  C_21 
ROOT
HETATM    1  C   UNK N   1      28.314  17.173   5.913  0.00  0.00    -0.009 C 
HETATM    2  C   UNK N   1      29.389  17.628   4.932  0.00  0.00     0.001 C 
HETATM    3  C   UNK N   1      30.759  17.008   5.260  0.00  0.00    -0.005 C 
HETATM    4  C   UNK N   1      31.068  17.072   6.810  0.00  0.00    -0.002 C 
HETATM    5  C   UNK N   1      27.039  17.705   5.232  0.00  0.00     0.068 C 
HETATM    6  C   UNK N   1      28.599  17.718   7.325  0.00  0.00     0.013 C 
HETATM    7  C   UNK N   1      28.805  17.296   3.561  0.00  0.00     0.009 C 
HETATM    8  C   UNK N   1      30.100  18.004   7.576  0.00  0.00     0.006 C 
HETATM    9  C   UNK N   1      27.278  17.320   3.763  0.00  0.00     0.039 C 
HETATM   10  C   UNK N   1      32.533  17.495   7.090  0.00  0.00     0.019 C 
HETATM   11  C   UNK N   1      31.871  17.629   4.395  0.00  0.00     0.009 C 
HETATM   12  C   UNK N   1      28.254  15.637   6.001  0.00  0.00     0.019 C 
HETATM   13  C   UNK N   1      33.200  16.903   4.652  0.00  0.00     0.034 C 
HETATM   14  C   UNK N   1      33.461  16.773   6.127  0.00  0.00    -0.079 C 
HETATM   15  C   UNK N   1      32.926  17.327   8.568  0.00  0.00     0.010 C 
HETATM   16  C   UNK N   1      33.479  15.936   8.841  0.00  0.00     0.004 C 
HETATM   17  C   UNK N   1      34.464  15.983   6.548  0.00  0.00    -0.024 C 
HETATM   18  C   UNK N   1      34.744  15.754   8.009  0.00  0.00     0.027 C 
ENDROOT
BRANCH   5  19
HETATM   19  O   UNK N   1      25.892  17.098   5.751  0.00  0.00    -0.389 OA
HETATM   20  H   UNK N   1      25.403  16.326   5.424  0.00  0.00     0.210 HD
ENDBRANCH   5  19
BRANCH   5  21
HETATM   21  C   UNK N   1      26.907  19.241   5.346  0.00  0.00     0.065 C 
BRANCH  21  22
HETATM   22  C   UNK N   1      26.427  19.979   4.116  0.00  0.00    -0.034 C 
HETATM   23  C   UNK N   1      25.145  20.259   3.873  0.00  0.00     0.007 C 
ENDBRANCH  21  22
ENDBRANCH   5  21
TORSDOF 3
ENDMDL
MODEL 7
REMARK VINA RESULT:      -6.5     18.248     20.275
REMARK  3 active torsions:
REMARK  status: ('A' for Active; 'I' for Inactive)
REMARK    1  A    between atoms: C_6  and  O_1 
REMARK    2  A    between atoms: C_6  and  C_16 
REMARK    3  A    between atoms: C_16  and  C_21 
ROOT
HETATM    1  C   UNK N   1      21.463  17.770   3.842  0.00  0.00    -0.009 C 
HETATM    2  C   UNK N   1      22.625  16.878   3.419  0.00  0.00     0.001 C 
HETATM    3  C   UNK N   1      23.896  17.173   4.238  0.00  0.00    -0.005 C 
HETATM    4  C   UNK N   1      24.144  18.728   4.385  0.00  0.00    -0.002 C 
HETATM    5  C   UNK N   1      20.292  17.119   3.084  0.00  0.00     0.068 C 
HETATM    6  C   UNK N   1      21.752  19.243   3.496  0.00  0.00     0.013 C 
HETATM    7  C   UNK N   1      22.065  15.463   3.524  0.00  0.00     0.009 C 
HETATM    8  C   UNK N   1      23.264  19.568   3.429  0.00  0.00     0.006 C 
HETATM    9  C   UNK N   1      20.544  15.623   3.331  0.00  0.00     0.039 C 
HETATM   10  C   UNK N   1      25.636  19.096   4.181  0.00  0.00     0.019 C 
HETATM   11  C   UNK N   1      25.110  16.417   3.669  0.00  0.00     0.009 C 
HETATM   12  C   UNK N   1      21.214  17.680   5.359  0.00  0.00     0.019 C 
HETATM   13  C   UNK N   1      26.330  16.626   4.579  0.00  0.00     0.034 C 
HETATM   14  C   UNK N   1      26.511  18.084   4.903  0.00  0.00    -0.079 C 
HETATM   15  C   UNK N   1      25.944  20.556   4.559  0.00  0.00     0.010 C 
HETATM   16  C   UNK N   1      26.313  20.684   6.029  0.00  0.00     0.004 C 
HETATM   17  C   UNK N   1      27.392  18.440   5.853  0.00  0.00    -0.024 C 
HETATM   18  C   UNK N   1      27.580  19.872   6.275  0.00  0.00     0.027 C 
ENDROOT
BRANCH   5  19
HETATM   19  O   UNK N   1      19.058  17.532   3.596  0.00  0.00    -0.389 OA
HETATM   20  H   UNK N   1      18.869  18.103   4.358  0.00  0.00     0.210 HD
ENDBRANCH   5  19
BRANCH   5  21
HETATM   21  C   UNK N   1      20.341  17.404   1.566  0.00  0.00     0.065 C 
BRANCH  21  22
HETATM   22  C   UNK N   1      20.010  16.252   0.643  0.00  0.00    -0.034 C 
HETATM   23  C   UNK N   1      18.912  16.200  -0.113  0.00  0.00     0.007 C 
ENDBRANCH  21  22
ENDBRANCH   5  21
TORSDOF 3
ENDMDL
MODEL 8
REMARK VINA RESULT:      -6.4      2.928      6.598
REMARK  3 active torsions:
REMARK  status: ('A' for Active; 'I' for Inactive)
REMARK    1  A    between atoms: C_6  and  O_1 
REMARK    2  A    between atoms: C_6  and  C_16 
REMARK    3  A    between atoms: C_16  and  C_21 
ROOT
HETATM    1  C   UNK N   1      34.964  11.621  14.636  0.00  0.00    -0.009 C 
HETATM    2  C   UNK N   1      36.090  10.644  14.959  0.00  0.00     0.001 C 
HETATM    3  C   UNK N   1      35.855   9.930  16.303  0.00  0.00    -0.005 C 
HETATM    4  C   UNK N   1      35.380  10.941  17.422  0.00  0.00    -0.002 C 
HETATM    5  C   UNK N   1      35.295  11.990  13.178  0.00  0.00     0.068 C 
HETATM    6  C   UNK N   1      34.952  12.789  15.639  0.00  0.00     0.013 C 
HETATM    7  C   UNK N   1      36.174   9.752  13.724  0.00  0.00     0.009 C 
HETATM    8  C   UNK N   1      35.568  12.421  17.011  0.00  0.00     0.006 C 
HETATM    9  C   UNK N   1      35.633  10.620  12.570  0.00  0.00     0.039 C 
HETATM   10  C   UNK N   1      36.091  10.681  18.775  0.00  0.00     0.019 C 
HETATM   11  C   UNK N   1      37.087   9.104  16.716  0.00  0.00     0.009 C 
HETATM   12  C   UNK N   1      33.590  10.929  14.697  0.00  0.00     0.019 C 
HETATM   13  C   UNK N   1      36.777   8.303  17.989  0.00  0.00     0.034 C 
HETATM   14  C   UNK N   1      36.151   9.184  19.036  0.00  0.00    -0.079 C 
HETATM   15  C   UNK N   1      35.473  11.483  19.934  0.00  0.00     0.010 C 
HETATM   16  C   UNK N   1      34.342  10.715  20.601  0.00  0.00     0.004 C 
HETATM   17  C   UNK N   1      35.618   8.621  20.133  0.00  0.00    -0.024 C 
HETATM   18  C   UNK N   1      34.919   9.432  21.190  0.00  0.00     0.027 C 
ENDROOT
BRANCH   5  19
HETATM   19  O   UNK N   1      34.204  12.589  12.542  0.00  0.00    -0.389 OA
HETATM   20  H   UNK N   1      34.169  13.060  11.694  0.00  0.00     0.210 HD
ENDBRANCH   5  19
BRANCH   5  21
HETATM   21  C   UNK N   1      36.527  12.918  13.071  0.00  0.00     0.065 C 
BRANCH  21  22
HETATM   22  C   UNK N   1      37.475  12.665  11.919  0.00  0.00    -0.034 C 
HETATM   23  C   UNK N   1      37.514  13.410  10.813  0.00  0.00     0.007 C 
ENDBRANCH  21  22
ENDBRANCH   5  21
TORSDOF 3
ENDMDL
MODEL 9
REMARK VINA RESULT:      -6.3      6.409      8.889
REMARK  3 active torsions:
REMARK  status: ('A' for Active; 'I' for Inactive)
REMARK    1  A    between atoms: C_6  and  O_1 
REMARK    2  A    between atoms: C_6  and  C_16 
REMARK    3  A    between atoms: C_16  and  C_21 
ROOT
HETATM    1  C   UNK N   1      35.979  13.585  11.350  0.00  0.00    -0.009 C 
HETATM    2  C   UNK N   1      34.819  12.932  10.606  0.00  0.00     0.001 C 
HETATM    3  C   UNK N   1      34.508  13.661   9.286  0.00  0.00    -0.005 C 
HETATM    4  C   UNK N   1      34.503  15.230   9.476  0.00  0.00    -0.002 C 
HETATM    5  C   UNK N   1      36.247  12.551  12.459  0.00  0.00     0.068 C 
HETATM    6  C   UNK N   1      35.595  14.998  11.829  0.00  0.00     0.013 C 
HETATM    7  C   UNK N   1      35.229  11.467  10.492  0.00  0.00     0.009 C 
HETATM    8  C   UNK N   1      34.489  15.653  10.964  0.00  0.00     0.006 C 
HETATM    9  C   UNK N   1      36.178  11.226  11.682  0.00  0.00     0.039 C 
HETATM   10  C   UNK N   1      33.318  15.898   8.732  0.00  0.00     0.019 C 
HETATM   11  C   UNK N   1      33.215  13.123   8.647  0.00  0.00     0.009 C 
HETATM   12  C   UNK N   1      37.221  13.712  10.447  0.00  0.00     0.019 C 
HETATM   13  C   UNK N   1      33.000  13.774   7.273  0.00  0.00     0.034 C 
HETATM   14  C   UNK N   1      33.163  15.267   7.358  0.00  0.00    -0.079 C 
HETATM   15  C   UNK N   1      33.429  17.433   8.696  0.00  0.00     0.010 C 
HETATM   16  C   UNK N   1      34.209  17.905   7.479  0.00  0.00     0.004 C 
HETATM   17  C   UNK N   1      33.223  15.986   6.224  0.00  0.00    -0.024 C 
HETATM   18  C   UNK N   1      33.449  17.473   6.229  0.00  0.00     0.027 C 
ENDROOT
BRANCH   5  19
HETATM   19  O   UNK N   1      37.500  12.746  13.048  0.00  0.00    -0.389 OA
HETATM   20  H   UNK N   1      38.357  12.922  12.628  0.00  0.00     0.210 HD
ENDBRANCH   5  19
BRANCH   5  21
HETATM   21  C   UNK N   1      35.155  12.563  13.553  0.00  0.00     0.065 C 
BRANCH  21  22
HETATM   22  C   UNK N   1      34.876  11.251  14.254  0.00  0.00    -0.034 C 
HETATM   23  C   UNK N   1      33.650  10.762  14.449  0.00  0.00     0.007 C 
ENDBRANCH  21  22
ENDBRANCH   5  21
TORSDOF 3
ENDMDL
