MODEL 1
REMARK VINA RESULT:      -5.7      0.000      0.000
REMARK  9 active torsions:
REMARK  status: ('A' for Active; 'I' for Inactive)
REMARK    1  A    between atoms: O_1  and  C_6 
REMARK    2  A    between atoms: O_1  and  C_23 
REMARK    3  A    between atoms: N_3  and  C_7 
REMARK    4  A    between atoms: C_4  and  C_5 
REMARK    5  A    between atoms: C_4  and  C_6 
REMARK    6  A    between atoms: C_4  and  C_8 
REMARK    7  A    between atoms: C_4  and  C_9 
REMARK    8  A    between atoms: C_5  and  C_7 
REMARK    9  A    between atoms: C_6  and  C_10 
ROOT
HETATM    1  C   UNK N   1      28.448  17.050   5.343  0.00  0.00     0.043 C 
ENDROOT
BRANCH   1   2
HETATM    2  C   UNK N   1      28.090  16.066   4.197  0.00  0.00     0.057 C 
BRANCH   2   3
HETATM    3  C   UNK N   1      28.940  14.771   4.032  0.00  0.00     0.219 C 
HETATM    4  C   UNK N   1      28.412  13.512   4.727  0.00  0.00     0.043 C 
BRANCH   3   5
HETATM    5  N   UNK N   1      29.575  14.558   2.719  0.00  0.00     0.084 N 
HETATM    6  C   UNK N   1      30.264  13.280   2.769  0.00  0.00     0.309 C 
HETATM    7  C   UNK N   1      28.594  14.451   1.642  0.00  0.00     0.309 C 
ENDBRANCH   3   5
ENDBRANCH   2   3
ENDBRANCH   1   2
BRANCH   1   8
HETATM    8  C   UNK N   1      27.731  16.605   6.679  0.00  0.00     0.149 C 
BRANCH   8   9
HETATM    9  O   UNK N   1      27.709  17.627   7.619  0.00  0.00    -0.315 OA
BRANCH   9  10
HETATM   10  C   UNK N   1      28.155  17.573   8.901  0.00  0.00     0.255 C 
HETATM   11  O   UNK N   1      27.599  16.872   9.742  0.00  0.00    -0.266 OA
HETATM   12  C   UNK N   1      29.285  18.444   9.317  0.00  0.00     0.126 C 
ENDBRANCH   9  10
ENDBRANCH   8   9
BRANCH   8  13
HETATM   13  C   UNK N   1      26.313  16.074   6.408  0.00  0.00     0.029 C 
HETATM   14  C   UNK N   1      26.036  14.899   7.332  0.00  0.00     0.007 C 
ENDBRANCH   8  13
ENDBRANCH   1   8
BRANCH   1  15
HETATM   15  C   UNK N   1      27.825  18.414   4.991  0.00  0.00    -0.042 A 
HETATM   16  C   UNK N   1      28.042  19.574   5.750  0.00  0.00     0.008 A 
HETATM   17  C   UNK N   1      27.401  20.772   5.423  0.00  0.00     0.001 A 
HETATM   18  C   UNK N   1      26.532  20.828   4.332  0.00  0.00     0.000 A 
HETATM   19  C   UNK N   1      26.300  19.685   3.567  0.00  0.00     0.001 A 
HETATM   20  C   UNK N   1      26.935  18.487   3.898  0.00  0.00     0.008 A 
ENDBRANCH   1  15
BRANCH   1  21
HETATM   21  C   UNK N   1      29.988  16.950   5.515  0.00  0.00    -0.042 A 
HETATM   22  C   UNK N   1      30.825  17.566   4.558  0.00  0.00     0.008 A 
HETATM   23  C   UNK N   1      32.213  17.553   4.682  0.00  0.00     0.001 A 
HETATM   24  C   UNK N   1      32.800  16.958   5.795  0.00  0.00     0.000 A 
HETATM   25  C   UNK N   1      31.996  16.359   6.767  0.00  0.00     0.001 A 
HETATM   26  C   UNK N   1      30.603  16.345   6.622  0.00  0.00     0.008 A 
ENDBRANCH   1  21
TORSDOF 9
ENDMDL
MODEL 2
REMARK VINA RESULT:      -5.7      1.706      3.095
REMARK  9 active torsions:
REMARK  status: ('A' for Active; 'I' for Inactive)
REMARK    1  A    between atoms: O_1  and  C_6 
REMARK    2  A    between atoms: O_1  and  C_23 
REMARK    3  A    between atoms: N_3  and  C_7 
REMARK    4  A    between atoms: C_4  and  C_5 
REMARK    5  A    between atoms: C_4  and  C_6 
REMARK    6  A    between atoms: C_4  and  C_8 
REMARK    7  A    between atoms: C_4  and  C_9 
REMARK    8  A    between atoms: C_5  and  C_7 
REMARK    9  A    between atoms: C_6  and  C_10 
ROOT
HETATM    1  C   UNK N   1      29.548  17.139   5.856  0.00  0.00     0.043 C 
ENDROOT
BRANCH   1   2
HETATM    2  C   UNK N   1      28.660  15.872   5.977  0.00  0.00     0.057 C 
BRANCH   2   3
HETATM    3  C   UNK N   1      27.262  15.871   5.289  0.00  0.00     0.219 C 
HETATM    4  C   UNK N   1      27.062  14.866   4.150  0.00  0.00     0.043 C 
BRANCH   3   5
HETATM    5  N   UNK N   1      26.094  16.090   6.161  0.00  0.00     0.084 N 
HETATM    6  C   UNK N   1      25.028  16.631   5.335  0.00  0.00     0.309 C 
HETATM    7  C   UNK N   1      25.583  14.844   6.725  0.00  0.00     0.309 C 
ENDBRANCH   3   5
ENDBRANCH   2   3
ENDBRANCH   1   2
BRANCH   1   8
HETATM    8  C   UNK N   1      30.164  17.501   7.265  0.00  0.00     0.149 C 
BRANCH   8   9
HETATM    9  O   UNK N   1      29.468  16.896   8.305  0.00  0.00    -0.315 OA
BRANCH   9  10
HETATM   10  C   UNK N   1      28.866  17.511   9.356  0.00  0.00     0.255 C 
HETATM   11  O   UNK N   1      27.731  17.206   9.711  0.00  0.00    -0.266 OA
HETATM   12  C   UNK N   1      29.560  18.635  10.037  0.00  0.00     0.126 C 
ENDBRANCH   9  10
ENDBRANCH   8   9
BRANCH   8  13
HETATM   13  C   UNK N   1      31.662  17.157   7.331  0.00  0.00     0.029 C 
HETATM   14  C   UNK N   1      31.847  15.893   8.155  0.00  0.00     0.007 C 
ENDBRANCH   8  13
ENDBRANCH   1   8
BRANCH   1  15
HETATM   15  C   UNK N   1      28.621  18.320   5.511  0.00  0.00    -0.042 A 
HETATM   16  C   UNK N   1      28.094  19.189   6.479  0.00  0.00     0.008 A 
HETATM   17  C   UNK N   1      27.207  20.207   6.119  0.00  0.00     0.001 A 
HETATM   18  C   UNK N   1      26.833  20.371   4.783  0.00  0.00     0.000 A 
HETATM   19  C   UNK N   1      27.343  19.516   3.807  0.00  0.00     0.001 A 
HETATM   20  C   UNK N   1      28.223  18.495   4.168  0.00  0.00     0.008 A 
ENDBRANCH   1  15
BRANCH   1  21
HETATM   21  C   UNK N   1      30.684  16.763   4.867  0.00  0.00    -0.042 A 
HETATM   22  C   UNK N   1      30.795  15.424   4.430  0.00  0.00     0.008 A 
HETATM   23  C   UNK N   1      31.762  15.031   3.507  0.00  0.00     0.001 A 
HETATM   24  C   UNK N   1      32.621  15.982   2.963  0.00  0.00     0.000 A 
HETATM   25  C   UNK N   1      32.521  17.317   3.362  0.00  0.00     0.001 A 
HETATM   26  C   UNK N   1      31.570  17.701   4.315  0.00  0.00     0.008 A 
ENDBRANCH   1  21
TORSDOF 9
ENDMDL
MODEL 3
REMARK VINA RESULT:      -5.5     11.529     14.336
REMARK  9 active torsions:
REMARK  status: ('A' for Active; 'I' for Inactive)
REMARK    1  A    between atoms: O_1  and  C_6 
REMARK    2  A    between atoms: O_1  and  C_23 
REMARK    3  A    between atoms: N_3  and  C_7 
REMARK    4  A    between atoms: C_4  and  C_5 
REMARK    5  A    between atoms: C_4  and  C_6 
REMARK    6  A    between atoms: C_4  and  C_8 
REMARK    7  A    between atoms: C_4  and  C_9 
REMARK    8  A    between atoms: C_5  and  C_7 
REMARK    9  A    between atoms: C_6  and  C_10 
ROOT
HETATM    1  C   UNK N   1      27.683  23.781  -5.708  0.00  0.00     0.043 C 
ENDROOT
BRANCH   1   2
HETATM    2  C   UNK N   1      26.601  24.402  -4.785  0.00  0.00     0.057 C 
BRANCH   2   3
HETATM    3  C   UNK N   1      26.319  25.930  -4.887  0.00  0.00     0.219 C 
HETATM    4  C   UNK N   1      25.046  26.342  -5.633  0.00  0.00     0.043 C 
BRANCH   3   5
HETATM    5  N   UNK N   1      26.663  26.748  -3.710  0.00  0.00     0.084 N 
HETATM    6  C   UNK N   1      27.966  27.341  -3.956  0.00  0.00     0.309 C 
HETATM    7  C   UNK N   1      25.736  27.861  -3.520  0.00  0.00     0.309 C 
ENDBRANCH   3   5
ENDBRANCH   2   3
ENDBRANCH   1   2
BRANCH   1   8
HETATM    8  C   UNK N   1      28.289  24.896  -6.651  0.00  0.00     0.149 C 
BRANCH   8   9
HETATM    9  O   UNK N   1      29.679  24.872  -6.653  0.00  0.00    -0.315 OA
BRANCH   9  10
HETATM   10  C   UNK N   1      30.517  25.901  -6.365  0.00  0.00     0.255 C 
HETATM   11  O   UNK N   1      30.551  26.912  -7.061  0.00  0.00    -0.266 OA
HETATM   12  C   UNK N   1      31.476  25.766  -5.237  0.00  0.00     0.126 C 
ENDBRANCH   9  10
ENDBRANCH   8   9
BRANCH   8  13
HETATM   13  C   UNK N   1      27.733  24.788  -8.081  0.00  0.00     0.029 C 
HETATM   14  C   UNK N   1      27.292  26.165  -8.549  0.00  0.00     0.007 C 
ENDBRANCH   8  13
ENDBRANCH   1   8
BRANCH   1  15
HETATM   15  C   UNK N   1      26.973  22.799  -6.658  0.00  0.00    -0.042 A 
HETATM   16  C   UNK N   1      25.578  22.648  -6.701  0.00  0.00     0.008 A 
HETATM   17  C   UNK N   1      24.988  21.696  -7.536  0.00  0.00     0.001 A 
HETATM   18  C   UNK N   1      25.784  20.879  -8.341  0.00  0.00     0.000 A 
HETATM   19  C   UNK N   1      27.172  21.011  -8.310  0.00  0.00     0.001 A 
HETATM   20  C   UNK N   1      27.762  21.957  -7.470  0.00  0.00     0.008 A 
ENDBRANCH   1  15
BRANCH   1  21
HETATM   21  C   UNK N   1      28.786  23.242  -4.758  0.00  0.00    -0.042 A 
HETATM   22  C   UNK N   1      28.869  23.757  -3.444  0.00  0.00     0.008 A 
HETATM   23  C   UNK N   1      29.805  23.281  -2.528  0.00  0.00     0.001 A 
HETATM   24  C   UNK N   1      30.658  22.243  -2.892  0.00  0.00     0.000 A 
HETATM   25  C   UNK N   1      30.585  21.701  -4.177  0.00  0.00     0.001 A 
HETATM   26  C   UNK N   1      29.666  22.205  -5.105  0.00  0.00     0.008 A 
ENDBRANCH   1  21
TORSDOF 9
ENDMDL
MODEL 4
REMARK VINA RESULT:      -5.5      2.295      5.169
REMARK  9 active torsions:
REMARK  status: ('A' for Active; 'I' for Inactive)
REMARK    1  A    between atoms: O_1  and  C_6 
REMARK    2  A    between atoms: O_1  and  C_23 
REMARK    3  A    between atoms: N_3  and  C_7 
REMARK    4  A    between atoms: C_4  and  C_5 
REMARK    5  A    between atoms: C_4  and  C_6 
REMARK    6  A    between atoms: C_4  and  C_8 
REMARK    7  A    between atoms: C_4  and  C_9 
REMARK    8  A    between atoms: C_5  and  C_7 
REMARK    9  A    between atoms: C_6  and  C_10 
ROOT
HETATM    1  C   UNK N   1      29.536  17.164   5.532  0.00  0.00     0.043 C 
ENDROOT
BRANCH   1   2
HETATM    2  C   UNK N   1      29.227  18.529   4.861  0.00  0.00     0.057 C 
BRANCH   2   3
HETATM    3  C   UNK N   1      27.831  19.178   5.095  0.00  0.00     0.219 C 
HETATM    4  C   UNK N   1      27.812  20.503   5.862  0.00  0.00     0.043 C 
BRANCH   3   5
HETATM    5  N   UNK N   1      26.853  19.060   3.998  0.00  0.00     0.084 N 
HETATM    6  C   UNK N   1      25.710  18.323   4.509  0.00  0.00     0.309 C 
HETATM    7  C   UNK N   1      26.343  20.360   3.570  0.00  0.00     0.309 C 
ENDBRANCH   3   5
ENDBRANCH   2   3
ENDBRANCH   1   2
BRANCH   1   8
HETATM    8  C   UNK N   1      31.049  16.776   5.292  0.00  0.00     0.149 C 
BRANCH   8   9
HETATM    9  O   UNK N   1      31.198  15.422   5.018  0.00  0.00    -0.315 OA
BRANCH   9  10
HETATM   10  C   UNK N   1      31.622  14.454   5.871  0.00  0.00     0.255 C 
HETATM   11  O   UNK N   1      31.342  13.273   5.687  0.00  0.00    -0.266 OA
HETATM   12  C   UNK N   1      32.366  14.839   7.098  0.00  0.00     0.126 C 
ENDBRANCH   9  10
ENDBRANCH   8   9
BRANCH   8  13
HETATM   13  C   UNK N   1      31.683  17.637   4.186  0.00  0.00     0.029 C 
HETATM   14  C   UNK N   1      32.291  16.725   3.132  0.00  0.00     0.007 C 
ENDBRANCH   8  13
ENDBRANCH   1   8
BRANCH   1  15
HETATM   15  C   UNK N   1      28.725  16.089   4.786  0.00  0.00    -0.042 A 
HETATM   16  C   UNK N   1      28.125  14.996   5.431  0.00  0.00     0.008 A 
HETATM   17  C   UNK N   1      27.454  14.014   4.698  0.00  0.00     0.001 A 
HETATM   18  C   UNK N   1      27.373  14.109   3.307  0.00  0.00     0.000 A 
HETATM   19  C   UNK N   1      27.966  15.185   2.647  0.00  0.00     0.001 A 
HETATM   20  C   UNK N   1      28.642  16.162   3.379  0.00  0.00     0.008 A 
ENDBRANCH   1  15
BRANCH   1  21
HETATM   21  C   UNK N   1      29.284  17.377   7.049  0.00  0.00    -0.042 A 
HETATM   22  C   UNK N   1      30.336  17.864   7.856  0.00  0.00     0.008 A 
HETATM   23  C   UNK N   1      30.160  18.121   9.215  0.00  0.00     0.001 A 
HETATM   24  C   UNK N   1      28.908  17.937   9.793  0.00  0.00     0.000 A 
HETATM   25  C   UNK N   1      27.844  17.476   9.015  0.00  0.00     0.001 A 
HETATM   26  C   UNK N   1      28.034  17.187   7.659  0.00  0.00     0.008 A 
ENDBRANCH   1  21
TORSDOF 9
ENDMDL
MODEL 5
REMARK VINA RESULT:      -5.5      2.279      5.121
REMARK  9 active torsions:
REMARK  status: ('A' for Active; 'I' for Inactive)
REMARK    1  A    between atoms: O_1  and  C_6 
REMARK    2  A    between atoms: O_1  and  C_23 
REMARK    3  A    between atoms: N_3  and  C_7 
REMARK    4  A    between atoms: C_4  and  C_5 
REMARK    5  A    between atoms: C_4  and  C_6 
REMARK    6  A    between atoms: C_4  and  C_8 
REMARK    7  A    between atoms: C_4  and  C_9 
REMARK    8  A    between atoms: C_5  and  C_7 
REMARK    9  A    between atoms: C_6  and  C_10 
ROOT
HETATM    1  C   UNK N   1      29.042  17.195   5.619  0.00  0.00     0.043 C 
ENDROOT
BRANCH   1   2
HETATM    2  C   UNK N   1      28.811  18.566   4.930  0.00  0.00     0.057 C 
BRANCH   2   3
HETATM    3  C   UNK N   1      27.433  19.270   5.111  0.00  0.00     0.219 C 
HETATM    4  C   UNK N   1      27.441  20.607   5.859  0.00  0.00     0.043 C 
BRANCH   3   5
HETATM    5  N   UNK N   1      26.487  19.173   3.985  0.00  0.00     0.084 N 
HETATM    6  C   UNK N   1      25.199  18.776   4.530  0.00  0.00     0.309 C 
HETATM    7  C   UNK N   1      26.274  20.460   3.329  0.00  0.00     0.309 C 
ENDBRANCH   3   5
ENDBRANCH   2   3
ENDBRANCH   1   2
BRANCH   1   8
HETATM    8  C   UNK N   1      30.412  16.573   5.134  0.00  0.00     0.149 C 
BRANCH   8   9
HETATM    9  O   UNK N   1      31.378  17.550   4.923  0.00  0.00    -0.315 OA
BRANCH   9  10
HETATM   10  C   UNK N   1      32.673  17.360   4.561  0.00  0.00     0.255 C 
HETATM   11  O   UNK N   1      33.597  17.766   5.260  0.00  0.00    -0.266 OA
HETATM   12  C   UNK N   1      32.978  16.724   3.253  0.00  0.00     0.126 C 
ENDBRANCH   9  10
ENDBRANCH   8   9
BRANCH   8  13
HETATM   13  C   UNK N   1      30.920  15.498   6.109  0.00  0.00     0.029 C 
HETATM   14  C   UNK N   1      30.934  14.152   5.403  0.00  0.00     0.007 C 
ENDBRANCH   8  13
ENDBRANCH   1   8
BRANCH   1  15
HETATM   15  C   UNK N   1      27.961  16.229   5.100  0.00  0.00    -0.042 A 
HETATM   16  C   UNK N   1      27.015  15.616   5.937  0.00  0.00     0.008 A 
HETATM   17  C   UNK N   1      26.095  14.699   5.424  0.00  0.00     0.001 A 
HETATM   18  C   UNK N   1      26.107  14.379   4.064  0.00  0.00     0.000 A 
HETATM   19  C   UNK N   1      27.041  14.974   3.217  0.00  0.00     0.001 A 
HETATM   20  C   UNK N   1      27.964  15.886   3.731  0.00  0.00     0.008 A 
ENDBRANCH   1  15
BRANCH   1  21
HETATM   21  C   UNK N   1      29.113  17.496   7.140  0.00  0.00    -0.042 A 
HETATM   22  C   UNK N   1      30.249  18.162   7.654  0.00  0.00     0.008 A 
HETATM   23  C   UNK N   1      30.351  18.504   9.002  0.00  0.00     0.001 A 
HETATM   24  C   UNK N   1      29.295  18.225   9.865  0.00  0.00     0.000 A 
HETATM   25  C   UNK N   1      28.152  17.586   9.380  0.00  0.00     0.001 A 
HETATM   26  C   UNK N   1      28.067  17.214   8.033  0.00  0.00     0.008 A 
ENDBRANCH   1  21
TORSDOF 9
ENDMDL
MODEL 6
REMARK VINA RESULT:      -5.4     11.861     14.791
REMARK  9 active torsions:
REMARK  status: ('A' for Active; 'I' for Inactive)
REMARK    1  A    between atoms: O_1  and  C_6 
REMARK    2  A    between atoms: O_1  and  C_23 
REMARK    3  A    between atoms: N_3  and  C_7 
REMARK    4  A    between atoms: C_4  and  C_5 
REMARK    5  A    between atoms: C_4  and  C_6 
REMARK    6  A    between atoms: C_4  and  C_8 
REMARK    7  A    between atoms: C_4  and  C_9 
REMARK    8  A    between atoms: C_5  and  C_7 
REMARK    9  A    between atoms: C_6  and  C_10 
ROOT
HETATM    1  C   UNK N   1      27.388  24.145  -6.459  0.00  0.00     0.043 C 
ENDROOT
BRANCH   1   2
HETATM    2  C   UNK N   1      26.275  24.687  -5.523  0.00  0.00     0.057 C 
BRANCH   2   3
HETATM    3  C   UNK N   1      26.238  26.213  -5.213  0.00  0.00     0.219 C 
HETATM    4  C   UNK N   1      25.018  26.986  -5.724  0.00  0.00     0.043 C 
BRANCH   3   5
HETATM    5  N   UNK N   1      26.758  26.635  -3.899  0.00  0.00     0.084 N 
HETATM    6  C   UNK N   1      27.983  27.380  -4.134  0.00  0.00     0.309 C 
HETATM    7  C   UNK N   1      25.849  27.548  -3.212  0.00  0.00     0.309 C 
ENDBRANCH   3   5
ENDBRANCH   2   3
ENDBRANCH   1   2
BRANCH   1   8
HETATM    8  C   UNK N   1      28.623  23.658  -5.601  0.00  0.00     0.149 C 
BRANCH   8   9
HETATM    9  O   UNK N   1      28.348  23.682  -4.239  0.00  0.00    -0.315 OA
BRANCH   9  10
HETATM   10  C   UNK N   1      29.245  23.753  -3.222  0.00  0.00     0.255 C 
HETATM   11  O   UNK N   1      29.055  23.166  -2.160  0.00  0.00    -0.266 OA
HETATM   12  C   UNK N   1      30.439  24.626  -3.364  0.00  0.00     0.126 C 
ENDBRANCH   9  10
ENDBRANCH   8   9
BRANCH   8  13
HETATM   13  C   UNK N   1      29.102  22.265  -6.043  0.00  0.00     0.029 C 
HETATM   14  C   UNK N   1      30.563  22.349  -6.456  0.00  0.00     0.007 C 
ENDBRANCH   8  13
ENDBRANCH   1   8
BRANCH   1  15
HETATM   15  C   UNK N   1      27.918  25.333  -7.283  0.00  0.00    -0.042 A 
HETATM   16  C   UNK N   1      27.199  25.916  -8.338  0.00  0.00     0.008 A 
HETATM   17  C   UNK N   1      27.754  26.952  -9.093  0.00  0.00     0.001 A 
HETATM   18  C   UNK N   1      29.038  27.420  -8.807  0.00  0.00     0.000 A 
HETATM   19  C   UNK N   1      29.771  26.851  -7.765  0.00  0.00     0.001 A 
HETATM   20  C   UNK N   1      29.218  25.812  -7.015  0.00  0.00     0.008 A 
ENDBRANCH   1  15
BRANCH   1  21
HETATM   21  C   UNK N   1      26.758  22.937  -7.204  0.00  0.00    -0.042 A 
HETATM   22  C   UNK N   1      25.532  22.410  -6.738  0.00  0.00     0.008 A 
HETATM   23  C   UNK N   1      24.891  21.358  -7.391  0.00  0.00     0.001 A 
HETATM   24  C   UNK N   1      25.442  20.833  -8.556  0.00  0.00     0.000 A 
HETATM   25  C   UNK N   1      26.643  21.347  -9.050  0.00  0.00     0.001 A 
HETATM   26  C   UNK N   1      27.300  22.381  -8.373  0.00  0.00     0.008 A 
ENDBRANCH   1  21
TORSDOF 9
ENDMDL
MODEL 7
REMARK VINA RESULT:      -5.3      2.081      5.162
REMARK  9 active torsions:
REMARK  status: ('A' for Active; 'I' for Inactive)
REMARK    1  A    between atoms: O_1  and  C_6 
REMARK    2  A    between atoms: O_1  and  C_23 
REMARK    3  A    between atoms: N_3  and  C_7 
REMARK    4  A    between atoms: C_4  and  C_5 
REMARK    5  A    between atoms: C_4  and  C_6 
REMARK    6  A    between atoms: C_4  and  C_8 
REMARK    7  A    between atoms: C_4  and  C_9 
REMARK    8  A    between atoms: C_5  and  C_7 
REMARK    9  A    between atoms: C_6  and  C_10 
ROOT
HETATM    1  C   UNK N   1      29.301  16.716   5.366  0.00  0.00     0.043 C 
ENDROOT
BRANCH   1   2
HETATM    2  C   UNK N   1      29.658  16.241   6.800  0.00  0.00     0.057 C 
BRANCH   2   3
HETATM    3  C   UNK N   1      31.123  16.412   7.300  0.00  0.00     0.219 C 
HETATM    4  C   UNK N   1      31.390  17.586   8.248  0.00  0.00     0.043 C 
BRANCH   3   5
HETATM    5  N   UNK N   1      31.874  15.176   7.586  0.00  0.00     0.084 N 
HETATM    6  C   UNK N   1      33.144  15.265   6.884  0.00  0.00     0.309 C 
HETATM    7  C   UNK N   1      32.200  15.042   9.004  0.00  0.00     0.309 C 
ENDBRANCH   3   5
ENDBRANCH   2   3
ENDBRANCH   1   2
BRANCH   1   8
HETATM    8  C   UNK N   1      28.278  15.709   4.705  0.00  0.00     0.149 C 
BRANCH   8   9
HETATM    9  O   UNK N   1      27.077  15.659   5.403  0.00  0.00    -0.315 OA
BRANCH   9  10
HETATM   10  C   UNK N   1      26.523  14.576   6.006  0.00  0.00     0.255 C 
HETATM   11  O   UNK N   1      26.673  13.445   5.551  0.00  0.00    -0.266 OA
HETATM   12  C   UNK N   1      25.646  14.770   7.189  0.00  0.00     0.126 C 
ENDBRANCH   9  10
ENDBRANCH   8   9
BRANCH   8  13
HETATM   13  C   UNK N   1      28.041  16.039   3.221  0.00  0.00     0.029 C 
HETATM   14  C   UNK N   1      27.691  14.761   2.477  0.00  0.00     0.007 C 
ENDBRANCH   8  13
ENDBRANCH   1   8
BRANCH   1  15
HETATM   15  C   UNK N   1      30.578  16.605   4.512  0.00  0.00    -0.042 A 
HETATM   16  C   UNK N   1      30.999  15.407   3.914  0.00  0.00     0.008 A 
HETATM   17  C   UNK N   1      32.199  15.347   3.202  0.00  0.00     0.001 A 
HETATM   18  C   UNK N   1      32.999  16.485   3.077  0.00  0.00     0.000 A 
HETATM   19  C   UNK N   1      32.600  17.684   3.667  0.00  0.00     0.001 A 
HETATM   20  C   UNK N   1      31.405  17.742   4.384  0.00  0.00     0.008 A 
ENDBRANCH   1  15
BRANCH   1  21
HETATM   21  C   UNK N   1      28.632  18.106   5.539  0.00  0.00    -0.042 A 
HETATM   22  C   UNK N   1      28.306  18.552   6.839  0.00  0.00     0.008 A 
HETATM   23  C   UNK N   1      27.748  19.808   7.066  0.00  0.00     0.001 A 
HETATM   24  C   UNK N   1      27.541  20.672   5.995  0.00  0.00     0.000 A 
HETATM   25  C   UNK N   1      27.872  20.266   4.700  0.00  0.00     0.001 A 
HETATM   26  C   UNK N   1      28.401  18.990   4.474  0.00  0.00     0.008 A 
ENDBRANCH   1  21
TORSDOF 9
ENDMDL
MODEL 8
REMARK VINA RESULT:      -5.2      1.949      4.932
REMARK  9 active torsions:
REMARK  status: ('A' for Active; 'I' for Inactive)
REMARK    1  A    between atoms: O_1  and  C_6 
REMARK    2  A    between atoms: O_1  and  C_23 
REMARK    3  A    between atoms: N_3  and  C_7 
REMARK    4  A    between atoms: C_4  and  C_5 
REMARK    5  A    between atoms: C_4  and  C_6 
REMARK    6  A    between atoms: C_4  and  C_8 
REMARK    7  A    between atoms: C_4  and  C_9 
REMARK    8  A    between atoms: C_5  and  C_7 
REMARK    9  A    between atoms: C_6  and  C_10 
ROOT
HETATM    1  C   UNK N   1      27.043  17.596   5.095  0.00  0.00     0.043 C 
ENDROOT
BRANCH   1   2
HETATM    2  C   UNK N   1      27.427  17.107   3.673  0.00  0.00     0.057 C 
BRANCH   2   3
HETATM    3  C   UNK N   1      26.980  15.684   3.226  0.00  0.00     0.219 C 
HETATM    4  C   UNK N   1      26.063  15.607   2.001  0.00  0.00     0.043 C 
BRANCH   3   5
HETATM    5  N   UNK N   1      27.980  14.607   3.344  0.00  0.00     0.084 N 
HETATM    6  C   UNK N   1      27.262  13.344   3.361  0.00  0.00     0.309 C 
HETATM    7  C   UNK N   1      28.874  14.554   2.191  0.00  0.00     0.309 C 
ENDBRANCH   3   5
ENDBRANCH   2   3
ENDBRANCH   1   2
BRANCH   1   8
HETATM    8  C   UNK N   1      26.755  19.150   5.071  0.00  0.00     0.149 C 
BRANCH   8   9
HETATM    9  O   UNK N   1      27.436  19.817   6.082  0.00  0.00    -0.315 OA
BRANCH   9  10
HETATM   10  C   UNK N   1      27.200  21.075   6.539  0.00  0.00     0.255 C 
HETATM   11  O   UNK N   1      27.935  22.011   6.240  0.00  0.00    -0.266 OA
HETATM   12  C   UNK N   1      26.080  21.307   7.488  0.00  0.00     0.126 C 
ENDBRANCH   9  10
ENDBRANCH   8   9
BRANCH   8  13
HETATM   13  C   UNK N   1      27.073  19.761   3.696  0.00  0.00     0.029 C 
HETATM   14  C   UNK N   1      25.804  20.362   3.113  0.00  0.00     0.007 C 
ENDBRANCH   8  13
ENDBRANCH   1   8
BRANCH   1  15
HETATM   15  C   UNK N   1      28.285  17.434   5.990  0.00  0.00    -0.042 A 
HETATM   16  C   UNK N   1      28.237  17.512   7.391  0.00  0.00     0.008 A 
HETATM   17  C   UNK N   1      29.405  17.421   8.152  0.00  0.00     0.001 A 
HETATM   18  C   UNK N   1      30.641  17.252   7.524  0.00  0.00     0.000 A 
HETATM   19  C   UNK N   1      30.711  17.177   6.133  0.00  0.00     0.001 A 
HETATM   20  C   UNK N   1      29.544  17.274   5.373  0.00  0.00     0.008 A 
ENDBRANCH   1  15
BRANCH   1  21
HETATM   21  C   UNK N   1      25.745  16.828   5.466  0.00  0.00    -0.042 A 
HETATM   22  C   UNK N   1      24.504  17.317   5.000  0.00  0.00     0.008 A 
HETATM   23  C   UNK N   1      23.309  16.648   5.257  0.00  0.00     0.001 A 
HETATM   24  C   UNK N   1      23.331  15.444   5.955  0.00  0.00     0.000 A 
HETATM   25  C   UNK N   1      24.545  14.927   6.411  0.00  0.00     0.001 A 
HETATM   26  C   UNK N   1      25.740  15.620   6.179  0.00  0.00     0.008 A 
ENDBRANCH   1  21
TORSDOF 9
ENDMDL
MODEL 9
REMARK VINA RESULT:      -5.2     12.080     15.173
REMARK  9 active torsions:
REMARK  status: ('A' for Active; 'I' for Inactive)
REMARK    1  A    between atoms: O_1  and  C_6 
REMARK    2  A    between atoms: O_1  and  C_23 
REMARK    3  A    between atoms: N_3  and  C_7 
REMARK    4  A    between atoms: C_4  and  C_5 
REMARK    5  A    between atoms: C_4  and  C_6 
REMARK    6  A    between atoms: C_4  and  C_8 
REMARK    7  A    between atoms: C_4  and  C_9 
REMARK    8  A    between atoms: C_5  and  C_7 
REMARK    9  A    between atoms: C_6  and  C_10 
ROOT
HETATM    1  C   UNK N   1      27.469  24.313  -6.097  0.00  0.00     0.043 C 
ENDROOT
BRANCH   1   2
HETATM    2  C   UNK N   1      26.238  24.894  -5.352  0.00  0.00     0.057 C 
BRANCH   2   3
HETATM    3  C   UNK N   1      26.128  26.439  -5.182  0.00  0.00     0.219 C 
HETATM    4  C   UNK N   1      24.815  27.085  -5.635  0.00  0.00     0.043 C 
BRANCH   3   5
HETATM    5  N   UNK N   1      26.742  27.018  -3.974  0.00  0.00     0.084 N 
HETATM    6  C   UNK N   1      27.886  27.807  -4.401  0.00  0.00     0.309 C 
HETATM    7  C   UNK N   1      25.844  27.941  -3.285  0.00  0.00     0.309 C 
ENDBRANCH   3   5
ENDBRANCH   2   3
ENDBRANCH   1   2
BRANCH   1   8
HETATM    8  C   UNK N   1      27.169  22.832  -6.558  0.00  0.00     0.149 C 
BRANCH   8   9
HETATM    9  O   UNK N   1      25.805  22.592  -6.672  0.00  0.00    -0.315 OA
BRANCH   9  10
HETATM   10  C   UNK N   1      25.162  21.987  -7.705  0.00  0.00     0.255 C 
HETATM   11  O   UNK N   1      24.373  22.604  -8.415  0.00  0.00    -0.266 OA
HETATM   12  C   UNK N   1      25.350  20.530  -7.927  0.00  0.00     0.126 C 
ENDBRANCH   9  10
ENDBRANCH   8   9
BRANCH   8  13
HETATM   13  C   UNK N   1      27.901  22.489  -7.866  0.00  0.00     0.029 C 
HETATM   14  C   UNK N   1      28.974  21.451  -7.580  0.00  0.00     0.007 C 
ENDBRANCH   8  13
ENDBRANCH   1   8
BRANCH   1  15
HETATM   15  C   UNK N   1      28.612  24.188  -5.072  0.00  0.00    -0.042 A 
HETATM   16  C   UNK N   1      29.961  24.396  -5.399  0.00  0.00     0.008 A 
HETATM   17  C   UNK N   1      30.964  24.207  -4.446  0.00  0.00     0.001 A 
HETATM   18  C   UNK N   1      30.635  23.806  -3.149  0.00  0.00     0.000 A 
HETATM   19  C   UNK N   1      29.300  23.590  -2.806  0.00  0.00     0.001 A 
HETATM   20  C   UNK N   1      28.299  23.772  -3.760  0.00  0.00     0.008 A 
ENDBRANCH   1  15
BRANCH   1  21
HETATM   21  C   UNK N   1      27.672  25.219  -7.341  0.00  0.00    -0.042 A 
HETATM   22  C   UNK N   1      26.612  25.361  -8.265  0.00  0.00     0.008 A 
HETATM   23  C   UNK N   1      26.714  26.196  -9.376  0.00  0.00     0.001 A 
HETATM   24  C   UNK N   1      27.870  26.947  -9.568  0.00  0.00     0.000 A 
HETATM   25  C   UNK N   1      28.926  26.842  -8.661  0.00  0.00     0.001 A 
HETATM   26  C   UNK N   1      28.832  25.976  -7.564  0.00  0.00     0.008 A 
ENDBRANCH   1  21
TORSDOF 9
ENDMDL
