MODEL 1
REMARK VINA RESULT:      -5.8      0.000      0.000
REMARK  1 active torsions:
REMARK  status: ('A' for Active; 'I' for Inactive)
REMARK    1  A    between atoms: N_2  and  C_5 
ROOT
HETATM    1  O   UNK N   1      37.395  14.706  15.774  0.00  0.00    -0.266 OA
HETATM    2  N   UNK N   1      35.788  13.100  15.476  0.00  0.00    -0.219 N 
HETATM    3  N   UNK N   1      35.111  12.676  14.414  0.00  0.00    -0.291 N 
HETATM    4  C   UNK N   1      35.505  13.379  13.334  0.00  0.00     0.030 A 
HETATM    5  C   UNK N   1      36.626  14.092  15.056  0.00  0.00     0.268 A 
HETATM    6  C   UNK N   1      36.476  14.299  13.698  0.00  0.00     0.102 A 
HETATM    7  C   UNK N   1      34.100  11.624  14.386  0.00  0.00     0.178 C 
HETATM    8  C   UNK N   1      34.969  13.186  11.958  0.00  0.00     0.070 C 
ENDROOT
BRANCH   2   9
HETATM    9  C   UNK N   1      35.653  12.596  16.829  0.00  0.00     0.060 A 
HETATM   10  C   UNK N   1      35.205  13.431  17.864  0.00  0.00     0.031 A 
HETATM   11  C   UNK N   1      35.074  12.952  19.166  0.00  0.00     0.002 A 
HETATM   12  C   UNK N   1      35.390  11.623  19.451  0.00  0.00     0.000 A 
HETATM   13  C   UNK N   1      35.838  10.777  18.433  0.00  0.00     0.002 A 
HETATM   14  C   UNK N   1      35.968  11.261  17.129  0.00  0.00     0.031 A 
ENDBRANCH   2   9
TORSDOF 1
ENDMDL
MODEL 2
REMARK VINA RESULT:      -5.6      1.528      2.527
REMARK  1 active torsions:
REMARK  status: ('A' for Active; 'I' for Inactive)
REMARK    1  A    between atoms: N_2  and  C_5 
ROOT
HETATM    1  O   UNK N   1      33.747  11.188  14.688  0.00  0.00    -0.266 OA
HETATM    2  N   UNK N   1      35.335  12.668  15.420  0.00  0.00    -0.219 N 
HETATM    3  N   UNK N   1      36.048  13.613  14.815  0.00  0.00    -0.291 N 
HETATM    4  C   UNK N   1      35.711  13.646  13.510  0.00  0.00     0.030 A 
HETATM    5  C   UNK N   1      34.534  12.094  14.477  0.00  0.00     0.268 A 
HETATM    6  C   UNK N   1      34.743  12.688  13.247  0.00  0.00     0.102 A 
HETATM    7  C   UNK N   1      37.039  14.489  15.431  0.00  0.00     0.178 C 
HETATM    8  C   UNK N   1      36.300  14.578  12.509  0.00  0.00     0.070 C 
ENDROOT
BRANCH   2   9
HETATM    9  C   UNK N   1      35.405  12.319  16.826  0.00  0.00     0.060 A 
HETATM   10  C   UNK N   1      35.821  11.041  17.227  0.00  0.00     0.031 A 
HETATM   11  C   UNK N   1      35.890  10.700  18.577  0.00  0.00     0.002 A 
HETATM   12  C   UNK N   1      35.541  11.639  19.548  0.00  0.00     0.000 A 
HETATM   13  C   UNK N   1      35.124  12.917  19.167  0.00  0.00     0.002 A 
HETATM   14  C   UNK N   1      35.057  13.255  17.814  0.00  0.00     0.031 A 
ENDBRANCH   2   9
TORSDOF 1
ENDMDL
MODEL 3
REMARK VINA RESULT:      -5.6     21.659     23.624
REMARK  1 active torsions:
REMARK  status: ('A' for Active; 'I' for Inactive)
REMARK    1  A    between atoms: N_2  and  C_5 
ROOT
HETATM    1  O   UNK N   1      30.434  23.186  -1.544  0.00  0.00    -0.266 OA
HETATM    2  N   UNK N   1      29.710  23.101  -3.717  0.00  0.00    -0.219 N 
HETATM    3  N   UNK N   1      29.962  22.276  -4.728  0.00  0.00    -0.291 N 
HETATM    4  C   UNK N   1      30.823  21.325  -4.314  0.00  0.00     0.030 A 
HETATM    5  C   UNK N   1      30.429  22.660  -2.644  0.00  0.00     0.268 A 
HETATM    6  C   UNK N   1      31.151  21.532  -2.983  0.00  0.00     0.102 A 
HETATM    7  C   UNK N   1      29.412  22.357  -6.078  0.00  0.00     0.178 C 
HETATM    8  C   UNK N   1      31.339  20.222  -5.171  0.00  0.00     0.070 C 
ENDROOT
BRANCH   2   9
HETATM    9  C   UNK N   1      28.833  24.254  -3.757  0.00  0.00     0.060 A 
HETATM   10  C   UNK N   1      29.330  25.523  -4.092  0.00  0.00     0.031 A 
HETATM   11  C   UNK N   1      28.490  26.634  -4.131  0.00  0.00     0.002 A 
HETATM   12  C   UNK N   1      27.135  26.491  -3.835  0.00  0.00     0.000 A 
HETATM   13  C   UNK N   1      26.622  25.235  -3.499  0.00  0.00     0.002 A 
HETATM   14  C   UNK N   1      27.466  24.123  -3.460  0.00  0.00     0.031 A 
ENDBRANCH   2   9
TORSDOF 1
ENDMDL
MODEL 4
REMARK VINA RESULT:      -5.5     10.182     11.903
REMARK  1 active torsions:
REMARK  status: ('A' for Active; 'I' for Inactive)
REMARK    1  A    between atoms: N_2  and  C_5 
ROOT
HETATM    1  O   UNK N   1      34.589  18.095   7.156  0.00  0.00    -0.266 OA
HETATM    2  N   UNK N   1      32.566  17.206   6.551  0.00  0.00    -0.219 N 
HETATM    3  N   UNK N   1      31.367  17.198   7.125  0.00  0.00    -0.291 N 
HETATM    4  C   UNK N   1      31.436  17.868   8.293  0.00  0.00     0.030 A 
HETATM    5  C   UNK N   1      33.407  17.895   7.375  0.00  0.00     0.268 A 
HETATM    6  C   UNK N   1      32.726  18.332   8.495  0.00  0.00     0.102 A 
HETATM    7  C   UNK N   1      30.154  16.577   6.603  0.00  0.00     0.178 C 
HETATM    8  C   UNK N   1      30.288  18.070   9.219  0.00  0.00     0.070 C 
ENDROOT
BRANCH   2   9
HETATM    9  C   UNK N   1      32.907  16.593   5.282  0.00  0.00     0.060 A 
HETATM   10  C   UNK N   1      32.643  17.254   4.073  0.00  0.00     0.031 A 
HETATM   11  C   UNK N   1      32.969  16.668   2.851  0.00  0.00     0.002 A 
HETATM   12  C   UNK N   1      33.566  15.408   2.822  0.00  0.00     0.000 A 
HETATM   13  C   UNK N   1      33.836  14.735   4.016  0.00  0.00     0.002 A 
HETATM   14  C   UNK N   1      33.508  15.324   5.240  0.00  0.00     0.031 A 
ENDBRANCH   2   9
TORSDOF 1
ENDMDL
MODEL 5
REMARK VINA RESULT:      -5.5     22.964     25.356
REMARK  1 active torsions:
REMARK  status: ('A' for Active; 'I' for Inactive)
REMARK    1  A    between atoms: N_2  and  C_5 
ROOT
HETATM    1  O   UNK N   1      27.004  23.684  -2.381  0.00  0.00    -0.266 OA
HETATM    2  N   UNK N   1      28.064  24.948  -3.972  0.00  0.00    -0.219 N 
HETATM    3  N   UNK N   1      29.310  24.972  -4.433  0.00  0.00    -0.291 N 
HETATM    4  C   UNK N   1      30.035  24.038  -3.786  0.00  0.00     0.030 A 
HETATM    5  C   UNK N   1      28.003  23.978  -3.014  0.00  0.00     0.268 A 
HETATM    6  C   UNK N   1      29.237  23.375  -2.866  0.00  0.00     0.102 A 
HETATM    7  C   UNK N   1      29.840  25.853  -5.469  0.00  0.00     0.178 C 
HETATM    8  C   UNK N   1      31.478  23.769  -4.033  0.00  0.00     0.070 C 
ENDROOT
BRANCH   2   9
HETATM    9  C   UNK N   1      26.976  25.800  -4.411  0.00  0.00     0.060 A 
HETATM   10  C   UNK N   1      26.204  25.456  -5.532  0.00  0.00     0.031 A 
HETATM   11  C   UNK N   1      25.158  26.271  -5.959  0.00  0.00     0.002 A 
HETATM   12  C   UNK N   1      24.868  27.447  -5.267  0.00  0.00     0.000 A 
HETATM   13  C   UNK N   1      25.625  27.806  -4.149  0.00  0.00     0.002 A 
HETATM   14  C   UNK N   1      26.673  26.987  -3.724  0.00  0.00     0.031 A 
ENDBRANCH   2   9
TORSDOF 1
ENDMDL
MODEL 6
REMARK VINA RESULT:      -5.5      2.329      3.130
REMARK  1 active torsions:
REMARK  status: ('A' for Active; 'I' for Inactive)
REMARK    1  A    between atoms: N_2  and  C_5 
ROOT
HETATM    1  O   UNK N   1      33.020  10.800  14.682  0.00  0.00    -0.266 OA
HETATM    2  N   UNK N   1      35.244  11.285  14.943  0.00  0.00    -0.219 N 
HETATM    3  N   UNK N   1      36.300  11.173  14.144  0.00  0.00    -0.291 N 
HETATM    4  C   UNK N   1      35.902  10.665  12.960  0.00  0.00     0.030 A 
HETATM    5  C   UNK N   1      34.158  10.838  14.248  0.00  0.00     0.268 A 
HETATM    6  C   UNK N   1      34.534  10.435  12.982  0.00  0.00     0.102 A 
HETATM    7  C   UNK N   1      37.678  11.531  14.462  0.00  0.00     0.178 C 
HETATM    8  C   UNK N   1      36.806  10.397  11.809  0.00  0.00     0.070 C 
ENDROOT
BRANCH   2   9
HETATM    9  C   UNK N   1      35.255  11.790  16.302  0.00  0.00     0.060 A 
HETATM   10  C   UNK N   1      35.403  10.917  17.390  0.00  0.00     0.031 A 
HETATM   11  C   UNK N   1      35.414  11.397  18.698  0.00  0.00     0.002 A 
HETATM   12  C   UNK N   1      35.276  12.765  18.936  0.00  0.00     0.000 A 
HETATM   13  C   UNK N   1      35.127  13.649  17.865  0.00  0.00     0.002 A 
HETATM   14  C   UNK N   1      35.117  13.165  16.555  0.00  0.00     0.031 A 
ENDBRANCH   2   9
TORSDOF 1
ENDMDL
MODEL 7
REMARK VINA RESULT:      -5.4      5.239      8.894
REMARK  1 active torsions:
REMARK  status: ('A' for Active; 'I' for Inactive)
REMARK    1  A    between atoms: N_2  and  C_5 
ROOT
HETATM    1  O   UNK N   1      35.542  17.725  10.258  0.00  0.00    -0.266 OA
HETATM    2  N   UNK N   1      34.443  15.855   9.518  0.00  0.00    -0.219 N 
HETATM    3  N   UNK N   1      34.321  14.622   9.998  0.00  0.00    -0.291 N 
HETATM    4  C   UNK N   1      35.009  14.531  11.154  0.00  0.00     0.030 A 
HETATM    5  C   UNK N   1      35.225  16.556  10.390  0.00  0.00     0.268 A 
HETATM    6  C   UNK N   1      35.606  15.749  11.445  0.00  0.00     0.102 A 
HETATM    7  C   UNK N   1      33.572  13.522   9.399  0.00  0.00     0.178 C 
HETATM    8  C   UNK N   1      35.106  13.300  11.985  0.00  0.00     0.070 C 
ENDROOT
BRANCH   2   9
HETATM    9  C   UNK N   1      33.851  16.354   8.293  0.00  0.00     0.060 A 
HETATM   10  C   UNK N   1      32.560  16.906   8.293  0.00  0.00     0.031 A 
HETATM   11  C   UNK N   1      31.987  17.387   7.118  0.00  0.00     0.002 A 
HETATM   12  C   UNK N   1      32.700  17.323   5.920  0.00  0.00     0.000 A 
HETATM   13  C   UNK N   1      33.986  16.777   5.901  0.00  0.00     0.002 A 
HETATM   14  C   UNK N   1      34.558  16.295   7.080  0.00  0.00     0.031 A 
ENDBRANCH   2   9
TORSDOF 1
ENDMDL
MODEL 8
REMARK VINA RESULT:      -5.3      6.960     10.570
REMARK  1 active torsions:
REMARK  status: ('A' for Active; 'I' for Inactive)
REMARK    1  A    between atoms: N_2  and  C_5 
ROOT
HETATM    1  O   UNK N   1      34.662  18.797   8.293  0.00  0.00    -0.266 OA
HETATM    2  N   UNK N   1      33.605  16.788   7.974  0.00  0.00    -0.219 N 
HETATM    3  N   UNK N   1      33.581  15.653   8.664  0.00  0.00    -0.291 N 
HETATM    4  C   UNK N   1      34.358  15.788   9.757  0.00  0.00     0.030 A 
HETATM    5  C   UNK N   1      34.415  17.657   8.647  0.00  0.00     0.268 A 
HETATM    6  C   UNK N   1      34.914  17.058   9.788  0.00  0.00     0.102 A 
HETATM    7  C   UNK N   1      32.845  14.440   8.323  0.00  0.00     0.178 C 
HETATM    8  C   UNK N   1      34.579  14.723  10.774  0.00  0.00     0.070 C 
ENDROOT
BRANCH   2   9
HETATM    9  C   UNK N   1      32.898  17.047   6.735  0.00  0.00     0.060 A 
HETATM   10  C   UNK N   1      31.498  17.133   6.713  0.00  0.00     0.031 A 
HETATM   11  C   UNK N   1      30.814  17.381   5.525  0.00  0.00     0.002 A 
HETATM   12  C   UNK N   1      31.525  17.547   4.336  0.00  0.00     0.000 A 
HETATM   13  C   UNK N   1      32.919  17.465   4.339  0.00  0.00     0.002 A 
HETATM   14  C   UNK N   1      33.602  17.217   5.531  0.00  0.00     0.031 A 
ENDBRANCH   2   9
TORSDOF 1
ENDMDL
MODEL 9
REMARK VINA RESULT:      -5.3      8.780     10.783
REMARK  1 active torsions:
REMARK  status: ('A' for Active; 'I' for Inactive)
REMARK    1  A    between atoms: N_2  and  C_5 
ROOT
HETATM    1  O   UNK N   1      29.775  18.703  10.039  0.00  0.00    -0.266 OA
HETATM    2  N   UNK N   1      30.363  17.754   8.038  0.00  0.00    -0.219 N 
HETATM    3  N   UNK N   1      29.726  17.598   6.882  0.00  0.00    -0.291 N 
HETATM    4  C   UNK N   1      28.492  18.131   6.986  0.00  0.00     0.030 A 
HETATM    5  C   UNK N   1      29.513  18.398   8.888  0.00  0.00     0.268 A 
HETATM    6  C   UNK N   1      28.311  18.656   8.257  0.00  0.00     0.102 A 
HETATM    7  C   UNK N   1      30.246  16.960   5.677  0.00  0.00     0.178 C 
HETATM    8  C   UNK N   1      27.483  18.147   5.892  0.00  0.00     0.070 C 
ENDROOT
BRANCH   2   9
HETATM    9  C   UNK N   1      31.713  17.315   8.331  0.00  0.00     0.060 A 
HETATM   10  C   UNK N   1      32.805  18.175   8.134  0.00  0.00     0.031 A 
HETATM   11  C   UNK N   1      34.105  17.758   8.414  0.00  0.00     0.002 A 
HETATM   12  C   UNK N   1      34.332  16.470   8.898  0.00  0.00     0.000 A 
HETATM   13  C   UNK N   1      33.257  15.600   9.101  0.00  0.00     0.002 A 
HETATM   14  C   UNK N   1      31.955  16.020   8.819  0.00  0.00     0.031 A 
ENDBRANCH   2   9
TORSDOF 1
ENDMDL
