MODEL 1
REMARK VINA RESULT:      -7.8      0.000      0.000
REMARK  8 active torsions:
REMARK  status: ('A' for Active; 'I' for Inactive)
REMARK    1  A    between atoms: C_26  and  O_1 
REMARK    2  A    between atoms: C_27  and  O_2 
REMARK    3  A    between atoms: C_4  and  C_9 
REMARK    4  A    between atoms: C_9  and  C_14 
REMARK    5  A    between atoms: C_14  and  C_17 
REMARK    6  A    between atoms: C_16  and  C_19 
REMARK    7  A    between atoms: C_17  and  C_18 
REMARK    8  A    between atoms: C_18  and  C_20 
ROOT
HETATM    1  C   UNK N   1      27.692  18.691   5.551  0.00  0.00    -0.033 C 
HETATM    2  C   UNK N   1      27.971  17.283   6.099  0.00  0.00    -0.002 C 
HETATM    3  C   UNK N   1      26.243  18.489   5.121  0.00  0.00     0.023 C 
HETATM    4  C   UNK N   1      27.417  16.375   4.987  0.00  0.00     0.006 C 
HETATM    5  C   UNK N   1      26.318  17.209   4.289  0.00  0.00     0.010 C 
HETATM    6  C   UNK N   1      27.764  19.859   6.541  0.00  0.00     0.010 C 
HETATM    7  C   UNK N   1      25.644  19.743   4.517  0.00  0.00    -0.075 C 
HETATM    8  C   UNK N   1      28.606  19.012   4.347  0.00  0.00     0.016 C 
HETATM    9  C   UNK N   1      27.102  21.153   5.979  0.00  0.00     0.005 C 
HETATM   10  C   UNK N   1      26.458  21.007   4.578  0.00  0.00     0.034 C 
HETATM   11  C   UNK N   1      24.382  19.781   4.067  0.00  0.00     0.004 C 
ENDROOT
BRANCH  11  12
HETATM   12  C   UNK N   1      23.528  18.579   4.104  0.00  0.00     0.008 C 
HETATM   13  C   UNK N   1      22.271  18.525   3.653  0.00  0.00    -0.048 C 
HETATM   14  C   UNK N   1      21.635  19.736   3.019  0.00  0.00     0.071 C 
HETATM   15  C   UNK N   1      21.508  17.241   3.711  0.00  0.00    -0.033 C 
HETATM   16  C   UNK N   1      20.668  19.312   1.925  0.00  0.00     0.125 C 
HETATM   17  C   UNK N   1      19.583  18.450   2.552  0.00  0.00     0.068 C 
HETATM   18  C   UNK N   1      20.140  17.124   3.081  0.00  0.00     0.153 C 
HETATM   19  C   UNK N   1      22.074  16.137   4.218  0.00  0.00     0.022 C 
BRANCH  16  20
HETATM   20  O   UNK N   1      20.089  20.446   1.358  0.00  0.00    -0.395 OA
HETATM   21  H   UNK N   1      20.107  20.618   0.403  0.00  0.00     0.210 HD
ENDBRANCH  16  20
BRANCH  18  22
HETATM   22  O   UNK N   1      19.227  16.588   3.990  0.00  0.00    -0.391 OA
HETATM   23  H   UNK N   1      18.295  16.487   4.238  0.00  0.00     0.210 HD
ENDBRANCH  18  22
ENDBRANCH  11  12
BRANCH   2  24
HETATM   24  C   UNK N   1      29.404  16.977   6.575  0.00  0.00    -0.014 C 
HETATM   25  C   UNK N   1      29.992  15.656   6.088  0.00  0.00     0.010 C 
BRANCH  24  26
HETATM   26  C   UNK N   1      29.571  17.154   8.088  0.00  0.00     0.005 C 
BRANCH  26  27
HETATM   27  C   UNK N   1      30.973  16.826   8.588  0.00  0.00     0.001 C 
BRANCH  27  28
HETATM   28  C   UNK N   1      31.942  17.965   8.276  0.00  0.00     0.004 C 
BRANCH  28  29
HETATM   29  C   UNK N   1      33.259  17.464   7.688  0.00  0.00    -0.023 C 
HETATM   30  C   UNK N   1      33.222  17.504   6.170  0.00  0.00     0.009 C 
HETATM   31  C   UNK N   1      34.393  18.346   8.160  0.00  0.00     0.009 C 
ENDBRANCH  28  29
ENDBRANCH  27  28
ENDBRANCH  26  27
ENDBRANCH  24  26
ENDBRANCH   2  24
TORSDOF 8
ENDMDL
MODEL 2
REMARK VINA RESULT:      -7.7     11.471     14.517
REMARK  8 active torsions:
REMARK  status: ('A' for Active; 'I' for Inactive)
REMARK    1  A    between atoms: C_26  and  O_1 
REMARK    2  A    between atoms: C_27  and  O_2 
REMARK    3  A    between atoms: C_4  and  C_9 
REMARK    4  A    between atoms: C_9  and  C_14 
REMARK    5  A    between atoms: C_14  and  C_17 
REMARK    6  A    between atoms: C_16  and  C_19 
REMARK    7  A    between atoms: C_17  and  C_18 
REMARK    8  A    between atoms: C_18  and  C_20 
ROOT
HETATM    1  C   UNK N   1      27.150  27.731  -5.578  0.00  0.00    -0.033 C 
HETATM    2  C   UNK N   1      28.068  28.719  -4.839  0.00  0.00    -0.002 C 
HETATM    3  C   UNK N   1      27.666  26.433  -4.966  0.00  0.00     0.023 C 
HETATM    4  C   UNK N   1      29.454  28.068  -4.995  0.00  0.00     0.006 C 
HETATM    5  C   UNK N   1      29.178  26.555  -5.154  0.00  0.00     0.010 C 
HETATM    6  C   UNK N   1      25.643  27.844  -5.320  0.00  0.00     0.010 C 
HETATM    7  C   UNK N   1      26.938  25.218  -5.501  0.00  0.00    -0.075 C 
HETATM    8  C   UNK N   1      27.391  27.779  -7.103  0.00  0.00     0.016 C 
HETATM    9  C   UNK N   1      24.865  26.583  -5.802  0.00  0.00     0.005 C 
HETATM   10  C   UNK N   1      25.745  25.451  -6.388  0.00  0.00     0.034 C 
HETATM   11  C   UNK N   1      27.240  23.975  -5.100  0.00  0.00     0.004 C 
ENDROOT
BRANCH  11  12
HETATM   12  C   UNK N   1      28.335  23.735  -4.140  0.00  0.00     0.008 C 
HETATM   13  C   UNK N   1      29.375  22.925  -4.360  0.00  0.00    -0.048 C 
HETATM   14  C   UNK N   1      29.515  22.203  -5.677  0.00  0.00     0.071 C 
HETATM   15  C   UNK N   1      30.445  22.781  -3.328  0.00  0.00    -0.033 C 
HETATM   16  C   UNK N   1      30.983  22.050  -6.041  0.00  0.00     0.125 C 
HETATM   17  C   UNK N   1      31.664  21.236  -4.951  0.00  0.00     0.068 C 
HETATM   18  C   UNK N   1      31.695  21.982  -3.613  0.00  0.00     0.153 C 
HETATM   19  C   UNK N   1      30.371  23.458  -2.173  0.00  0.00     0.022 C 
BRANCH  16  20
HETATM   20  O   UNK N   1      31.088  21.376  -7.257  0.00  0.00    -0.395 OA
HETATM   21  H   UNK N   1      31.817  20.768  -7.453  0.00  0.00     0.210 HD
ENDBRANCH  16  20
BRANCH  18  22
HETATM   22  O   UNK N   1      31.930  21.060  -2.593  0.00  0.00    -0.391 OA
HETATM   23  H   UNK N   1      31.543  20.419  -1.975  0.00  0.00     0.210 HD
ENDBRANCH  18  22
ENDBRANCH  11  12
BRANCH   2  24
HETATM   24  C   UNK N   1      27.968  30.206  -5.226  0.00  0.00    -0.014 C 
HETATM   25  C   UNK N   1      29.298  30.913  -5.473  0.00  0.00     0.010 C 
BRANCH  24  26
HETATM   26  C   UNK N   1      27.065  31.001  -4.278  0.00  0.00     0.005 C 
BRANCH  26  27
HETATM   27  C   UNK N   1      26.901  30.356  -2.908  0.00  0.00     0.001 C 
BRANCH  27  28
HETATM   28  C   UNK N   1      27.915  30.920  -1.916  0.00  0.00     0.004 C 
BRANCH  28  29
HETATM   29  C   UNK N   1      28.696  29.823  -1.194  0.00  0.00    -0.023 C 
HETATM   30  C   UNK N   1      30.118  29.738  -1.721  0.00  0.00     0.009 C 
HETATM   31  C   UNK N   1      28.754  30.133   0.285  0.00  0.00     0.009 C 
ENDBRANCH  28  29
ENDBRANCH  27  28
ENDBRANCH  26  27
ENDBRANCH  24  26
ENDBRANCH   2  24
TORSDOF 8
ENDMDL
MODEL 3
REMARK VINA RESULT:      -7.2      2.037      3.126
REMARK  8 active torsions:
REMARK  status: ('A' for Active; 'I' for Inactive)
REMARK    1  A    between atoms: C_26  and  O_1 
REMARK    2  A    between atoms: C_27  and  O_2 
REMARK    3  A    between atoms: C_4  and  C_9 
REMARK    4  A    between atoms: C_9  and  C_14 
REMARK    5  A    between atoms: C_14  and  C_17 
REMARK    6  A    between atoms: C_16  and  C_19 
REMARK    7  A    between atoms: C_17  and  C_18 
REMARK    8  A    between atoms: C_18  and  C_20 
ROOT
HETATM    1  C   UNK N   1      27.787  17.349   4.757  0.00  0.00    -0.033 C 
HETATM    2  C   UNK N   1      28.484  16.405   5.748  0.00  0.00    -0.002 C 
HETATM    3  C   UNK N   1      26.338  17.046   5.127  0.00  0.00     0.023 C 
HETATM    4  C   UNK N   1      27.702  15.092   5.567  0.00  0.00     0.006 C 
HETATM    5  C   UNK N   1      26.298  15.518   5.081  0.00  0.00     0.010 C 
HETATM    6  C   UNK N   1      28.042  18.852   4.918  0.00  0.00     0.010 C 
HETATM    7  C   UNK N   1      25.355  17.848   4.301  0.00  0.00    -0.075 C 
HETATM    8  C   UNK N   1      28.098  16.954   3.296  0.00  0.00     0.016 C 
HETATM    9  C   UNK N   1      27.010  19.715   4.131  0.00  0.00     0.005 C 
HETATM   10  C   UNK N   1      25.908  18.913   3.393  0.00  0.00     0.034 C 
HETATM   11  C   UNK N   1      24.030  17.729   4.461  0.00  0.00     0.004 C 
ENDROOT
BRANCH  11  12
HETATM   12  C   UNK N   1      23.468  16.769   5.431  0.00  0.00     0.008 C 
HETATM   13  C   UNK N   1      22.162  16.544   5.607  0.00  0.00    -0.048 C 
HETATM   14  C   UNK N   1      21.141  17.264   4.763  0.00  0.00     0.071 C 
HETATM   15  C   UNK N   1      21.705  15.522   6.598  0.00  0.00    -0.033 C 
HETATM   16  C   UNK N   1      19.936  16.371   4.516  0.00  0.00     0.125 C 
HETATM   17  C   UNK N   1      19.315  16.023   5.860  0.00  0.00     0.068 C 
HETATM   18  C   UNK N   1      20.245  15.153   6.713  0.00  0.00     0.153 C 
HETATM   19  C   UNK N   1      22.597  14.828   7.318  0.00  0.00     0.022 C 
BRANCH  16  20
HETATM   20  O   UNK N   1      19.006  17.059   3.739  0.00  0.00    -0.395 OA
HETATM   21  H   UNK N   1      18.463  17.780   4.095  0.00  0.00     0.210 HD
ENDBRANCH  16  20
BRANCH  18  22
HETATM   22  O   UNK N   1      19.826  15.222   8.041  0.00  0.00    -0.391 OA
HETATM   23  H   UNK N   1      20.009  15.561   8.932  0.00  0.00     0.210 HD
ENDBRANCH  18  22
ENDBRANCH  11  12
BRANCH   2  24
HETATM   24  C   UNK N   1      30.019  16.298   5.668  0.00  0.00    -0.014 C 
HETATM   25  C   UNK N   1      30.586  14.883   5.740  0.00  0.00     0.010 C 
BRANCH  24  26
HETATM   26  C   UNK N   1      30.726  17.247   6.639  0.00  0.00     0.005 C 
BRANCH  26  27
HETATM   27  C   UNK N   1      30.441  16.943   8.105  0.00  0.00     0.001 C 
BRANCH  27  28
HETATM   28  C   UNK N   1      30.209  18.231   8.892  0.00  0.00     0.004 C 
BRANCH  28  29
HETATM   29  C   UNK N   1      28.737  18.447   9.236  0.00  0.00    -0.023 C 
HETATM   30  C   UNK N   1      28.050  19.279   8.167  0.00  0.00     0.009 C 
HETATM   31  C   UNK N   1      28.036  17.109   9.322  0.00  0.00     0.009 C 
ENDBRANCH  28  29
ENDBRANCH  27  28
ENDBRANCH  26  27
ENDBRANCH  24  26
ENDBRANCH   2  24
TORSDOF 8
ENDMDL
MODEL 4
REMARK VINA RESULT:      -7.2     11.129     15.159
REMARK  8 active torsions:
REMARK  status: ('A' for Active; 'I' for Inactive)
REMARK    1  A    between atoms: C_26  and  O_1 
REMARK    2  A    between atoms: C_27  and  O_2 
REMARK    3  A    between atoms: C_4  and  C_9 
REMARK    4  A    between atoms: C_9  and  C_14 
REMARK    5  A    between atoms: C_14  and  C_17 
REMARK    6  A    between atoms: C_16  and  C_19 
REMARK    7  A    between atoms: C_17  and  C_18 
REMARK    8  A    between atoms: C_18  and  C_20 
ROOT
HETATM    1  C   UNK N   1      36.359  10.110  14.752  0.00  0.00    -0.033 C 
HETATM    2  C   UNK N   1      35.327  10.922  15.550  0.00  0.00    -0.002 C 
HETATM    3  C   UNK N   1      35.965  10.552  13.346  0.00  0.00     0.023 C 
HETATM    4  C   UNK N   1      34.019  10.643  14.786  0.00  0.00     0.006 C 
HETATM    5  C   UNK N   1      34.454  10.324  13.338  0.00  0.00     0.010 C 
HETATM    6  C   UNK N   1      37.840  10.432  14.984  0.00  0.00     0.010 C 
HETATM    7  C   UNK N   1      36.828   9.909  12.280  0.00  0.00    -0.075 C 
HETATM    8  C   UNK N   1      36.151   8.592  14.952  0.00  0.00     0.016 C 
HETATM    9  C   UNK N   1      38.756   9.839  13.871  0.00  0.00     0.005 C 
HETATM   10  C   UNK N   1      38.012   9.097  12.732  0.00  0.00     0.034 C 
HETATM   11  C   UNK N   1      36.647  10.156  10.975  0.00  0.00     0.004 C 
ENDROOT
BRANCH  11  12
HETATM   12  C   UNK N   1      35.560  11.043  10.517  0.00  0.00     0.008 C 
HETATM   13  C   UNK N   1      35.655  12.372  10.415  0.00  0.00    -0.048 C 
HETATM   14  C   UNK N   1      36.949  13.072  10.743  0.00  0.00     0.071 C 
HETATM   15  C   UNK N   1      34.498  13.170   9.906  0.00  0.00    -0.033 C 
HETATM   16  C   UNK N   1      37.128  14.293   9.856  0.00  0.00     0.125 C 
HETATM   17  C   UNK N   1      35.968  15.244  10.110  0.00  0.00     0.068 C 
HETATM   18  C   UNK N   1      34.631  14.653   9.651  0.00  0.00     0.153 C 
HETATM   19  C   UNK N   1      33.356  12.561   9.553  0.00  0.00     0.022 C 
BRANCH  16  20
HETATM   20  O   UNK N   1      38.326  14.927  10.181  0.00  0.00    -0.395 OA
HETATM   21  H   UNK N   1      38.721  14.871  11.066  0.00  0.00     0.210 HD
ENDBRANCH  16  20
BRANCH  18  22
HETATM   22  O   UNK N   1      33.597  15.351  10.275  0.00  0.00    -0.391 OA
HETATM   23  H   UNK N   1      32.727  15.300  10.701  0.00  0.00     0.210 HD
ENDBRANCH  18  22
ENDBRANCH  11  12
BRANCH   2  24
HETATM   24  C   UNK N   1      35.281  10.709  17.075  0.00  0.00    -0.014 C 
HETATM   25  C   UNK N   1      34.287   9.660  17.564  0.00  0.00     0.010 C 
BRANCH  24  26
HETATM   26  C   UNK N   1      35.151  12.024  17.848  0.00  0.00     0.005 C 
BRANCH  26  27
HETATM   27  C   UNK N   1      34.995  13.246  16.951  0.00  0.00     0.001 C 
BRANCH  27  28
HETATM   28  C   UNK N   1      36.119  14.250  17.199  0.00  0.00     0.004 C 
BRANCH  28  29
HETATM   29  C   UNK N   1      37.033  14.412  15.986  0.00  0.00    -0.023 C 
HETATM   30  C   UNK N   1      36.310  14.017  14.710  0.00  0.00     0.009 C 
HETATM   31  C   UNK N   1      37.460  15.858  15.863  0.00  0.00     0.009 C 
ENDBRANCH  28  29
ENDBRANCH  27  28
ENDBRANCH  26  27
ENDBRANCH  24  26
ENDBRANCH   2  24
TORSDOF 8
ENDMDL
MODEL 5
REMARK VINA RESULT:      -7.2     11.970     15.007
REMARK  8 active torsions:
REMARK  status: ('A' for Active; 'I' for Inactive)
REMARK    1  A    between atoms: C_26  and  O_1 
REMARK    2  A    between atoms: C_27  and  O_2 
REMARK    3  A    between atoms: C_4  and  C_9 
REMARK    4  A    between atoms: C_9  and  C_14 
REMARK    5  A    between atoms: C_14  and  C_17 
REMARK    6  A    between atoms: C_16  and  C_19 
REMARK    7  A    between atoms: C_17  and  C_18 
REMARK    8  A    between atoms: C_18  and  C_20 
ROOT
HETATM    1  C   UNK N   1      28.491  24.899  -5.129  0.00  0.00    -0.033 C 
HETATM    2  C   UNK N   1      27.843  25.273  -6.472  0.00  0.00    -0.002 C 
HETATM    3  C   UNK N   1      29.001  23.509  -5.496  0.00  0.00     0.023 C 
HETATM    4  C   UNK N   1      27.030  24.011  -6.814  0.00  0.00     0.006 C 
HETATM    5  C   UNK N   1      27.761  22.850  -6.101  0.00  0.00     0.010 C 
HETATM    6  C   UNK N   1      29.669  25.757  -4.652  0.00  0.00     0.010 C 
HETATM    7  C   UNK N   1      29.721  22.840  -4.344  0.00  0.00    -0.075 C 
HETATM    8  C   UNK N   1      27.439  24.841  -3.999  0.00  0.00     0.016 C 
HETATM    9  C   UNK N   1      30.474  25.073  -3.507  0.00  0.00     0.005 C 
HETATM   10  C   UNK N   1      29.980  23.659  -3.109  0.00  0.00     0.034 C 
HETATM   11  C   UNK N   1      30.243  21.610  -4.452  0.00  0.00     0.004 C 
ENDROOT
BRANCH  11  12
HETATM   12  C   UNK N   1      30.099  20.833  -5.698  0.00  0.00     0.008 C 
HETATM   13  C   UNK N   1      31.117  20.422  -6.460  0.00  0.00    -0.048 C 
HETATM   14  C   UNK N   1      32.540  20.712  -6.054  0.00  0.00     0.071 C 
HETATM   15  C   UNK N   1      30.856  19.611  -7.688  0.00  0.00    -0.033 C 
HETATM   16  C   UNK N   1      33.455  19.581  -6.493  0.00  0.00     0.125 C 
HETATM   17  C   UNK N   1      33.382  19.467  -8.008  0.00  0.00     0.068 C 
HETATM   18  C   UNK N   1      31.996  19.020  -8.484  0.00  0.00     0.153 C 
HETATM   19  C   UNK N   1      29.601  19.291  -8.036  0.00  0.00     0.022 C 
BRANCH  16  20
HETATM   20  O   UNK N   1      34.764  19.873  -6.113  0.00  0.00    -0.395 OA
HETATM   21  H   UNK N   1      34.988  20.197  -5.226  0.00  0.00     0.210 HD
ENDBRANCH  16  20
BRANCH  18  22
HETATM   22  O   UNK N   1      31.864  19.338  -9.836  0.00  0.00    -0.391 OA
HETATM   23  H   UNK N   1      31.474  19.095 -10.691  0.00  0.00     0.210 HD
ENDBRANCH  18  22
ENDBRANCH  11  12
BRANCH   2  24
HETATM   24  C   UNK N   1      27.084  26.611  -6.545  0.00  0.00    -0.014 C 
HETATM   25  C   UNK N   1      25.651  26.528  -7.064  0.00  0.00     0.010 C 
BRANCH  24  26
HETATM   26  C   UNK N   1      27.887  27.704  -7.257  0.00  0.00     0.005 C 
BRANCH  26  27
HETATM   27  C   UNK N   1      27.869  29.044  -6.530  0.00  0.00     0.001 C 
BRANCH  27  28
HETATM   28  C   UNK N   1      27.773  28.842  -5.020  0.00  0.00     0.004 C 
BRANCH  28  29
HETATM   29  C   UNK N   1      26.419  29.272  -4.460  0.00  0.00    -0.023 C 
HETATM   30  C   UNK N   1      25.848  28.200  -3.548  0.00  0.00     0.009 C 
HETATM   31  C   UNK N   1      26.583  30.543  -3.656  0.00  0.00     0.009 C 
ENDBRANCH  28  29
ENDBRANCH  27  28
ENDBRANCH  26  27
ENDBRANCH  24  26
ENDBRANCH   2  24
TORSDOF 8
ENDMDL
MODEL 6
REMARK VINA RESULT:      -7.2     14.053     18.772
REMARK  8 active torsions:
REMARK  status: ('A' for Active; 'I' for Inactive)
REMARK    1  A    between atoms: C_26  and  O_1 
REMARK    2  A    between atoms: C_27  and  O_2 
REMARK    3  A    between atoms: C_4  and  C_9 
REMARK    4  A    between atoms: C_9  and  C_14 
REMARK    5  A    between atoms: C_14  and  C_17 
REMARK    6  A    between atoms: C_16  and  C_19 
REMARK    7  A    between atoms: C_17  and  C_18 
REMARK    8  A    between atoms: C_18  and  C_20 
ROOT
HETATM    1  C   UNK N   1      35.109   8.234  19.566  0.00  0.00    -0.033 C 
HETATM    2  C   UNK N   1      34.716   6.980  18.769  0.00  0.00    -0.002 C 
HETATM    3  C   UNK N   1      34.978   9.267  18.452  0.00  0.00     0.023 C 
HETATM    4  C   UNK N   1      35.556   7.121  17.487  0.00  0.00     0.006 C 
HETATM    5  C   UNK N   1      35.792   8.640  17.320  0.00  0.00     0.010 C 
HETATM    6  C   UNK N   1      34.203   8.638  20.735  0.00  0.00     0.010 C 
HETATM    7  C   UNK N   1      35.308  10.667  18.927  0.00  0.00    -0.075 C 
HETATM    8  C   UNK N   1      36.561   8.133  20.084  0.00  0.00     0.016 C 
HETATM    9  C   UNK N   1      34.470  10.097  21.213  0.00  0.00     0.005 C 
HETATM   10  C   UNK N   1      35.538  10.871  20.400  0.00  0.00     0.034 C 
HETATM   11  C   UNK N   1      35.262  11.725  18.105  0.00  0.00     0.004 C 
ENDROOT
BRANCH  11  12
HETATM   12  C   UNK N   1      34.925  11.561  16.678  0.00  0.00     0.008 C 
HETATM   13  C   UNK N   1      35.240  12.436  15.718  0.00  0.00    -0.048 C 
HETATM   14  C   UNK N   1      36.023  13.682  16.046  0.00  0.00     0.071 C 
HETATM   15  C   UNK N   1      34.876  12.151  14.296  0.00  0.00    -0.033 C 
HETATM   16  C   UNK N   1      36.926  14.059  14.883  0.00  0.00     0.125 C 
HETATM   17  C   UNK N   1      36.052  14.325  13.666  0.00  0.00     0.068 C 
HETATM   18  C   UNK N   1      35.343  13.056  13.181  0.00  0.00     0.153 C 
HETATM   19  C   UNK N   1      34.231  11.021  13.973  0.00  0.00     0.022 C 
BRANCH  16  20
HETATM   20  O   UNK N   1      37.634  15.215  15.206  0.00  0.00    -0.395 OA
HETATM   21  H   UNK N   1      38.044  15.348  16.076  0.00  0.00     0.210 HD
ENDBRANCH  16  20
BRANCH  18  22
HETATM   22  O   UNK N   1      34.270  13.427  12.370  0.00  0.00    -0.391 OA
HETATM   23  H   UNK N   1      33.408  13.869  12.319  0.00  0.00     0.210 HD
ENDBRANCH  18  22
ENDBRANCH  11  12
BRANCH   2  24
HETATM   24  C   UNK N   1      34.803   5.623  19.492  0.00  0.00    -0.014 C 
HETATM   25  C   UNK N   1      36.065   4.810  19.219  0.00  0.00     0.010 C 
BRANCH  24  26
HETATM   26  C   UNK N   1      33.534   4.782  19.319  0.00  0.00     0.005 C 
BRANCH  26  27
HETATM   27  C   UNK N   1      32.286   5.611  19.042  0.00  0.00     0.001 C 
BRANCH  27  28
HETATM   28  C   UNK N   1      31.181   5.283  20.044  0.00  0.00     0.004 C 
BRANCH  28  29
HETATM   29  C   UNK N   1      30.736   6.508  20.841  0.00  0.00    -0.023 C 
HETATM   30  C   UNK N   1      31.631   6.719  22.050  0.00  0.00     0.009 C 
HETATM   31  C   UNK N   1      30.820   7.739  19.966  0.00  0.00     0.009 C 
ENDBRANCH  28  29
ENDBRANCH  27  28
ENDBRANCH  26  27
ENDBRANCH  24  26
ENDBRANCH   2  24
TORSDOF 8
ENDMDL
MODEL 7
REMARK VINA RESULT:      -7.2     10.359     16.047
REMARK  8 active torsions:
REMARK  status: ('A' for Active; 'I' for Inactive)
REMARK    1  A    between atoms: C_26  and  O_1 
REMARK    2  A    between atoms: C_27  and  O_2 
REMARK    3  A    between atoms: C_4  and  C_9 
REMARK    4  A    between atoms: C_9  and  C_14 
REMARK    5  A    between atoms: C_14  and  C_17 
REMARK    6  A    between atoms: C_16  and  C_19 
REMARK    7  A    between atoms: C_17  and  C_18 
REMARK    8  A    between atoms: C_18  and  C_20 
ROOT
HETATM    1  C   UNK N   1      35.581  11.593  11.639  0.00  0.00    -0.033 C 
HETATM    2  C   UNK N   1      36.014  13.043  11.370  0.00  0.00    -0.002 C 
HETATM    3  C   UNK N   1      35.329  11.702  13.140  0.00  0.00     0.023 C 
HETATM    4  C   UNK N   1      37.028  13.304  12.497  0.00  0.00     0.006 C 
HETATM    5  C   UNK N   1      36.614  12.356  13.646  0.00  0.00     0.010 C 
HETATM    6  C   UNK N   1      34.303  11.100  10.950  0.00  0.00     0.010 C 
HETATM    7  C   UNK N   1      34.867  10.390  13.740  0.00  0.00    -0.075 C 
HETATM    8  C   UNK N   1      36.722  10.601  11.323  0.00  0.00     0.016 C 
HETATM    9  C   UNK N   1      33.761   9.782  11.581  0.00  0.00     0.005 C 
HETATM   10  C   UNK N   1      34.564   9.257  12.798  0.00  0.00     0.034 C 
HETATM   11  C   UNK N   1      34.595  10.264  15.047  0.00  0.00     0.004 C 
ENDROOT
BRANCH  11  12
HETATM   12  C   UNK N   1      34.777  11.400  15.971  0.00  0.00     0.008 C 
HETATM   13  C   UNK N   1      35.014  11.283  17.281  0.00  0.00    -0.048 C 
HETATM   14  C   UNK N   1      35.150   9.922  17.915  0.00  0.00     0.071 C 
HETATM   15  C   UNK N   1      35.215  12.505  18.119  0.00  0.00    -0.033 C 
HETATM   16  C   UNK N   1      36.149   9.970  19.060  0.00  0.00     0.125 C 
HETATM   17  C   UNK N   1      35.637  10.954  20.100  0.00  0.00     0.068 C 
HETATM   18  C   UNK N   1      35.621  12.392  19.569  0.00  0.00     0.153 C 
HETATM   19  C   UNK N   1      35.156  13.725  17.565  0.00  0.00     0.022 C 
BRANCH  16  20
HETATM   20  O   UNK N   1      36.253   8.703  19.632  0.00  0.00    -0.395 OA
HETATM   21  H   UNK N   1      36.403   7.904  19.104  0.00  0.00     0.210 HD
ENDBRANCH  16  20
BRANCH  18  22
HETATM   22  O   UNK N   1      34.775  13.155  20.374  0.00  0.00    -0.391 OA
HETATM   23  H   UNK N   1      34.081  13.833  20.407  0.00  0.00     0.210 HD
ENDBRANCH  18  22
ENDBRANCH  11  12
BRANCH   2  24
HETATM   24  C   UNK N   1      36.479  13.391   9.943  0.00  0.00    -0.014 C 
HETATM   25  C   UNK N   1      37.971  13.668   9.786  0.00  0.00     0.010 C 
BRANCH  24  26
HETATM   26  C   UNK N   1      35.623  14.484   9.296  0.00  0.00     0.005 C 
BRANCH  26  27
HETATM   27  C   UNK N   1      34.787  15.275  10.295  0.00  0.00     0.001 C 
BRANCH  27  28
HETATM   28  C   UNK N   1      34.782  16.761   9.943  0.00  0.00     0.004 C 
BRANCH  28  29
HETATM   29  C   UNK N   1      34.225  17.027   8.546  0.00  0.00    -0.023 C 
HETATM   30  C   UNK N   1      32.721  16.817   8.516  0.00  0.00     0.009 C 
HETATM   31  C   UNK N   1      34.515  18.457   8.149  0.00  0.00     0.009 C 
ENDBRANCH  28  29
ENDBRANCH  27  28
ENDBRANCH  26  27
ENDBRANCH  24  26
ENDBRANCH   2  24
TORSDOF 8
ENDMDL
MODEL 8
REMARK VINA RESULT:      -7.1      8.828     13.847
REMARK  8 active torsions:
REMARK  status: ('A' for Active; 'I' for Inactive)
REMARK    1  A    between atoms: C_26  and  O_1 
REMARK    2  A    between atoms: C_27  and  O_2 
REMARK    3  A    between atoms: C_4  and  C_9 
REMARK    4  A    between atoms: C_9  and  C_14 
REMARK    5  A    between atoms: C_14  and  C_17 
REMARK    6  A    between atoms: C_16  and  C_19 
REMARK    7  A    between atoms: C_17  and  C_18 
REMARK    8  A    between atoms: C_18  and  C_20 
ROOT
HETATM    1  C   UNK N   1      34.541  14.667   9.124  0.00  0.00    -0.033 C 
HETATM    2  C   UNK N   1      34.132  16.101   9.495  0.00  0.00    -0.002 C 
HETATM    3  C   UNK N   1      35.110  14.232  10.471  0.00  0.00     0.023 C 
HETATM    4  C   UNK N   1      35.381  16.627  10.224  0.00  0.00     0.006 C 
HETATM    5  C   UNK N   1      36.070  15.373  10.809  0.00  0.00     0.010 C 
HETATM    6  C   UNK N   1      33.424  13.699   8.716  0.00  0.00     0.010 C 
HETATM    7  C   UNK N   1      35.618  12.806  10.446  0.00  0.00    -0.075 C 
HETATM    8  C   UNK N   1      35.621  14.662   8.020  0.00  0.00     0.016 C 
HETATM    9  C   UNK N   1      33.891  12.213   8.737  0.00  0.00     0.005 C 
HETATM   10  C   UNK N   1      35.348  11.988   9.212  0.00  0.00     0.034 C 
HETATM   11  C   UNK N   1      36.163  12.227  11.525  0.00  0.00     0.004 C 
ENDROOT
BRANCH  11  12
HETATM   12  C   UNK N   1      36.332  12.979  12.783  0.00  0.00     0.008 C 
HETATM   13  C   UNK N   1      35.911  12.561  13.981  0.00  0.00    -0.048 C 
HETATM   14  C   UNK N   1      35.239  11.220  14.129  0.00  0.00     0.071 C 
HETATM   15  C   UNK N   1      36.164  13.392  15.197  0.00  0.00    -0.033 C 
HETATM   16  C   UNK N   1      35.575  10.607  15.479  0.00  0.00     0.125 C 
HETATM   17  C   UNK N   1      35.068  11.541  16.567  0.00  0.00     0.068 C 
HETATM   18  C   UNK N   1      35.822  12.875  16.574  0.00  0.00     0.153 C 
HETATM   19  C   UNK N   1      36.812  14.562  15.098  0.00  0.00     0.022 C 
BRANCH  16  20
HETATM   20  O   UNK N   1      34.939   9.372  15.594  0.00  0.00    -0.395 OA
HETATM   21  H   UNK N   1      34.345   9.026  14.910  0.00  0.00     0.210 HD
ENDBRANCH  16  20
BRANCH  18  22
HETATM   22  O   UNK N   1      35.062  13.813  17.274  0.00  0.00    -0.391 OA
HETATM   23  H   UNK N   1      34.316  13.965  17.876  0.00  0.00     0.210 HD
ENDBRANCH  18  22
ENDBRANCH  11  12
BRANCH   2  24
HETATM   24  C   UNK N   1      33.575  16.994   8.370  0.00  0.00    -0.014 C 
HETATM   25  C   UNK N   1      34.311  18.313   8.151  0.00  0.00     0.010 C 
BRANCH  24  26
HETATM   26  C   UNK N   1      32.060  17.195   8.473  0.00  0.00     0.005 C 
BRANCH  26  27
HETATM   27  C   UNK N   1      31.334  17.044   7.142  0.00  0.00     0.001 C 
BRANCH  27  28
HETATM   28  C   UNK N   1      31.783  15.777   6.417  0.00  0.00     0.004 C 
BRANCH  28  29
HETATM   29  C   UNK N   1      32.350  16.071   5.030  0.00  0.00    -0.023 C 
HETATM   30  C   UNK N   1      32.337  17.563   4.746  0.00  0.00     0.009 C 
HETATM   31  C   UNK N   1      33.781  15.585   4.955  0.00  0.00     0.009 C 
ENDBRANCH  28  29
ENDBRANCH  27  28
ENDBRANCH  26  27
ENDBRANCH  24  26
ENDBRANCH   2  24
TORSDOF 8
ENDMDL
MODEL 9
REMARK VINA RESULT:      -7.0      6.063     10.094
REMARK  8 active torsions:
REMARK  status: ('A' for Active; 'I' for Inactive)
REMARK    1  A    between atoms: C_26  and  O_1 
REMARK    2  A    between atoms: C_27  and  O_2 
REMARK    3  A    between atoms: C_4  and  C_9 
REMARK    4  A    between atoms: C_9  and  C_14 
REMARK    5  A    between atoms: C_14  and  C_17 
REMARK    6  A    between atoms: C_16  and  C_19 
REMARK    7  A    between atoms: C_17  and  C_18 
REMARK    8  A    between atoms: C_18  and  C_20 
ROOT
HETATM    1  C   UNK N   1      34.970  13.936   9.892  0.00  0.00    -0.033 C 
HETATM    2  C   UNK N   1      34.246  12.685   9.371  0.00  0.00    -0.002 C 
HETATM    3  C   UNK N   1      34.296  14.979   9.007  0.00  0.00     0.023 C 
HETATM    4  C   UNK N   1      34.342  12.854   7.844  0.00  0.00     0.006 C 
HETATM    5  C   UNK N   1      34.451  14.378   7.610  0.00  0.00     0.010 C 
HETATM    6  C   UNK N   1      34.755  14.312  11.363  0.00  0.00     0.010 C 
HETATM    7  C   UNK N   1      34.803  16.379   9.282  0.00  0.00    -0.075 C 
HETATM    8  C   UNK N   1      36.489  13.855   9.625  0.00  0.00     0.016 C 
HETATM    9  C   UNK N   1      35.209  15.770  11.674  0.00  0.00     0.005 C 
HETATM   10  C   UNK N   1      35.728  16.571  10.454  0.00  0.00     0.034 C 
HETATM   11  C   UNK N   1      34.347  17.445   8.610  0.00  0.00     0.004 C 
ENDROOT
BRANCH  11  12
HETATM   12  C   UNK N   1      33.352  17.291   7.532  0.00  0.00     0.008 C 
HETATM   13  C   UNK N   1      32.028  17.369   7.702  0.00  0.00    -0.048 C 
HETATM   14  C   UNK N   1      31.450  17.669   9.062  0.00  0.00     0.071 C 
HETATM   15  C   UNK N   1      31.111  17.229   6.530  0.00  0.00    -0.033 C 
HETATM   16  C   UNK N   1      30.172  18.481   8.924  0.00  0.00     0.125 C 
HETATM   17  C   UNK N   1      29.169  17.664   8.125  0.00  0.00     0.068 C 
HETATM   18  C   UNK N   1      29.625  17.453   6.678  0.00  0.00     0.153 C 
HETATM   19  C   UNK N   1      31.607  17.020   5.302  0.00  0.00     0.022 C 
BRANCH  16  20
HETATM   20  O   UNK N   1      29.654  18.741  10.192  0.00  0.00    -0.395 OA
HETATM   21  H   UNK N   1      28.710  18.650  10.397  0.00  0.00     0.210 HD
ENDBRANCH  16  20
BRANCH  18  22
HETATM   22  O   UNK N   1      28.913  16.382   6.137  0.00  0.00    -0.391 OA
HETATM   23  H   UNK N   1      28.088  16.085   5.722  0.00  0.00     0.210 HD
ENDBRANCH  18  22
ENDBRANCH  11  12
BRANCH   2  24
HETATM   24  C   UNK N   1      34.692  11.321   9.932  0.00  0.00    -0.014 C 
HETATM   25  C   UNK N   1      35.407  10.404   8.944  0.00  0.00     0.010 C 
BRANCH  24  26
HETATM   26  C   UNK N   1      33.567  10.595  10.675  0.00  0.00     0.005 C 
BRANCH  26  27
HETATM   27  C   UNK N   1      34.013   9.963  11.988  0.00  0.00     0.001 C 
BRANCH  27  28
HETATM   28  C   UNK N   1      35.020  10.857  12.708  0.00  0.00     0.004 C 
BRANCH  28  29
HETATM   29  C   UNK N   1      34.385  11.648  13.849  0.00  0.00    -0.023 C 
HETATM   30  C   UNK N   1      33.561  10.738  14.744  0.00  0.00     0.009 C 
HETATM   31  C   UNK N   1      35.470  12.286  14.689  0.00  0.00     0.009 C 
ENDBRANCH  28  29
ENDBRANCH  27  28
ENDBRANCH  26  27
ENDBRANCH  24  26
ENDBRANCH   2  24
TORSDOF 8
ENDMDL
