MODEL 1
REMARK VINA RESULT:      -6.2      0.000      0.000
REMARK  2 active torsions:
REMARK  status: ('A' for Active; 'I' for Inactive)
REMARK    1  A    between atoms: C_4  and  C_6 
REMARK    2  A    between atoms: C_4  and  C_7 
ROOT
HETATM    1  O   UNK N   1      38.125  11.486  14.691  0.00  0.00    -0.272 OA
HETATM    2  O   UNK N   1      37.065  13.259  10.750  0.00  0.00    -0.273 OA
HETATM    3  N   UNK N   1      37.599  12.348  12.711  0.00  0.00    -0.297 N 
HETATM    4  C   UNK N   1      35.924  12.411  14.608  0.00  0.00     0.068 C 
HETATM    5  C   UNK N   1      34.971  12.965  13.530  0.00  0.00     0.033 C 
HETATM    6  C   UNK N   1      35.668  13.878  12.539  0.00  0.00     0.105 C 
HETATM    7  C   UNK N   1      37.293  12.057  14.004  0.00  0.00     0.237 C 
HETATM    8  C   UNK N   1      36.811  13.128  11.934  0.00  0.00     0.224 C 
HETATM    9  H   UNK N   1      38.425  11.978  12.326  0.00  0.00     0.171 HD
ENDROOT
BRANCH   4  10
HETATM   10  C   UNK N   1      35.215  11.119  15.076  0.00  0.00     0.020 C 
HETATM   11  C   UNK N   1      33.810  10.900  14.529  0.00  0.00     0.006 C 
ENDBRANCH   4  10
BRANCH   4  12
HETATM   12  C   UNK N   1      36.094  13.439  15.729  0.00  0.00    -0.040 A 
HETATM   13  C   UNK N   1      35.331  13.369  16.911  0.00  0.00     0.008 A 
HETATM   14  C   UNK N   1      35.497  14.313  17.928  0.00  0.00     0.001 A 
HETATM   15  C   UNK N   1      36.418  15.351  17.773  0.00  0.00     0.000 A 
HETATM   16  C   UNK N   1      37.178  15.440  16.605  0.00  0.00     0.001 A 
HETATM   17  C   UNK N   1      37.023  14.487  15.593  0.00  0.00     0.008 A 
ENDBRANCH   4  12
TORSDOF 2
ENDMDL
MODEL 2
REMARK VINA RESULT:      -6.1      7.339      9.457
REMARK  2 active torsions:
REMARK  status: ('A' for Active; 'I' for Inactive)
REMARK    1  A    between atoms: C_4  and  C_6 
REMARK    2  A    between atoms: C_4  and  C_7 
ROOT
HETATM    1  O   UNK N   1      32.034  14.964   9.428  0.00  0.00    -0.272 OA
HETATM    2  O   UNK N   1      35.619  17.564   9.867  0.00  0.00    -0.273 OA
HETATM    3  N   UNK N   1      33.839  16.241   9.647  0.00  0.00    -0.297 N 
HETATM    4  C   UNK N   1      32.307  16.540   7.654  0.00  0.00     0.068 C 
HETATM    5  C   UNK N   1      33.392  17.527   7.176  0.00  0.00     0.033 C 
HETATM    6  C   UNK N   1      34.018  18.312   8.312  0.00  0.00     0.105 C 
HETATM    7  C   UNK N   1      32.717  15.868   8.974  0.00  0.00     0.237 C 
HETATM    8  C   UNK N   1      34.557  17.341   9.313  0.00  0.00     0.224 C 
HETATM    9  H   UNK N   1      34.141  15.692  10.405  0.00  0.00     0.171 HD
ENDROOT
BRANCH   4  10
HETATM   10  C   UNK N   1      32.268  15.485   6.525  0.00  0.00     0.020 C 
HETATM   11  C   UNK N   1      33.130  15.786   5.306  0.00  0.00     0.006 C 
ENDBRANCH   4  10
BRANCH   4  12
HETATM   12  C   UNK N   1      30.977  17.277   7.830  0.00  0.00    -0.040 A 
HETATM   13  C   UNK N   1      30.696  18.018   8.994  0.00  0.00     0.008 A 
HETATM   14  C   UNK N   1      29.478  18.687   9.141  0.00  0.00     0.001 A 
HETATM   15  C   UNK N   1      28.515  18.613   8.133  0.00  0.00     0.000 A 
HETATM   16  C   UNK N   1      28.774  17.878   6.975  0.00  0.00     0.001 A 
HETATM   17  C   UNK N   1      29.999  17.219   6.821  0.00  0.00     0.008 A 
ENDBRANCH   4  12
TORSDOF 2
ENDMDL
MODEL 3
REMARK VINA RESULT:      -5.8      2.053      3.019
REMARK  2 active torsions:
REMARK  status: ('A' for Active; 'I' for Inactive)
REMARK    1  A    between atoms: C_4  and  C_6 
REMARK    2  A    between atoms: C_4  and  C_7 
ROOT
HETATM    1  O   UNK N   1      37.690  11.896  14.706  0.00  0.00    -0.272 OA
HETATM    2  O   UNK N   1      34.193  11.090  12.074  0.00  0.00    -0.273 OA
HETATM    3  N   UNK N   1      35.959  11.481  13.375  0.00  0.00    -0.297 N 
HETATM    4  C   UNK N   1      35.983  10.585  15.742  0.00  0.00     0.068 C 
HETATM    5  C   UNK N   1      34.692   9.863  15.307  0.00  0.00     0.033 C 
HETATM    6  C   UNK N   1      33.839  10.694  14.367  0.00  0.00     0.105 C 
HETATM    7  C   UNK N   1      36.597  11.371  14.571  0.00  0.00     0.237 C 
HETATM    8  C   UNK N   1      34.678  11.083  13.192  0.00  0.00     0.224 C 
HETATM    9  H   UNK N   1      36.448  11.867  12.613  0.00  0.00     0.171 HD
ENDROOT
BRANCH   4  10
HETATM   10  C   UNK N   1      36.922   9.422  16.134  0.00  0.00     0.020 C 
HETATM   11  C   UNK N   1      36.565   8.058  15.558  0.00  0.00     0.006 C 
ENDBRANCH   4  10
BRANCH   4  12
HETATM   12  C   UNK N   1      35.682  11.529  16.908  0.00  0.00    -0.040 A 
HETATM   13  C   UNK N   1      35.425  12.898  16.698  0.00  0.00     0.008 A 
HETATM   14  C   UNK N   1      35.149  13.748  17.772  0.00  0.00     0.001 A 
HETATM   15  C   UNK N   1      35.141  13.247  19.075  0.00  0.00     0.000 A 
HETATM   16  C   UNK N   1      35.400  11.894  19.303  0.00  0.00     0.001 A 
HETATM   17  C   UNK N   1      35.662  11.039  18.227  0.00  0.00     0.008 A 
ENDBRANCH   4  12
TORSDOF 2
ENDMDL
MODEL 4
REMARK VINA RESULT:      -5.8      2.359      3.512
REMARK  2 active torsions:
REMARK  status: ('A' for Active; 'I' for Inactive)
REMARK    1  A    between atoms: C_4  and  C_6 
REMARK    2  A    between atoms: C_4  and  C_7 
ROOT
HETATM    1  O   UNK N   1      33.508  10.829  14.841  0.00  0.00    -0.272 OA
HETATM    2  O   UNK N   1      37.046   8.403  13.658  0.00  0.00    -0.273 OA
HETATM    3  N   UNK N   1      35.265   9.616  14.226  0.00  0.00    -0.297 N 
HETATM    4  C   UNK N   1      35.596  11.938  15.177  0.00  0.00     0.068 C 
HETATM    5  C   UNK N   1      37.074  11.702  14.807  0.00  0.00     0.033 C 
HETATM    6  C   UNK N   1      37.513  10.265  15.019  0.00  0.00     0.105 C 
HETATM    7  C   UNK N   1      34.721  10.752  14.741  0.00  0.00     0.237 C 
HETATM    8  C   UNK N   1      36.598   9.375  14.239  0.00  0.00     0.224 C 
HETATM    9  H   UNK N   1      34.667   8.944  13.828  0.00  0.00     0.171 HD
ENDROOT
BRANCH   4  10
HETATM   10  C   UNK N   1      35.222  13.189  14.349  0.00  0.00     0.020 C 
HETATM   11  C   UNK N   1      36.353  13.812  13.541  0.00  0.00     0.006 C 
ENDBRANCH   4  10
BRANCH   4  12
HETATM   12  C   UNK N   1      35.468  12.160  16.686  0.00  0.00    -0.040 A 
HETATM   13  C   UNK N   1      35.510  11.084  17.592  0.00  0.00     0.008 A 
HETATM   14  C   UNK N   1      35.393  11.300  18.968  0.00  0.00     0.001 A 
HETATM   15  C   UNK N   1      35.217  12.596  19.458  0.00  0.00     0.000 A 
HETATM   16  C   UNK N   1      35.167  13.674  18.573  0.00  0.00     0.001 A 
HETATM   17  C   UNK N   1      35.298  13.460  17.197  0.00  0.00     0.008 A 
ENDBRANCH   4  12
TORSDOF 2
ENDMDL
MODEL 5
REMARK VINA RESULT:      -5.7      7.309     10.029
REMARK  2 active torsions:
REMARK  status: ('A' for Active; 'I' for Inactive)
REMARK    1  A    between atoms: C_4  and  C_6 
REMARK    2  A    between atoms: C_4  and  C_7 
ROOT
HETATM    1  O   UNK N   1      33.922  18.740   8.454  0.00  0.00    -0.272 OA
HETATM    2  O   UNK N   1      34.285  14.732  10.352  0.00  0.00    -0.273 OA
HETATM    3  N   UNK N   1      34.106  16.750   9.425  0.00  0.00    -0.297 N 
HETATM    4  C   UNK N   1      32.008  17.346   8.141  0.00  0.00     0.068 C 
HETATM    5  C   UNK N   1      31.490  15.999   8.684  0.00  0.00     0.033 C 
HETATM    6  C   UNK N   1      32.570  14.936   8.754  0.00  0.00     0.105 C 
HETATM    7  C   UNK N   1      33.415  17.654   8.681  0.00  0.00     0.237 C 
HETATM    8  C   UNK N   1      33.699  15.467   9.578  0.00  0.00     0.224 C 
HETATM    9  H   UNK N   1      34.936  17.038   9.869  0.00  0.00     0.171 HD
ENDROOT
BRANCH   4  10
HETATM   10  C   UNK N   1      30.999  18.368   8.712  0.00  0.00     0.020 C 
HETATM   11  C   UNK N   1      29.773  17.778   9.397  0.00  0.00     0.006 C 
ENDBRANCH   4  10
BRANCH   4  12
HETATM   12  C   UNK N   1      32.027  17.316   6.611  0.00  0.00    -0.040 A 
HETATM   13  C   UNK N   1      33.235  17.376   5.890  0.00  0.00     0.008 A 
HETATM   14  C   UNK N   1      33.238  17.346   4.493  0.00  0.00     0.001 A 
HETATM   15  C   UNK N   1      32.032  17.270   3.794  0.00  0.00     0.000 A 
HETATM   16  C   UNK N   1      30.824  17.216   4.492  0.00  0.00     0.001 A 
HETATM   17  C   UNK N   1      30.821  17.231   5.891  0.00  0.00     0.008 A 
ENDBRANCH   4  12
TORSDOF 2
ENDMDL
MODEL 6
REMARK VINA RESULT:      -5.6     23.022     24.849
REMARK  2 active torsions:
REMARK  status: ('A' for Active; 'I' for Inactive)
REMARK    1  A    between atoms: C_4  and  C_6 
REMARK    2  A    between atoms: C_4  and  C_7 
ROOT
HETATM    1  O   UNK N   1      26.220  24.052  -3.198  0.00  0.00    -0.272 OA
HETATM    2  O   UNK N   1      25.146  23.961  -7.515  0.00  0.00    -0.273 OA
HETATM    3  N   UNK N   1      25.659  24.005  -5.348  0.00  0.00    -0.297 N 
HETATM    4  C   UNK N   1      26.871  26.013  -4.397  0.00  0.00     0.068 C 
HETATM    5  C   UNK N   1      26.625  26.617  -5.794  0.00  0.00     0.033 C 
HETATM    6  C   UNK N   1      26.731  25.591  -6.908  0.00  0.00     0.105 C 
HETATM    7  C   UNK N   1      26.232  24.620  -4.278  0.00  0.00     0.237 C 
HETATM    8  C   UNK N   1      25.778  24.478  -6.611  0.00  0.00     0.224 C 
HETATM    9  H   UNK N   1      25.137  23.184  -5.197  0.00  0.00     0.171 HD
ENDROOT
BRANCH   4  10
HETATM   10  C   UNK N   1      26.143  26.998  -3.454  0.00  0.00     0.020 C 
HETATM   11  C   UNK N   1      25.589  28.256  -4.110  0.00  0.00     0.006 C 
ENDBRANCH   4  10
BRANCH   4  12
HETATM   12  C   UNK N   1      28.375  25.926  -4.126  0.00  0.00    -0.040 A 
HETATM   13  C   UNK N   1      29.045  24.689  -4.094  0.00  0.00     0.008 A 
HETATM   14  C   UNK N   1      30.419  24.624  -3.847  0.00  0.00     0.001 A 
HETATM   15  C   UNK N   1      31.142  25.796  -3.613  0.00  0.00     0.000 A 
HETATM   16  C   UNK N   1      30.492  27.031  -3.634  0.00  0.00     0.001 A 
HETATM   17  C   UNK N   1      29.120  27.097  -3.896  0.00  0.00     0.008 A 
ENDBRANCH   4  12
TORSDOF 2
ENDMDL
MODEL 7
REMARK VINA RESULT:      -5.6      9.373     10.609
REMARK  2 active torsions:
REMARK  status: ('A' for Active; 'I' for Inactive)
REMARK    1  A    between atoms: C_4  and  C_6 
REMARK    2  A    between atoms: C_4  and  C_7 
ROOT
HETATM    1  O   UNK N   1      31.283  14.281   6.539  0.00  0.00    -0.272 OA
HETATM    2  O   UNK N   1      35.410  15.826   5.922  0.00  0.00    -0.273 OA
HETATM    3  N   UNK N   1      33.349  15.033   6.214  0.00  0.00    -0.297 N 
HETATM    4  C   UNK N   1      31.362  16.484   5.621  0.00  0.00     0.068 C 
HETATM    5  C   UNK N   1      32.434  17.430   5.042  0.00  0.00     0.033 C 
HETATM    6  C   UNK N   1      33.709  17.451   5.864  0.00  0.00     0.105 C 
HETATM    7  C   UNK N   1      31.999  15.194   6.162  0.00  0.00     0.237 C 
HETATM    8  C   UNK N   1      34.214  16.049   5.983  0.00  0.00     0.224 C 
HETATM    9  H   UNK N   1      33.711  14.144   6.430  0.00  0.00     0.171 HD
ENDROOT
BRANCH   4  10
HETATM   10  C   UNK N   1      30.484  16.153   4.393  0.00  0.00     0.020 C 
HETATM   11  C   UNK N   1      31.095  16.473   3.035  0.00  0.00     0.006 C 
ENDBRANCH   4  10
BRANCH   4  12
HETATM   12  C   UNK N   1      30.590  17.196   6.734  0.00  0.00    -0.040 A 
HETATM   13  C   UNK N   1      31.183  17.470   7.981  0.00  0.00     0.008 A 
HETATM   14  C   UNK N   1      30.467  18.122   8.988  0.00  0.00     0.001 A 
HETATM   15  C   UNK N   1      29.140  18.497   8.770  0.00  0.00     0.000 A 
HETATM   16  C   UNK N   1      28.533  18.227   7.542  0.00  0.00     0.001 A 
HETATM   17  C   UNK N   1      29.254  17.587   6.528  0.00  0.00     0.008 A 
ENDBRANCH   4  12
TORSDOF 2
ENDMDL
MODEL 8
REMARK VINA RESULT:      -5.5     21.797     24.123
REMARK  2 active torsions:
REMARK  status: ('A' for Active; 'I' for Inactive)
REMARK    1  A    between atoms: C_4  and  C_6 
REMARK    2  A    between atoms: C_4  and  C_7 
ROOT
HETATM    1  O   UNK N   1      26.312  23.814  -2.932  0.00  0.00    -0.272 OA
HETATM    2  O   UNK N   1      30.575  23.180  -1.826  0.00  0.00    -0.273 OA
HETATM    3  N   UNK N   1      28.436  23.471  -2.377  0.00  0.00    -0.297 N 
HETATM    4  C   UNK N   1      27.859  24.507  -4.614  0.00  0.00     0.068 C 
HETATM    5  C   UNK N   1      29.373  24.379  -4.879  0.00  0.00     0.033 C 
HETATM    6  C   UNK N   1      30.213  24.633  -3.640  0.00  0.00     0.105 C 
HETATM    7  C   UNK N   1      27.487  23.912  -3.246  0.00  0.00     0.237 C 
HETATM    8  C   UNK N   1      29.758  23.698  -2.566  0.00  0.00     0.224 C 
HETATM    9  H   UNK N   1      28.151  22.969  -1.581  0.00  0.00     0.171 HD
ENDROOT
BRANCH   4  10
HETATM   10  C   UNK N   1      27.231  23.653  -5.739  0.00  0.00     0.020 C 
HETATM   11  C   UNK N   1      28.213  23.025  -6.720  0.00  0.00     0.006 C 
ENDBRANCH   4  10
BRANCH   4  12
HETATM   12  C   UNK N   1      27.444  25.979  -4.678  0.00  0.00    -0.040 A 
HETATM   13  C   UNK N   1      26.847  26.622  -3.577  0.00  0.00     0.008 A 
HETATM   14  C   UNK N   1      26.473  27.967  -3.648  0.00  0.00     0.001 A 
HETATM   15  C   UNK N   1      26.677  28.686  -4.827  0.00  0.00     0.000 A 
HETATM   16  C   UNK N   1      27.262  28.063  -5.931  0.00  0.00     0.001 A 
HETATM   17  C   UNK N   1      27.649  26.720  -5.856  0.00  0.00     0.008 A 
ENDBRANCH   4  12
TORSDOF 2
ENDMDL
MODEL 9
REMARK VINA RESULT:      -5.4     10.531     12.535
REMARK  2 active torsions:
REMARK  status: ('A' for Active; 'I' for Inactive)
REMARK    1  A    between atoms: C_4  and  C_6 
REMARK    2  A    between atoms: C_4  and  C_7 
ROOT
HETATM    1  O   UNK N   1      27.609  17.798   9.264  0.00  0.00    -0.272 OA
HETATM    2  O   UNK N   1      31.872  16.659   8.692  0.00  0.00    -0.273 OA
HETATM    3  N   UNK N   1      29.735  17.209   8.995  0.00  0.00    -0.297 N 
HETATM    4  C   UNK N   1      28.164  17.231   7.011  0.00  0.00     0.068 C 
HETATM    5  C   UNK N   1      29.362  16.613   6.264  0.00  0.00     0.033 C 
HETATM    6  C   UNK N   1      30.696  17.173   6.720  0.00  0.00     0.105 C 
HETATM    7  C   UNK N   1      28.489  17.437   8.500  0.00  0.00     0.237 C 
HETATM    8  C   UNK N   1      30.805  16.978   8.199  0.00  0.00     0.224 C 
HETATM    9  H   UNK N   1      29.864  17.213   9.971  0.00  0.00     0.171 HD
ENDROOT
BRANCH   4  10
HETATM   10  C   UNK N   1      27.064  16.155   6.866  0.00  0.00     0.020 C 
HETATM   11  C   UNK N   1      27.317  15.087   5.809  0.00  0.00     0.006 C 
ENDBRANCH   4  10
BRANCH   4  12
HETATM   12  C   UNK N   1      27.782  18.566   6.367  0.00  0.00    -0.040 A 
HETATM   13  C   UNK N   1      27.796  19.767   7.101  0.00  0.00     0.008 A 
HETATM   14  C   UNK N   1      27.447  20.979   6.500  0.00  0.00     0.001 A 
HETATM   15  C   UNK N   1      27.064  21.008   5.158  0.00  0.00     0.000 A 
HETATM   16  C   UNK N   1      27.038  19.825   4.416  0.00  0.00     0.001 A 
HETATM   17  C   UNK N   1      27.401  18.614   5.013  0.00  0.00     0.008 A 
ENDBRANCH   4  12
TORSDOF 2
ENDMDL
