MODEL 1
REMARK VINA RESULT:      -5.8      0.000      0.000
REMARK  4 active torsions:
REMARK  status: ('A' for Active; 'I' for Inactive)
REMARK    1  A    between atoms: N_3  and  C_9 
REMARK    2  A    between atoms: N_5  and  C_14 
REMARK    3  A    between atoms: N_7  and  C_10 
REMARK    4  A    between atoms: N_8  and  C_13 
ROOT
HETATM    1  N   UNK N   1      20.155  18.789   1.242  0.00  0.00    -0.328 N 
ATOM      2  HN  UNK N   1      19.789  18.532   0.326  1.00  0.00     0.169 HD
HETATM    3  C   UNK N   1      20.663  18.199   3.505  0.00  0.00     0.091 A 
HETATM    4  C   UNK N   1      20.161  17.861   2.239  0.00  0.00     0.129 A 
HETATM    5  C   UNK N   1      21.148  19.497   3.716  0.00  0.00     0.038 A 
HETATM    6  C   UNK N   1      21.130  20.427   2.681  0.00  0.00     0.050 A 
HETATM    7  C   UNK N   1      20.627  20.051   1.438  0.00  0.00     0.100 A 
ENDROOT
BRANCH   3   8
HETATM    8  N   UNK N   1      20.684  17.248   4.556  0.00  0.00    -0.297 N 
HETATM    9  N   UNK N   1      21.038  17.591   5.701  0.00  0.00    -0.300 N 
ATOM     10  HN  UNK N   1      21.323  18.557   5.861  1.00  0.00     0.187 HD
ATOM     11  HN  UNK N   1      20.407  16.283   4.375  1.00  0.00     0.187 HD
BRANCH   9  12
HETATM   12  C   UNK N   1      21.058  16.685   6.784  0.00  0.00     0.048 A 
HETATM   13  C   UNK N   1      21.930  15.586   6.807  0.00  0.00     0.031 A 
HETATM   14  C   UNK N   1      21.911  14.700   7.888  0.00  0.00     0.002 A 
HETATM   15  C   UNK N   1      21.021  14.908   8.947  0.00  0.00     0.000 A 
HETATM   16  C   UNK N   1      20.152  16.003   8.926  0.00  0.00     0.002 A 
HETATM   17  C   UNK N   1      20.172  16.889   7.847  0.00  0.00     0.031 A 
ENDBRANCH   9  12
ENDBRANCH   3   8
BRANCH   4  18
HETATM   18  N   UNK N   1      19.662  16.565   1.989  0.00  0.00    -0.384 N 
HETATM   19  H   UNK N   1      20.172  15.777   2.284  0.00  0.00     0.157 HD
HETATM   20  H   UNK N   1      18.805  16.450   1.519  0.00  0.00     0.157 HD
ENDBRANCH   4  18
BRANCH   7  21
HETATM   21  N   UNK N   1      20.610  20.981   0.381  0.00  0.00    -0.385 N 
HETATM   22  H   UNK N   1      19.754  21.342   0.056  0.00  0.00     0.157 HD
HETATM   23  H   UNK N   1      21.455  21.271  -0.033  0.00  0.00     0.157 HD
ENDBRANCH   7  21
TORSDOF 4
ENDMDL
MODEL 2
REMARK VINA RESULT:      -5.8     16.585     18.821
REMARK  4 active torsions:
REMARK  status: ('A' for Active; 'I' for Inactive)
REMARK    1  A    between atoms: N_3  and  C_9 
REMARK    2  A    between atoms: N_5  and  C_14 
REMARK    3  A    between atoms: N_7  and  C_10 
REMARK    4  A    between atoms: N_8  and  C_13 
ROOT
HETATM    1  N   UNK N   1      36.275  15.285  12.474  0.00  0.00    -0.328 N 
ATOM      2  HN  UNK N   1      36.724  16.186  12.314  1.00  0.00     0.169 HD
HETATM    3  C   UNK N   1      35.802  13.438  13.920  0.00  0.00     0.091 A 
HETATM    4  C   UNK N   1      36.416  14.678  13.685  0.00  0.00     0.129 A 
HETATM    5  C   UNK N   1      35.055  12.847  12.892  0.00  0.00     0.038 A 
HETATM    6  C   UNK N   1      34.928  13.486  11.664  0.00  0.00     0.050 A 
HETATM    7  C   UNK N   1      35.549  14.718  11.470  0.00  0.00     0.100 A 
ENDROOT
BRANCH   3   8
HETATM    8  N   UNK N   1      35.930  12.790  15.175  0.00  0.00    -0.297 N 
HETATM    9  N   UNK N   1      35.105  13.017  16.081  0.00  0.00    -0.300 N 
ATOM     10  HN  UNK N   1      34.351  13.681  15.908  1.00  0.00     0.187 HD
ATOM     11  HN  UNK N   1      36.698  12.138  15.335  1.00  0.00     0.187 HD
BRANCH   9  12
HETATM   12  C   UNK N   1      35.180  12.383  17.341  0.00  0.00     0.048 A 
HETATM   13  C   UNK N   1      35.241  10.986  17.457  0.00  0.00     0.031 A 
HETATM   14  C   UNK N   1      35.297  10.391  18.721  0.00  0.00     0.002 A 
HETATM   15  C   UNK N   1      35.291  11.188  19.870  0.00  0.00     0.000 A 
HETATM   16  C   UNK N   1      35.232  12.580  19.756  0.00  0.00     0.002 A 
HETATM   17  C   UNK N   1      35.177  13.174  18.494  0.00  0.00     0.031 A 
ENDBRANCH   9  12
ENDBRANCH   3   8
BRANCH   4  18
HETATM   18  N   UNK N   1      37.176  15.304  14.695  0.00  0.00    -0.384 N 
HETATM   19  H   UNK N   1      37.104  16.275  14.835  0.00  0.00     0.157 HD
HETATM   20  H   UNK N   1      37.780  14.768  15.259  0.00  0.00     0.157 HD
ENDBRANCH   4  18
BRANCH   7  21
HETATM   21  N   UNK N   1      35.422  15.378  10.234  0.00  0.00    -0.385 N 
HETATM   22  H   UNK N   1      34.700  15.126   9.613  0.00  0.00     0.157 HD
HETATM   23  H   UNK N   1      36.055  16.091   9.989  0.00  0.00     0.157 HD
ENDBRANCH   7  21
TORSDOF 4
ENDMDL
MODEL 3
REMARK VINA RESULT:      -5.7      7.127      9.641
REMARK  4 active torsions:
REMARK  status: ('A' for Active; 'I' for Inactive)
REMARK    1  A    between atoms: N_3  and  C_9 
REMARK    2  A    between atoms: N_5  and  C_14 
REMARK    3  A    between atoms: N_7  and  C_10 
REMARK    4  A    between atoms: N_8  and  C_13 
ROOT
HETATM    1  N   UNK N   1      29.831  17.694   9.052  0.00  0.00    -0.328 N 
ATOM      2  HN  UNK N   1      29.868  17.818  10.064  1.00  0.00     0.169 HD
HETATM    3  C   UNK N   1      28.626  17.861   6.992  0.00  0.00     0.091 A 
HETATM    4  C   UNK N   1      28.692  18.027   8.384  0.00  0.00     0.129 A 
HETATM    5  C   UNK N   1      29.742  17.348   6.317  0.00  0.00     0.038 A 
HETATM    6  C   UNK N   1      30.892  17.013   7.023  0.00  0.00     0.050 A 
HETATM    7  C   UNK N   1      30.920  17.196   8.405  0.00  0.00     0.100 A 
ENDROOT
BRANCH   3   8
HETATM    8  N   UNK N   1      27.453  18.207   6.274  0.00  0.00    -0.297 N 
HETATM    9  N   UNK N   1      27.517  19.016   5.328  0.00  0.00    -0.300 N 
ATOM     10  HN  UNK N   1      28.418  19.429   5.091  1.00  0.00     0.187 HD
ATOM     11  HN  UNK N   1      26.557  17.794   6.532  1.00  0.00     0.187 HD
BRANCH   9  12
HETATM   12  C   UNK N   1      26.380  19.378   4.571  0.00  0.00     0.048 A 
HETATM   13  C   UNK N   1      25.116  18.831   4.838  0.00  0.00     0.031 A 
HETATM   14  C   UNK N   1      24.015  19.199   4.058  0.00  0.00     0.002 A 
HETATM   15  C   UNK N   1      24.175  20.112   3.010  0.00  0.00     0.000 A 
HETATM   16  C   UNK N   1      25.434  20.658   2.743  0.00  0.00     0.002 A 
HETATM   17  C   UNK N   1      26.533  20.291   3.523  0.00  0.00     0.031 A 
ENDBRANCH   9  12
ENDBRANCH   3   8
BRANCH   4  18
HETATM   18  N   UNK N   1      27.588  18.540   9.097  0.00  0.00    -0.384 N 
HETATM   19  H   UNK N   1      27.656  18.688  10.068  0.00  0.00     0.157 HD
HETATM   20  H   UNK N   1      26.751  18.749   8.624  0.00  0.00     0.157 HD
ENDBRANCH   4  18
BRANCH   7  21
HETATM   21  N   UNK N   1      32.081  16.867   9.129  0.00  0.00    -0.385 N 
HETATM   22  H   UNK N   1      32.178  15.971   9.524  0.00  0.00     0.157 HD
HETATM   23  H   UNK N   1      32.797  17.535   9.241  0.00  0.00     0.157 HD
ENDBRANCH   7  21
TORSDOF 4
ENDMDL
MODEL 4
REMARK VINA RESULT:      -5.5     16.060     18.111
REMARK  4 active torsions:
REMARK  status: ('A' for Active; 'I' for Inactive)
REMARK    1  A    between atoms: N_3  and  C_9 
REMARK    2  A    between atoms: N_5  and  C_14 
REMARK    3  A    between atoms: N_7  and  C_10 
REMARK    4  A    between atoms: N_8  and  C_13 
ROOT
HETATM    1  N   UNK N   1      34.832  13.532  10.942  0.00  0.00    -0.328 N 
ATOM      2  HN  UNK N   1      34.379  13.018  10.187  1.00  0.00     0.169 HD
HETATM    3  C   UNK N   1      35.620  13.621  13.200  0.00  0.00     0.091 A 
HETATM    4  C   UNK N   1      34.997  12.927  12.151  0.00  0.00     0.129 A 
HETATM    5  C   UNK N   1      36.058  14.933  12.977  0.00  0.00     0.038 A 
HETATM    6  C   UNK N   1      35.876  15.530  11.734  0.00  0.00     0.050 A 
HETATM    7  C   UNK N   1      35.256  14.806  10.717  0.00  0.00     0.100 A 
ENDROOT
BRANCH   3   8
HETATM    8  N   UNK N   1      35.808  13.009  14.465  0.00  0.00    -0.297 N 
HETATM    9  N   UNK N   1      35.071  13.316  15.422  0.00  0.00    -0.300 N 
ATOM     10  HN  UNK N   1      34.347  14.020  15.281  1.00  0.00     0.187 HD
ATOM     11  HN  UNK N   1      36.546  12.316  14.591  1.00  0.00     0.187 HD
BRANCH   9  12
HETATM   12  C   UNK N   1      35.207  12.721  16.696  0.00  0.00     0.048 A 
HETATM   13  C   UNK N   1      35.421  11.342  16.843  0.00  0.00     0.031 A 
HETATM   14  C   UNK N   1      35.533  10.784  18.120  0.00  0.00     0.002 A 
HETATM   15  C   UNK N   1      35.432  11.600  19.251  0.00  0.00     0.000 A 
HETATM   16  C   UNK N   1      35.221  12.974  19.107  0.00  0.00     0.002 A 
HETATM   17  C   UNK N   1      35.109  13.532  17.831  0.00  0.00     0.031 A 
ENDBRANCH   9  12
ENDBRANCH   3   8
BRANCH   4  18
HETATM   18  N   UNK N   1      34.543  11.604  12.337  0.00  0.00    -0.384 N 
HETATM   19  H   UNK N   1      35.171  10.852  12.254  0.00  0.00     0.157 HD
HETATM   20  H   UNK N   1      33.597  11.435  12.551  0.00  0.00     0.157 HD
ENDBRANCH   4  18
BRANCH   7  21
HETATM   21  N   UNK N   1      35.073  15.397   9.452  0.00  0.00    -0.385 N 
HETATM   22  H   UNK N   1      34.166  15.622   9.141  0.00  0.00     0.157 HD
HETATM   23  H   UNK N   1      35.851  15.584   8.879  0.00  0.00     0.157 HD
ENDBRANCH   7  21
TORSDOF 4
ENDMDL
MODEL 5
REMARK VINA RESULT:      -5.4      5.843      6.474
REMARK  4 active torsions:
REMARK  status: ('A' for Active; 'I' for Inactive)
REMARK    1  A    between atoms: N_3  and  C_9 
REMARK    2  A    between atoms: N_5  and  C_14 
REMARK    3  A    between atoms: N_7  and  C_10 
REMARK    4  A    between atoms: N_8  and  C_13 
ROOT
HETATM    1  N   UNK N   1      23.252  18.707   4.191  0.00  0.00    -0.328 N 
ATOM      2  HN  UNK N   1      22.345  18.246   4.262  1.00  0.00     0.169 HD
HETATM    3  C   UNK N   1      25.563  18.827   4.799  0.00  0.00     0.091 A 
HETATM    4  C   UNK N   1      24.309  18.203   4.886  0.00  0.00     0.129 A 
HETATM    5  C   UNK N   1      25.698  19.966   3.994  0.00  0.00     0.038 A 
HETATM    6  C   UNK N   1      24.603  20.462   3.296  0.00  0.00     0.050 A 
HETATM    7  C   UNK N   1      23.375  19.812   3.405  0.00  0.00     0.100 A 
ENDROOT
BRANCH   3   8
HETATM    8  N   UNK N   1      26.679  18.317   5.509  0.00  0.00    -0.297 N 
HETATM    9  N   UNK N   1      27.084  18.897   6.536  0.00  0.00    -0.300 N 
ATOM     10  HN  UNK N   1      26.609  19.745   6.843  1.00  0.00     0.187 HD
ATOM     11  HN  UNK N   1      27.150  17.474   5.181  1.00  0.00     0.187 HD
BRANCH   9  12
HETATM   12  C   UNK N   1      28.179  18.417   7.288  0.00  0.00     0.048 A 
HETATM   13  C   UNK N   1      29.206  17.667   6.693  0.00  0.00     0.031 A 
HETATM   14  C   UNK N   1      30.267  17.194   7.471  0.00  0.00     0.002 A 
HETATM   15  C   UNK N   1      30.304  17.466   8.842  0.00  0.00     0.000 A 
HETATM   16  C   UNK N   1      29.283  18.214   9.436  0.00  0.00     0.002 A 
HETATM   17  C   UNK N   1      28.224  18.687   8.659  0.00  0.00     0.031 A 
ENDBRANCH   9  12
ENDBRANCH   3   8
BRANCH   4  18
HETATM   18  N   UNK N   1      24.134  17.055   5.688  0.00  0.00    -0.384 N 
HETATM   19  H   UNK N   1      24.379  17.078   6.640  0.00  0.00     0.157 HD
HETATM   20  H   UNK N   1      23.767  16.231   5.293  0.00  0.00     0.157 HD
ENDBRANCH   4  18
BRANCH   7  21
HETATM   21  N   UNK N   1      22.261  20.301   2.698  0.00  0.00    -0.385 N 
HETATM   22  H   UNK N   1      22.204  21.256   2.467  0.00  0.00     0.157 HD
HETATM   23  H   UNK N   1      21.538  19.687   2.434  0.00  0.00     0.157 HD
ENDBRANCH   7  21
TORSDOF 4
ENDMDL
MODEL 6
REMARK VINA RESULT:      -5.4     12.253     14.461
REMARK  4 active torsions:
REMARK  status: ('A' for Active; 'I' for Inactive)
REMARK    1  A    between atoms: N_3  and  C_9 
REMARK    2  A    between atoms: N_5  and  C_14 
REMARK    3  A    between atoms: N_7  and  C_10 
REMARK    4  A    between atoms: N_8  and  C_13 
ROOT
HETATM    1  N   UNK N   1      35.432  13.484  10.394  0.00  0.00    -0.328 N 
ATOM      2  HN  UNK N   1      35.653  12.489  10.383  1.00  0.00     0.169 HD
HETATM    3  C   UNK N   1      33.896  15.266   9.954  0.00  0.00     0.091 A 
HETATM    4  C   UNK N   1      34.216  13.899   9.944  0.00  0.00     0.129 A 
HETATM    5  C   UNK N   1      34.847  16.179  10.428  0.00  0.00     0.038 A 
HETATM    6  C   UNK N   1      36.083  15.730  10.881  0.00  0.00     0.050 A 
HETATM    7  C   UNK N   1      36.361  14.365  10.858  0.00  0.00     0.100 A 
ENDROOT
BRANCH   3   8
HETATM    8  N   UNK N   1      32.634  15.720   9.496  0.00  0.00    -0.297 N 
HETATM    9  N   UNK N   1      32.541  16.814   8.906  0.00  0.00    -0.300 N 
ATOM     10  HN  UNK N   1      33.381  17.376   8.773  1.00  0.00     0.187 HD
ATOM     11  HN  UNK N   1      31.802  15.150   9.648  1.00  0.00     0.187 HD
BRANCH   9  12
HETATM   12  C   UNK N   1      31.310  17.301   8.414  0.00  0.00     0.048 A 
HETATM   13  C   UNK N   1      30.554  18.242   9.131  0.00  0.00     0.031 A 
HETATM   14  C   UNK N   1      29.331  18.690   8.622  0.00  0.00     0.002 A 
HETATM   15  C   UNK N   1      28.860  18.199   7.400  0.00  0.00     0.000 A 
HETATM   16  C   UNK N   1      29.612  17.262   6.685  0.00  0.00     0.002 A 
HETATM   17  C   UNK N   1      30.834  16.816   7.192  0.00  0.00     0.031 A 
ENDBRANCH   9  12
ENDBRANCH   3   8
BRANCH   4  18
HETATM   18  N   UNK N   1      33.284  12.949   9.474  0.00  0.00    -0.384 N 
HETATM   19  H   UNK N   1      33.492  11.989   9.526  0.00  0.00     0.157 HD
HETATM   20  H   UNK N   1      32.427  13.248   9.093  0.00  0.00     0.157 HD
ENDBRANCH   4  18
BRANCH   7  21
HETATM   21  N   UNK N   1      37.606  13.898  11.320  0.00  0.00    -0.385 N 
HETATM   22  H   UNK N   1      38.058  14.355  12.065  0.00  0.00     0.157 HD
HETATM   23  H   UNK N   1      38.025  13.114  10.897  0.00  0.00     0.157 HD
ENDBRANCH   7  21
TORSDOF 4
ENDMDL
MODEL 7
REMARK VINA RESULT:      -5.4     12.796     15.331
REMARK  4 active torsions:
REMARK  status: ('A' for Active; 'I' for Inactive)
REMARK    1  A    between atoms: N_3  and  C_9 
REMARK    2  A    between atoms: N_5  and  C_14 
REMARK    3  A    between atoms: N_7  and  C_10 
REMARK    4  A    between atoms: N_8  and  C_13 
ROOT
HETATM    1  N   UNK N   1      36.059  15.343  12.274  0.00  0.00    -0.328 N 
ATOM      2  HN  UNK N   1      36.613  16.000  12.822  1.00  0.00     0.169 HD
HETATM    3  C   UNK N   1      34.541  14.916  10.474  0.00  0.00     0.091 A 
HETATM    4  C   UNK N   1      35.309  15.809  11.237  0.00  0.00     0.129 A 
HETATM    5  C   UNK N   1      34.563  13.554  10.802  0.00  0.00     0.038 A 
HETATM    6  C   UNK N   1      35.335  13.103  11.867  0.00  0.00     0.050 A 
HETATM    7  C   UNK N   1      36.087  14.020  12.598  0.00  0.00     0.100 A 
ENDROOT
BRANCH   3   8
HETATM    8  N   UNK N   1      33.758  15.377   9.386  0.00  0.00    -0.297 N 
HETATM    9  N   UNK N   1      32.538  15.585   9.540  0.00  0.00    -0.300 N 
ATOM     10  HN  UNK N   1      32.118  15.405  10.451  1.00  0.00     0.187 HD
ATOM     11  HN  UNK N   1      34.193  15.541   8.478  1.00  0.00     0.187 HD
BRANCH   9  12
HETATM   12  C   UNK N   1      31.720  16.063   8.492  0.00  0.00     0.048 A 
HETATM   13  C   UNK N   1      30.825  17.126   8.687  0.00  0.00     0.031 A 
HETATM   14  C   UNK N   1      30.017  17.562   7.633  0.00  0.00     0.002 A 
HETATM   15  C   UNK N   1      30.101  16.939   6.384  0.00  0.00     0.000 A 
HETATM   16  C   UNK N   1      30.992  15.880   6.188  0.00  0.00     0.002 A 
HETATM   17  C   UNK N   1      31.799  15.445   7.241  0.00  0.00     0.031 A 
ENDBRANCH   9  12
ENDBRANCH   3   8
BRANCH   4  18
HETATM   18  N   UNK N   1      35.313  17.188  10.937  0.00  0.00    -0.384 N 
HETATM   19  H   UNK N   1      34.463  17.679  10.875  0.00  0.00     0.157 HD
HETATM   20  H   UNK N   1      36.165  17.656  10.791  0.00  0.00     0.157 HD
ENDBRANCH   4  18
BRANCH   7  21
HETATM   21  N   UNK N   1      36.878  13.575  13.674  0.00  0.00    -0.385 N 
HETATM   22  H   UNK N   1      37.855  13.691  13.648  0.00  0.00     0.157 HD
HETATM   23  H   UNK N   1      36.453  13.147  14.453  0.00  0.00     0.157 HD
ENDBRANCH   7  21
TORSDOF 4
ENDMDL
MODEL 8
REMARK VINA RESULT:      -5.4     13.467     15.673
REMARK  4 active torsions:
REMARK  status: ('A' for Active; 'I' for Inactive)
REMARK    1  A    between atoms: N_3  and  C_9 
REMARK    2  A    between atoms: N_5  and  C_14 
REMARK    3  A    between atoms: N_7  and  C_10 
REMARK    4  A    between atoms: N_8  and  C_13 
ROOT
HETATM    1  N   UNK N   1      36.558  15.167  11.062  0.00  0.00    -0.328 N 
ATOM      2  HN  UNK N   1      36.816  15.532  11.978  1.00  0.00     0.169 HD
HETATM    3  C   UNK N   1      35.308  15.373   9.031  0.00  0.00     0.091 A 
HETATM    4  C   UNK N   1      35.673  15.862  10.296  0.00  0.00     0.129 A 
HETATM    5  C   UNK N   1      35.867  14.168   8.586  0.00  0.00     0.038 A 
HETATM    6  C   UNK N   1      36.768  13.476   9.388  0.00  0.00     0.050 A 
HETATM    7  C   UNK N   1      37.107  13.997  10.635  0.00  0.00     0.100 A 
ENDROOT
BRANCH   3   8
HETATM    8  N   UNK N   1      34.393  16.083   8.214  0.00  0.00    -0.297 N 
HETATM    9  N   UNK N   1      34.039  15.609   7.117  0.00  0.00    -0.300 N 
ATOM     10  HN  UNK N   1      34.428  14.716   6.817  1.00  0.00     0.187 HD
ATOM     11  HN  UNK N   1      34.023  16.981   8.525  1.00  0.00     0.187 HD
BRANCH   9  12
HETATM   12  C   UNK N   1      33.115  16.269   6.276  0.00  0.00     0.048 A 
HETATM   13  C   UNK N   1      33.524  16.909   5.097  0.00  0.00     0.031 A 
HETATM   14  C   UNK N   1      32.585  17.567   4.296  0.00  0.00     0.002 A 
HETATM   15  C   UNK N   1      31.238  17.587   4.672  0.00  0.00     0.000 A 
HETATM   16  C   UNK N   1      30.829  16.949   5.846  0.00  0.00     0.002 A 
HETATM   17  C   UNK N   1      31.766  16.291   6.645  0.00  0.00     0.031 A 
ENDBRANCH   9  12
ENDBRANCH   3   8
BRANCH   4  18
HETATM   18  N   UNK N   1      35.130  17.072  10.779  0.00  0.00    -0.384 N 
HETATM   19  H   UNK N   1      34.975  17.823  10.162  0.00  0.00     0.157 HD
HETATM   20  H   UNK N   1      34.906  17.164  11.733  0.00  0.00     0.157 HD
ENDBRANCH   4  18
BRANCH   7  21
HETATM   21  N   UNK N   1      38.023  13.309  11.453  0.00  0.00    -0.385 N 
HETATM   22  H   UNK N   1      38.266  13.673  12.335  0.00  0.00     0.157 HD
HETATM   23  H   UNK N   1      38.422  12.464  11.142  0.00  0.00     0.157 HD
ENDBRANCH   7  21
TORSDOF 4
ENDMDL
MODEL 9
REMARK VINA RESULT:      -5.3      7.783      8.648
REMARK  4 active torsions:
REMARK  status: ('A' for Active; 'I' for Inactive)
REMARK    1  A    between atoms: N_3  and  C_9 
REMARK    2  A    between atoms: N_5  and  C_14 
REMARK    3  A    between atoms: N_7  and  C_10 
REMARK    4  A    between atoms: N_8  and  C_13 
ROOT
HETATM    1  N   UNK N   1      24.894  18.792   4.433  0.00  0.00    -0.328 N 
ATOM      2  HN  UNK N   1      24.003  18.359   4.677  1.00  0.00     0.169 HD
HETATM    3  C   UNK N   1      27.276  18.873   4.638  0.00  0.00     0.091 A 
HETATM    4  C   UNK N   1      26.042  18.289   4.964  0.00  0.00     0.129 A 
HETATM    5  C   UNK N   1      27.296  19.972   3.769  0.00  0.00     0.038 A 
HETATM    6  C   UNK N   1      26.108  20.468   3.242  0.00  0.00     0.050 A 
HETATM    7  C   UNK N   1      24.904  19.858   3.587  0.00  0.00     0.100 A 
ENDROOT
BRANCH   3   8
HETATM    8  N   UNK N   1      28.485  18.363   5.174  0.00  0.00    -0.297 N 
HETATM    9  N   UNK N   1      29.447  18.118   4.421  0.00  0.00    -0.300 N 
ATOM     10  HN  UNK N   1      29.343  18.279   3.419  1.00  0.00     0.187 HD
ATOM     11  HN  UNK N   1      28.568  18.198   6.177  1.00  0.00     0.187 HD
BRANCH   9  12
HETATM   12  C   UNK N   1      30.679  17.627   4.909  0.00  0.00     0.048 A 
HETATM   13  C   UNK N   1      30.785  17.052   6.185  0.00  0.00     0.031 A 
HETATM   14  C   UNK N   1      32.023  16.592   6.643  0.00  0.00     0.002 A 
HETATM   15  C   UNK N   1      33.156  16.705   5.830  0.00  0.00     0.000 A 
HETATM   16  C   UNK N   1      33.051  17.276   4.559  0.00  0.00     0.002 A 
HETATM   17  C   UNK N   1      31.814  17.735   4.100  0.00  0.00     0.031 A 
ENDBRANCH   9  12
ENDBRANCH   3   8
BRANCH   4  18
HETATM   18  N   UNK N   1      25.982  17.181   5.836  0.00  0.00    -0.384 N 
HETATM   19  H   UNK N   1      25.970  17.322   6.810  0.00  0.00     0.157 HD
HETATM   20  H   UNK N   1      25.953  16.268   5.470  0.00  0.00     0.157 HD
ENDBRANCH   4  18
BRANCH   7  21
HETATM   21  N   UNK N   1      23.696  20.347   3.054  0.00  0.00    -0.385 N 
HETATM   22  H   UNK N   1      23.250  21.119   3.471  0.00  0.00     0.157 HD
HETATM   23  H   UNK N   1      23.296  19.915   2.264  0.00  0.00     0.157 HD
ENDBRANCH   7  21
TORSDOF 4
ENDMDL
