MODEL 1
REMARK VINA RESULT:      -4.1      0.000      0.000
REMARK  4 active torsions:
REMARK  status: ('A' for Active; 'I' for Inactive)
REMARK    1  A    between atoms: O_1  and  C_6 
REMARK    2  A    between atoms: C_4  and  C_5 
REMARK    3  A    between atoms: C_4  and  C_6 
REMARK    4  A    between atoms: C_5  and  C_7 
ROOT
HETATM    1  C   UNK N   1      35.006  16.208   9.437  0.00  0.00     0.036 C 
ENDROOT
BRANCH   1   2
HETATM    2  C   UNK N   1      33.997  17.272   9.030  0.00  0.00     0.115 C 
BRANCH   2   3
HETATM    3  C   UNK N   1      34.601  18.278   8.094  0.00  0.00     0.172 C 
HETATM    4  O   UNK N   1      34.400  18.158   6.770  0.00  0.00    -0.648 OA
HETATM    5  O   UNK N   1      35.273  19.208   8.519  0.00  0.00    -0.648 OA
ENDBRANCH   2   3
ENDBRANCH   1   2
BRANCH   1   6
HETATM    6  C   UNK N   1      35.541  16.478  10.825  0.00  0.00     0.164 C 
BRANCH   6   7
HETATM    7  O   UNK N   1      36.891  16.131  10.863  0.00  0.00    -0.401 OA
HETATM    8  H   UNK N   1      37.170  15.239  10.602  0.00  0.00     0.209 HD
ENDBRANCH   6   7
ENDBRANCH   1   6
TORSDOF 4
ENDMDL
MODEL 2
REMARK VINA RESULT:      -3.8     15.711     16.491
REMARK  4 active torsions:
REMARK  status: ('A' for Active; 'I' for Inactive)
REMARK    1  A    between atoms: O_1  and  C_6 
REMARK    2  A    between atoms: C_4  and  C_5 
REMARK    3  A    between atoms: C_4  and  C_6 
REMARK    4  A    between atoms: C_5  and  C_7 
ROOT
HETATM    1  C   UNK N   1      20.664  18.094   2.259  0.00  0.00     0.036 C 
ENDROOT
BRANCH   1   2
HETATM    2  C   UNK N   1      20.157  19.526   2.329  0.00  0.00     0.115 C 
BRANCH   2   3
HETATM    3  C   UNK N   1      21.163  20.498   1.783  0.00  0.00     0.172 C 
HETATM    4  O   UNK N   1      21.889  21.249   2.630  0.00  0.00    -0.648 OA
HETATM    5  O   UNK N   1      21.332  20.615   0.577  0.00  0.00    -0.648 OA
ENDBRANCH   2   3
ENDBRANCH   1   2
BRANCH   1   6
HETATM    6  C   UNK N   1      19.922  17.312   1.199  0.00  0.00     0.164 C 
BRANCH   6   7
HETATM    7  O   UNK N   1      20.331  17.758  -0.058  0.00  0.00    -0.401 OA
HETATM    8  H   UNK N   1      21.275  17.855  -0.254  0.00  0.00     0.209 HD
ENDBRANCH   6   7
ENDBRANCH   1   6
TORSDOF 4
ENDMDL
MODEL 3
REMARK VINA RESULT:      -3.7      1.858      2.461
REMARK  4 active torsions:
REMARK  status: ('A' for Active; 'I' for Inactive)
REMARK    1  A    between atoms: O_1  and  C_6 
REMARK    2  A    between atoms: C_4  and  C_5 
REMARK    3  A    between atoms: C_4  and  C_6 
REMARK    4  A    between atoms: C_5  and  C_7 
ROOT
HETATM    1  C   UNK N   1      32.957  16.559   8.812  0.00  0.00     0.036 C 
ENDROOT
BRANCH   1   2
HETATM    2  C   UNK N   1      34.349  17.107   9.084  0.00  0.00     0.115 C 
BRANCH   2   3
HETATM    3  C   UNK N   1      34.703  18.218   8.138  0.00  0.00     0.172 C 
HETATM    4  O   UNK N   1      35.350  19.303   8.599  0.00  0.00    -0.648 OA
HETATM    5  O   UNK N   1      34.409  18.150   6.952  0.00  0.00    -0.648 OA
ENDBRANCH   2   3
ENDBRANCH   1   2
BRANCH   1   6
HETATM    6  C   UNK N   1      32.806  15.167   9.382  0.00  0.00     0.164 C 
BRANCH   6   7
HETATM    7  O   UNK N   1      32.948  15.230  10.768  0.00  0.00    -0.401 OA
HETATM    8  H   UNK N   1      33.780  14.953  11.183  0.00  0.00     0.209 HD
ENDBRANCH   6   7
ENDBRANCH   1   6
TORSDOF 4
ENDMDL
MODEL 4
REMARK VINA RESULT:      -3.7     12.968     13.537
REMARK  4 active torsions:
REMARK  status: ('A' for Active; 'I' for Inactive)
REMARK    1  A    between atoms: O_1  and  C_6 
REMARK    2  A    between atoms: C_4  and  C_5 
REMARK    3  A    between atoms: C_4  and  C_6 
REMARK    4  A    between atoms: C_5  and  C_7 
ROOT
HETATM    1  C   UNK N   1      31.424  22.510  -3.655  0.00  0.00     0.036 C 
ENDROOT
BRANCH   1   2
HETATM    2  C   UNK N   1      29.993  22.125  -3.315  0.00  0.00     0.115 C 
BRANCH   2   3
HETATM    3  C   UNK N   1      29.523  22.794  -2.055  0.00  0.00     0.172 C 
HETATM    4  O   UNK N   1      28.214  23.051  -1.888  0.00  0.00    -0.648 OA
HETATM    5  O   UNK N   1      30.316  23.108  -1.178  0.00  0.00    -0.648 OA
ENDBRANCH   2   3
ENDBRANCH   1   2
BRANCH   1   6
HETATM    6  C   UNK N   1      32.368  21.359  -3.390  0.00  0.00     0.164 C 
BRANCH   6   7
HETATM    7  O   UNK N   1      32.599  21.273  -2.018  0.00  0.00    -0.401 OA
HETATM    8  H   UNK N   1      32.426  22.038  -1.448  0.00  0.00     0.209 HD
ENDBRANCH   6   7
ENDBRANCH   1   6
TORSDOF 4
ENDMDL
MODEL 5
REMARK VINA RESULT:      -3.7     13.419     13.917
REMARK  4 active torsions:
REMARK  status: ('A' for Active; 'I' for Inactive)
REMARK    1  A    between atoms: O_1  and  C_6 
REMARK    2  A    between atoms: C_4  and  C_5 
REMARK    3  A    between atoms: C_4  and  C_6 
REMARK    4  A    between atoms: C_5  and  C_7 
ROOT
HETATM    1  C   UNK N   1      22.822  12.075  10.630  0.00  0.00     0.036 C 
ENDROOT
BRANCH   1   2
HETATM    2  C   UNK N   1      21.344  12.339  10.872  0.00  0.00     0.115 C 
BRANCH   2   3
HETATM    3  C   UNK N   1      20.859  13.529  10.096  0.00  0.00     0.172 C 
HETATM    4  O   UNK N   1      19.537  13.731   9.947  0.00  0.00    -0.648 OA
HETATM    5  O   UNK N   1      21.649  14.317   9.596  0.00  0.00    -0.648 OA
ENDBRANCH   2   3
ENDBRANCH   1   2
BRANCH   1   6
HETATM    6  C   UNK N   1      23.568  11.952  11.939  0.00  0.00     0.164 C 
BRANCH   6   7
HETATM    7  O   UNK N   1      24.898  12.317  11.736  0.00  0.00    -0.401 OA
HETATM    8  H   UNK N   1      25.607  11.675  11.896  0.00  0.00     0.209 HD
ENDBRANCH   6   7
ENDBRANCH   1   6
TORSDOF 4
ENDMDL
MODEL 6
REMARK VINA RESULT:      -3.6      2.458      3.550
REMARK  4 active torsions:
REMARK  status: ('A' for Active; 'I' for Inactive)
REMARK    1  A    between atoms: O_1  and  C_6 
REMARK    2  A    between atoms: C_4  and  C_5 
REMARK    3  A    between atoms: C_4  and  C_6 
REMARK    4  A    between atoms: C_5  and  C_7 
ROOT
HETATM    1  C   UNK N   1      31.974  17.483   7.978  0.00  0.00     0.036 C 
ENDROOT
BRANCH   1   2
HETATM    2  C   UNK N   1      33.313  17.536   8.697  0.00  0.00     0.115 C 
BRANCH   2   3
HETATM    3  C   UNK N   1      34.345  18.272   7.893  0.00  0.00     0.172 C 
HETATM    4  O   UNK N   1      34.493  17.993   6.586  0.00  0.00    -0.648 OA
HETATM    5  O   UNK N   1      35.055  19.124   8.411  0.00  0.00    -0.648 OA
ENDBRANCH   2   3
ENDBRANCH   1   2
BRANCH   1   6
HETATM    6  C   UNK N   1      30.908  18.202   8.773  0.00  0.00     0.164 C 
BRANCH   6   7
HETATM    7  O   UNK N   1      30.336  17.305   9.674  0.00  0.00    -0.401 OA
HETATM    8  H   UNK N   1      30.525  17.384  10.623  0.00  0.00     0.209 HD
ENDBRANCH   6   7
ENDBRANCH   1   6
TORSDOF 4
ENDMDL
MODEL 7
REMARK VINA RESULT:      -3.6     13.223     14.059
REMARK  4 active torsions:
REMARK  status: ('A' for Active; 'I' for Inactive)
REMARK    1  A    between atoms: O_1  and  C_6 
REMARK    2  A    between atoms: C_4  and  C_5 
REMARK    3  A    between atoms: C_4  and  C_6 
REMARK    4  A    between atoms: C_5  and  C_7 
ROOT
HETATM    1  C   UNK N   1      22.459  13.075  10.309  0.00  0.00     0.036 C 
ENDROOT
BRANCH   1   2
HETATM    2  C   UNK N   1      22.378  12.045  11.425  0.00  0.00     0.115 C 
BRANCH   2   3
HETATM    3  C   UNK N   1      23.634  12.020  12.247  0.00  0.00     0.172 C 
HETATM    4  O   UNK N   1      23.552  12.074  13.588  0.00  0.00    -0.648 OA
HETATM    5  O   UNK N   1      24.733  11.949  11.713  0.00  0.00    -0.648 OA
ENDBRANCH   2   3
ENDBRANCH   1   2
BRANCH   1   6
HETATM    6  C   UNK N   1      21.085  13.608   9.968  0.00  0.00     0.164 C 
BRANCH   6   7
HETATM    7  O   UNK N   1      20.651  13.009   8.786  0.00  0.00    -0.401 OA
HETATM    8  H   UNK N   1      20.062  12.240   8.819  0.00  0.00     0.209 HD
ENDBRANCH   6   7
ENDBRANCH   1   6
TORSDOF 4
ENDMDL
MODEL 8
REMARK VINA RESULT:      -3.3     15.404     16.075
REMARK  4 active torsions:
REMARK  status: ('A' for Active; 'I' for Inactive)
REMARK    1  A    between atoms: O_1  and  C_6 
REMARK    2  A    between atoms: C_4  and  C_5 
REMARK    3  A    between atoms: C_4  and  C_6 
REMARK    4  A    between atoms: C_5  and  C_7 
ROOT
HETATM    1  C   UNK N   1      19.861  18.727   2.400  0.00  0.00     0.036 C 
ENDROOT
BRANCH   1   2
HETATM    2  C   UNK N   1      20.441  19.940   3.112  0.00  0.00     0.115 C 
BRANCH   2   3
HETATM    3  C   UNK N   1      21.433  20.666   2.251  0.00  0.00     0.172 C 
HETATM    4  O   UNK N   1      21.381  20.526   0.915  0.00  0.00    -0.648 OA
HETATM    5  O   UNK N   1      22.289  21.386   2.748  0.00  0.00    -0.648 OA
ENDBRANCH   2   3
ENDBRANCH   1   2
BRANCH   1   6
HETATM    6  C   UNK N   1      20.146  17.461   3.176  0.00  0.00     0.164 C 
BRANCH   6   7
HETATM    7  O   UNK N   1      18.969  17.036   3.792  0.00  0.00    -0.401 OA
HETATM    8  H   UNK N   1      18.154  16.951   3.273  0.00  0.00     0.209 HD
ENDBRANCH   6   7
ENDBRANCH   1   6
TORSDOF 4
ENDMDL
MODEL 9
REMARK VINA RESULT:      -3.3     18.458     19.187
REMARK  4 active torsions:
REMARK  status: ('A' for Active; 'I' for Inactive)
REMARK    1  A    between atoms: O_1  and  C_6 
REMARK    2  A    between atoms: C_4  and  C_5 
REMARK    3  A    between atoms: C_4  and  C_6 
REMARK    4  A    between atoms: C_5  and  C_7 
ROOT
HETATM    1  C   UNK N   1      26.175  27.533  -5.176  0.00  0.00     0.036 C 
ENDROOT
BRANCH   1   2
HETATM    2  C   UNK N   1      25.079  26.542  -5.537  0.00  0.00     0.115 C 
BRANCH   2   3
HETATM    3  C   UNK N   1      25.474  25.132  -5.205  0.00  0.00     0.172 C 
HETATM    4  O   UNK N   1      25.949  24.846  -3.980  0.00  0.00    -0.648 OA
HETATM    5  O   UNK N   1      25.372  24.239  -6.035  0.00  0.00    -0.648 OA
ENDBRANCH   2   3
ENDBRANCH   1   2
BRANCH   1   6
HETATM    6  C   UNK N   1      25.743  28.419  -4.030  0.00  0.00     0.164 C 
BRANCH   6   7
HETATM    7  O   UNK N   1      25.705  27.658  -2.862  0.00  0.00    -0.401 OA
HETATM    8  H   UNK N   1      24.865  27.287  -2.551  0.00  0.00     0.209 HD
ENDBRANCH   6   7
ENDBRANCH   1   6
TORSDOF 4
ENDMDL
