REMARK  4 active torsions:
REMARK  status: ('A' for Active; 'I' for Inactive)
REMARK    1  A    between atoms: O_1  and  C_6 
REMARK    2  A    between atoms: C_4  and  C_5 
REMARK    3  A    between atoms: C_4  and  C_6 
REMARK    4  A    between atoms: C_5  and  C_7 
ROOT
HETATM    1  C   UNK N   1       4.225   0.111  -0.000  0.00  0.00     0.036 C 
ENDROOT
BRANCH   1   2
HETATM    2  C   UNK N   1       3.004   1.018  -0.000  0.00  0.00     0.115 C 
BRANCH   2   3
HETATM    3  C   UNK N   1       1.727   0.228   0.000  0.00  0.00     0.172 C 
HETATM    4  O   UNK N   1       0.547   0.873   0.000  0.00  0.00    -0.648 OA
HETATM    5  O   UNK N   1       1.745  -0.995  -0.000  0.00  0.00    -0.648 OA
ENDBRANCH   2   3
ENDBRANCH   1   2
BRANCH   1   6
HETATM    6  C   UNK N   1       5.499   0.925   0.000  0.00  0.00     0.164 C 
BRANCH   6   7
HETATM    7  O   UNK N   1       6.589   0.055   0.000  0.00  0.00    -0.401 OA
HETATM    8  H   UNK N   1       6.444  -0.904   0.000  0.00  0.00     0.209 HD
ENDBRANCH   6   7
ENDBRANCH   1   6
TORSDOF 4
