MODEL 1
REMARK VINA RESULT:      -8.0      0.000      0.000
REMARK  4 active torsions:
REMARK  status: ('A' for Active; 'I' for Inactive)
REMARK    1  A    between atoms: C_16  and  O_2 
REMARK    2  A    between atoms: O_2  and  C_24 
REMARK    3  A    between atoms: O_3  and  C_22 
REMARK    4  A    between atoms: O_3  and  C_26 
ROOT
HETATM    1  O   UNK N   1      31.061  17.188   7.293  0.00  0.00    -0.338 OA
HETATM    2  N   UNK N   1      30.795  13.776   3.436  0.00  0.00     0.089 N 
HETATM    3  C   UNK N   1      31.456  15.797   5.453  0.00  0.00     0.030 C 
HETATM    4  C   UNK N   1      32.192  15.751   4.116  0.00  0.00     0.057 C 
HETATM    5  C   UNK N   1      31.174  15.159   3.071  0.00  0.00     0.235 C 
HETATM    6  C   UNK N   1      32.129  16.533   6.660  0.00  0.00     0.176 C 
HETATM    7  C   UNK N   1      31.062  14.364   5.856  0.00  0.00     0.048 C 
HETATM    8  C   UNK N   1      30.235  16.602   5.328  0.00  0.00    -0.003 A 
HETATM    9  C   UNK N   1      29.860  16.002   2.936  0.00  0.00     0.075 C 
HETATM   10  C   UNK N   1      30.214  13.667   4.783  0.00  0.00     0.273 C 
HETATM   11  C   UNK N   1      29.411  16.663   4.220  0.00  0.00    -0.046 A 
HETATM   12  C   UNK N   1      33.132  17.624   6.185  0.00  0.00     0.185 C 
HETATM   13  C   UNK N   1      32.714  17.116   3.755  0.00  0.00    -0.020 C 
HETATM   14  C   UNK N   1      30.026  17.310   6.451  0.00  0.00     0.111 A 
HETATM   15  C   UNK N   1      33.206  17.937   4.698  0.00  0.00     0.004 C 
HETATM   16  C   UNK N   1      31.917  12.853   3.310  0.00  0.00     0.310 C 
HETATM   17  C   UNK N   1      28.253  17.448   4.306  0.00  0.00     0.011 A 
HETATM   18  C   UNK N   1      28.875  18.097   6.599  0.00  0.00     0.113 A 
HETATM   19  C   UNK N   1      27.969  18.140   5.506  0.00  0.00     0.041 A 
ENDROOT
BRANCH  12  20
HETATM   20  O   UNK N   1      34.364  17.567   6.816  0.00  0.00    -0.310 OA
BRANCH  20  21
HETATM   21  C   UNK N   1      34.615  18.007   8.076  0.00  0.00     0.255 C 
HETATM   22  O   UNK N   1      34.962  19.159   8.285  0.00  0.00    -0.266 OA
HETATM   23  C   UNK N   1      34.477  17.063   9.220  0.00  0.00     0.126 C 
ENDBRANCH  20  21
ENDBRANCH  12  20
BRANCH  18  24
HETATM   24  O   UNK N   1      28.672  18.790   7.753  0.00  0.00    -0.276 OA
BRANCH  24  25
HETATM   25  C   UNK N   1      28.597  18.274   9.013  0.00  0.00     0.260 C 
HETATM   26  O   UNK N   1      27.671  17.557   9.358  0.00  0.00    -0.265 OA
HETATM   27  C   UNK N   1      29.668  18.597   9.996  0.00  0.00     0.126 C 
ENDBRANCH  24  25
ENDBRANCH  18  24
TORSDOF 4
ENDMDL
MODEL 2
REMARK VINA RESULT:      -7.6     13.507     15.743
REMARK  4 active torsions:
REMARK  status: ('A' for Active; 'I' for Inactive)
REMARK    1  A    between atoms: C_16  and  O_2 
REMARK    2  A    between atoms: O_2  and  C_24 
REMARK    3  A    between atoms: O_3  and  C_22 
REMARK    4  A    between atoms: O_3  and  C_26 
ROOT
HETATM    1  O   UNK N   1      27.581  24.785  -4.375  0.00  0.00    -0.338 OA
HETATM    2  N   UNK N   1      27.508  29.902  -3.740  0.00  0.00     0.089 N 
HETATM    3  C   UNK N   1      27.284  27.098  -4.566  0.00  0.00     0.030 C 
HETATM    4  C   UNK N   1      27.246  28.226  -5.594  0.00  0.00     0.057 C 
HETATM    5  C   UNK N   1      28.108  29.398  -4.996  0.00  0.00     0.235 C 
HETATM    6  C   UNK N   1      26.690  25.702  -4.954  0.00  0.00     0.176 C 
HETATM    7  C   UNK N   1      26.652  27.598  -3.253  0.00  0.00     0.048 C 
HETATM    8  C   UNK N   1      28.672  26.706  -4.299  0.00  0.00    -0.003 A 
HETATM    9  C   UNK N   1      29.591  28.991  -4.695  0.00  0.00     0.075 C 
HETATM   10  C   UNK N   1      27.343  28.860  -2.716  0.00  0.00     0.273 C 
HETATM   11  C   UNK N   1      29.763  27.553  -4.257  0.00  0.00    -0.046 A 
HETATM   12  C   UNK N   1      26.714  25.471  -6.492  0.00  0.00     0.185 C 
HETATM   13  C   UNK N   1      27.728  27.733  -6.933  0.00  0.00    -0.020 C 
HETATM   14  C   UNK N   1      28.756  25.376  -4.118  0.00  0.00     0.111 A 
HETATM   15  C   UNK N   1      27.421  26.498  -7.364  0.00  0.00     0.004 C 
HETATM   16  C   UNK N   1      26.230  30.564  -3.975  0.00  0.00     0.310 C 
HETATM   17  C   UNK N   1      31.011  27.003  -3.931  0.00  0.00     0.011 A 
HETATM   18  C   UNK N   1      29.973  24.775  -3.771  0.00  0.00     0.113 A 
HETATM   19  C   UNK N   1      31.109  25.619  -3.657  0.00  0.00     0.041 A 
ENDROOT
BRANCH  12  20
HETATM   20  O   UNK N   1      25.512  25.017  -7.011  0.00  0.00    -0.310 OA
BRANCH  20  21
HETATM   21  C   UNK N   1      25.330  23.816  -7.617  0.00  0.00     0.255 C 
HETATM   22  O   UNK N   1      24.706  23.724  -8.663  0.00  0.00    -0.266 OA
HETATM   23  C   UNK N   1      25.891  22.588  -6.988  0.00  0.00     0.126 C 
ENDBRANCH  20  21
ENDBRANCH  12  20
BRANCH  18  24
HETATM   24  O   UNK N   1      30.031  23.429  -3.571  0.00  0.00    -0.276 OA
BRANCH  24  25
HETATM   25  C   UNK N   1      30.681  22.780  -2.563  0.00  0.00     0.260 C 
HETATM   26  O   UNK N   1      30.414  22.988  -1.390  0.00  0.00    -0.265 OA
HETATM   27  C   UNK N   1      31.746  21.795  -2.900  0.00  0.00     0.126 C 
ENDBRANCH  24  25
ENDBRANCH  18  24
TORSDOF 4
ENDMDL
MODEL 3
REMARK VINA RESULT:      -7.6      7.997     10.173
REMARK  4 active torsions:
REMARK  status: ('A' for Active; 'I' for Inactive)
REMARK    1  A    between atoms: C_16  and  O_2 
REMARK    2  A    between atoms: O_2  and  C_24 
REMARK    3  A    between atoms: O_3  and  C_22 
REMARK    4  A    between atoms: O_3  and  C_26 
ROOT
HETATM    1  O   UNK N   1      21.810  18.010   6.462  0.00  0.00    -0.338 OA
HETATM    2  N   UNK N   1      23.866  14.576   3.211  0.00  0.00     0.089 N 
HETATM    3  C   UNK N   1      22.522  16.776   4.606  0.00  0.00     0.030 C 
HETATM    4  C   UNK N   1      22.089  16.353   3.204  0.00  0.00     0.057 C 
HETATM    5  C   UNK N   1      22.411  14.816   3.087  0.00  0.00     0.235 C 
HETATM    6  C   UNK N   1      22.144  18.208   5.113  0.00  0.00     0.176 C 
HETATM    7  C   UNK N   1      24.038  16.543   4.752  0.00  0.00     0.048 C 
HETATM    8  C   UNK N   1      21.825  15.969   5.614  0.00  0.00    -0.003 A 
HETATM    9  C   UNK N   1      21.681  13.943   4.165  0.00  0.00     0.075 C 
HETATM   10  C   UNK N   1      24.436  15.088   4.466  0.00  0.00     0.273 C 
HETATM   11  C   UNK N   1      21.493  14.632   5.498  0.00  0.00    -0.046 A 
HETATM   12  C   UNK N   1      20.879  18.760   4.395  0.00  0.00     0.185 C 
HETATM   13  C   UNK N   1      20.641  16.693   2.976  0.00  0.00    -0.020 C 
HETATM   14  C   UNK N   1      21.520  16.721   6.686  0.00  0.00     0.111 A 
HETATM   15  C   UNK N   1      20.114  17.829   3.465  0.00  0.00     0.004 C 
HETATM   16  C   UNK N   1      24.606  15.120   2.078  0.00  0.00     0.310 C 
HETATM   17  C   UNK N   1      20.873  14.012   6.592  0.00  0.00     0.011 A 
HETATM   18  C   UNK N   1      20.918  16.149   7.816  0.00  0.00     0.113 A 
HETATM   19  C   UNK N   1      20.615  14.764   7.762  0.00  0.00     0.041 A 
ENDROOT
BRANCH  12  20
HETATM   20  O   UNK N   1      21.025  20.051   3.912  0.00  0.00    -0.310 OA
BRANCH  20  21
HETATM   21  C   UNK N   1      21.723  20.391   2.798  0.00  0.00     0.255 C 
HETATM   22  O   UNK N   1      22.873  20.792   2.872  0.00  0.00    -0.266 OA
HETATM   23  C   UNK N   1      21.067  20.284   1.465  0.00  0.00     0.126 C 
ENDBRANCH  20  21
ENDBRANCH  12  20
BRANCH  18  24
HETATM   24  O   UNK N   1      20.638  16.925   8.898  0.00  0.00    -0.276 OA
BRANCH  24  25
HETATM   25  C   UNK N   1      19.580  17.774   9.043  0.00  0.00     0.260 C 
HETATM   26  O   UNK N   1      19.737  18.948   9.338  0.00  0.00    -0.265 OA
HETATM   27  C   UNK N   1      18.199  17.256   8.842  0.00  0.00     0.126 C 
ENDBRANCH  24  25
ENDBRANCH  18  24
TORSDOF 4
ENDMDL
MODEL 4
REMARK VINA RESULT:      -7.5      1.582      2.084
REMARK  4 active torsions:
REMARK  status: ('A' for Active; 'I' for Inactive)
REMARK    1  A    between atoms: C_16  and  O_2 
REMARK    2  A    between atoms: O_2  and  C_24 
REMARK    3  A    between atoms: O_3  and  C_22 
REMARK    4  A    between atoms: O_3  and  C_26 
ROOT
HETATM    1  O   UNK N   1      30.733  16.000   8.064  0.00  0.00    -0.338 OA
HETATM    2  N   UNK N   1      33.280  15.090   3.674  0.00  0.00     0.089 N 
HETATM    3  C   UNK N   1      32.320  15.756   6.363  0.00  0.00     0.030 C 
HETATM    4  C   UNK N   1      33.590  16.392   5.802  0.00  0.00     0.057 C 
HETATM    5  C   UNK N   1      33.401  16.453   4.240  0.00  0.00     0.235 C 
HETATM    6  C   UNK N   1      32.104  15.742   7.914  0.00  0.00     0.176 C 
HETATM    7  C   UNK N   1      32.182  14.331   5.794  0.00  0.00     0.048 C 
HETATM    8  C   UNK N   1      31.145  16.538   5.961  0.00  0.00    -0.003 A 
HETATM    9  C   UNK N   1      32.143  17.275   3.797  0.00  0.00     0.075 C 
HETATM   10  C   UNK N   1      32.177  14.313   4.259  0.00  0.00     0.273 C 
HETATM   11  C   UNK N   1      30.974  17.184   4.752  0.00  0.00    -0.046 A 
HETATM   12  C   UNK N   1      32.877  16.897   8.614  0.00  0.00     0.185 C 
HETATM   13  C   UNK N   1      33.833  17.733   6.441  0.00  0.00    -0.020 C 
HETATM   14  C   UNK N   1      30.240  16.566   6.955  0.00  0.00     0.111 A 
HETATM   15  C   UNK N   1      33.570  17.934   7.743  0.00  0.00     0.004 C 
HETATM   16  C   UNK N   1      34.525  14.340   3.793  0.00  0.00     0.310 C 
HETATM   17  C   UNK N   1      29.755  17.839   4.524  0.00  0.00     0.011 A 
HETATM   18  C   UNK N   1      28.997  17.189   6.776  0.00  0.00     0.113 A 
HETATM   19  C   UNK N   1      28.755  17.814   5.524  0.00  0.00     0.041 A 
ENDROOT
BRANCH  12  20
HETATM   20  O   UNK N   1      33.618  16.491   9.713  0.00  0.00    -0.310 OA
BRANCH  20  21
HETATM   21  C   UNK N   1      34.971  16.374   9.738  0.00  0.00     0.255 C 
HETATM   22  O   UNK N   1      35.669  17.232  10.254  0.00  0.00    -0.266 OA
HETATM   23  C   UNK N   1      35.612  15.183   9.113  0.00  0.00     0.126 C 
ENDBRANCH  20  21
ENDBRANCH  12  20
BRANCH  18  24
HETATM   24  O   UNK N   1      28.087  17.188   7.788  0.00  0.00    -0.276 OA
BRANCH  24  25
HETATM   25  C   UNK N   1      28.312  17.528   9.089  0.00  0.00     0.260 C 
HETATM   26  O   UNK N   1      27.834  16.887  10.011  0.00  0.00    -0.265 OA
HETATM   27  C   UNK N   1      29.158  18.715   9.394  0.00  0.00     0.126 C 
ENDBRANCH  24  25
ENDBRANCH  18  24
TORSDOF 4
ENDMDL
MODEL 5
REMARK VINA RESULT:      -7.4     12.725     14.934
REMARK  4 active torsions:
REMARK  status: ('A' for Active; 'I' for Inactive)
REMARK    1  A    between atoms: C_16  and  O_2 
REMARK    2  A    between atoms: O_2  and  C_24 
REMARK    3  A    between atoms: O_3  and  C_22 
REMARK    4  A    between atoms: O_3  and  C_26 
ROOT
HETATM    1  O   UNK N   1      29.118  25.180  -4.462  0.00  0.00    -0.338 OA
HETATM    2  N   UNK N   1      26.710  24.761  -9.002  0.00  0.00     0.089 N 
HETATM    3  C   UNK N   1      27.580  25.100  -6.224  0.00  0.00     0.030 C 
HETATM    4  C   UNK N   1      26.149  24.682  -6.554  0.00  0.00     0.057 C 
HETATM    5  C   UNK N   1      26.223  23.888  -7.911  0.00  0.00     0.235 C 
HETATM    6  C   UNK N   1      27.878  25.732  -4.822  0.00  0.00     0.176 C 
HETATM    7  C   UNK N   1      28.103  26.019  -7.344  0.00  0.00     0.048 C 
HETATM    8  C   UNK N   1      28.445  23.917  -6.146  0.00  0.00    -0.003 A 
HETATM    9  C   UNK N   1      27.152  22.628  -7.846  0.00  0.00     0.075 C 
HETATM   10  C   UNK N   1      28.025  25.358  -8.727  0.00  0.00     0.273 C 
HETATM   11  C   UNK N   1      28.348  22.785  -6.934  0.00  0.00    -0.046 A 
HETATM   12  C   UNK N   1      26.839  25.284  -3.755  0.00  0.00     0.185 C 
HETATM   13  C   UNK N   1      25.555  23.895  -5.416  0.00  0.00    -0.020 C 
HETATM   14  C   UNK N   1      29.356  24.067  -5.169  0.00  0.00     0.111 A 
HETATM   15  C   UNK N   1      25.821  24.221  -4.140  0.00  0.00     0.004 C 
HETATM   16  C   UNK N   1      25.753  25.813  -9.327  0.00  0.00     0.310 C 
HETATM   17  C   UNK N   1      29.302  21.774  -6.752  0.00  0.00     0.011 A 
HETATM   18  C   UNK N   1      30.345  23.097  -4.955  0.00  0.00     0.113 A 
HETATM   19  C   UNK N   1      30.319  21.945  -5.784  0.00  0.00     0.041 A 
ENDROOT
BRANCH  12  20
HETATM   20  O   UNK N   1      26.315  26.328  -3.008  0.00  0.00    -0.310 OA
BRANCH  20  21
HETATM   21  C   UNK N   1      26.026  27.563  -3.494  0.00  0.00     0.255 C 
HETATM   22  O   UNK N   1      26.432  28.571  -2.938  0.00  0.00    -0.266 OA
HETATM   23  C   UNK N   1      25.188  27.688  -4.719  0.00  0.00     0.126 C 
ENDBRANCH  20  21
ENDBRANCH  12  20
BRANCH  18  24
HETATM   24  O   UNK N   1      31.271  23.280  -3.974  0.00  0.00    -0.276 OA
BRANCH  24  25
HETATM   25  C   UNK N   1      31.415  22.538  -2.838  0.00  0.00     0.260 C 
HETATM   26  O   UNK N   1      30.812  22.812  -1.812  0.00  0.00    -0.265 OA
HETATM   27  C   UNK N   1      32.334  21.366  -2.847  0.00  0.00     0.126 C 
ENDBRANCH  24  25
ENDBRANCH  18  24
TORSDOF 4
ENDMDL
MODEL 6
REMARK VINA RESULT:      -7.3     13.648     15.693
REMARK  4 active torsions:
REMARK  status: ('A' for Active; 'I' for Inactive)
REMARK    1  A    between atoms: C_16  and  O_2 
REMARK    2  A    between atoms: O_2  and  C_24 
REMARK    3  A    between atoms: O_3  and  C_22 
REMARK    4  A    between atoms: O_3  and  C_26 
ROOT
HETATM    1  O   UNK N   1      29.328  25.285  -6.132  0.00  0.00    -0.338 OA
HETATM    2  N   UNK N   1      26.264  29.122  -4.557  0.00  0.00     0.089 N 
HETATM    3  C   UNK N   1      27.990  26.782  -4.931  0.00  0.00     0.030 C 
HETATM    4  C   UNK N   1      26.988  26.844  -3.780  0.00  0.00     0.057 C 
HETATM    5  C   UNK N   1      25.798  27.745  -4.279  0.00  0.00     0.235 C 
HETATM    6  C   UNK N   1      29.197  25.789  -4.829  0.00  0.00     0.176 C 
HETATM    7  C   UNK N   1      28.497  28.206  -5.229  0.00  0.00     0.048 C 
HETATM    8  C   UNK N   1      27.341  26.254  -6.136  0.00  0.00    -0.003 A 
HETATM    9  C   UNK N   1      25.102  27.198  -5.572  0.00  0.00     0.075 C 
HETATM   10  C   UNK N   1      27.353  29.180  -5.544  0.00  0.00     0.273 C 
HETATM   11  C   UNK N   1      26.037  26.489  -6.527  0.00  0.00    -0.046 A 
HETATM   12  C   UNK N   1      28.878  24.588  -3.893  0.00  0.00     0.185 C 
HETATM   13  C   UNK N   1      26.574  25.457  -3.368  0.00  0.00    -0.020 C 
HETATM   14  C   UNK N   1      28.193  25.470  -6.820  0.00  0.00     0.111 A 
HETATM   15  C   UNK N   1      27.462  24.448  -3.356  0.00  0.00     0.004 C 
HETATM   16  C   UNK N   1      26.670  29.815  -3.339  0.00  0.00     0.310 C 
HETATM   17  C   UNK N   1      25.607  25.941  -7.744  0.00  0.00     0.011 A 
HETATM   18  C   UNK N   1      27.823  24.912  -8.052  0.00  0.00     0.113 A 
HETATM   19  C   UNK N   1      26.511  25.179  -8.521  0.00  0.00     0.041 A 
ENDROOT
BRANCH  12  20
HETATM   20  O   UNK N   1      29.868  24.327  -2.958  0.00  0.00    -0.310 OA
BRANCH  20  21
HETATM   21  C   UNK N   1      30.183  23.094  -2.483  0.00  0.00     0.255 C 
HETATM   22  O   UNK N   1      30.460  22.923  -1.306  0.00  0.00    -0.266 OA
HETATM   23  C   UNK N   1      30.203  21.934  -3.417  0.00  0.00     0.126 C 
ENDBRANCH  20  21
ENDBRANCH  12  20
BRANCH  18  24
HETATM   24  O   UNK N   1      28.709  24.139  -8.738  0.00  0.00    -0.276 OA
BRANCH  24  25
HETATM   25  C   UNK N   1      28.712  22.777  -8.821  0.00  0.00     0.260 C 
HETATM   26  O   UNK N   1      28.688  22.201  -9.896  0.00  0.00    -0.265 OA
HETATM   27  C   UNK N   1      28.740  21.973  -7.568  0.00  0.00     0.126 C 
ENDBRANCH  24  25
ENDBRANCH  18  24
TORSDOF 4
ENDMDL
MODEL 7
REMARK VINA RESULT:      -7.2     12.785     14.977
REMARK  4 active torsions:
REMARK  status: ('A' for Active; 'I' for Inactive)
REMARK    1  A    between atoms: C_16  and  O_2 
REMARK    2  A    between atoms: O_2  and  C_24 
REMARK    3  A    between atoms: O_3  and  C_22 
REMARK    4  A    between atoms: O_3  and  C_26 
ROOT
HETATM    1  O   UNK N   1      28.438  24.343  -5.696  0.00  0.00    -0.338 OA
HETATM    2  N   UNK N   1      28.465  21.943 -10.260  0.00  0.00     0.089 N 
HETATM    3  C   UNK N   1      27.909  23.324  -7.735  0.00  0.00     0.030 C 
HETATM    4  C   UNK N   1      26.847  22.456  -8.406  0.00  0.00     0.057 C 
HETATM    5  C   UNK N   1      27.626  21.341  -9.200  0.00  0.00     0.235 C 
HETATM    6  C   UNK N   1      27.454  24.404  -6.695  0.00  0.00     0.176 C 
HETATM    7  C   UNK N   1      28.788  23.970  -8.822  0.00  0.00     0.048 C 
HETATM    8  C   UNK N   1      28.761  22.499  -6.871  0.00  0.00    -0.003 A 
HETATM    9  C   UNK N   1      28.549  20.460  -8.291  0.00  0.00     0.075 C 
HETATM   10  C   UNK N   1      29.431  22.927  -9.748  0.00  0.00     0.273 C 
HETATM   11  C   UNK N   1      29.162  21.201  -7.124  0.00  0.00    -0.046 A 
HETATM   12  C   UNK N   1      26.094  24.035  -6.037  0.00  0.00     0.185 C 
HETATM   13  C   UNK N   1      25.883  21.918  -7.383  0.00  0.00    -0.020 C 
HETATM   14  C   UNK N   1      29.094  23.177  -5.758  0.00  0.00     0.111 A 
HETATM   15  C   UNK N   1      25.491  22.672  -6.342  0.00  0.00     0.004 C 
HETATM   16  C   UNK N   1      27.660  22.549 -11.314  0.00  0.00     0.310 C 
HETATM   17  C   UNK N   1      30.027  20.589  -6.205  0.00  0.00     0.011 A 
HETATM   18  C   UNK N   1      29.970  22.622  -4.815  0.00  0.00     0.113 A 
HETATM   19  C   UNK N   1      30.455  21.312  -5.067  0.00  0.00     0.041 A 
ENDROOT
BRANCH  12  20
HETATM   20  O   UNK N   1      25.175  25.073  -6.026  0.00  0.00    -0.310 OA
BRANCH  20  21
HETATM   21  C   UNK N   1      25.398  26.303  -5.496  0.00  0.00     0.255 C 
HETATM   22  O   UNK N   1      25.149  27.318  -6.129  0.00  0.00    -0.266 OA
HETATM   23  C   UNK N   1      25.968  26.415  -4.125  0.00  0.00     0.126 C 
ENDBRANCH  20  21
ENDBRANCH  12  20
BRANCH  18  24
HETATM   24  O   UNK N   1      30.311  23.334  -3.706  0.00  0.00    -0.276 OA
BRANCH  24  25
HETATM   25  C   UNK N   1      29.887  23.109  -2.429  0.00  0.00     0.260 C 
HETATM   26  O   UNK N   1      30.676  22.919  -1.517  0.00  0.00    -0.265 OA
HETATM   27  C   UNK N   1      28.427  23.091  -2.140  0.00  0.00     0.126 C 
ENDBRANCH  24  25
ENDBRANCH  18  24
TORSDOF 4
ENDMDL
MODEL 8
REMARK VINA RESULT:      -7.1     13.148     14.738
REMARK  4 active torsions:
REMARK  status: ('A' for Active; 'I' for Inactive)
REMARK    1  A    between atoms: C_16  and  O_2 
REMARK    2  A    between atoms: O_2  and  C_24 
REMARK    3  A    between atoms: O_3  and  C_22 
REMARK    4  A    between atoms: O_3  and  C_26 
ROOT
HETATM    1  O   UNK N   1      27.560  25.123  -4.218  0.00  0.00    -0.338 OA
HETATM    2  N   UNK N   1      26.396  23.050  -8.794  0.00  0.00     0.089 N 
HETATM    3  C   UNK N   1      27.433  23.833  -6.166  0.00  0.00     0.030 C 
HETATM    4  C   UNK N   1      28.300  23.056  -7.153  0.00  0.00     0.057 C 
HETATM    5  C   UNK N   1      27.804  23.461  -8.591  0.00  0.00     0.235 C 
HETATM    6  C   UNK N   1      27.813  23.811  -4.646  0.00  0.00     0.176 C 
HETATM    7  C   UNK N   1      25.963  23.412  -6.353  0.00  0.00     0.048 C 
HETATM    8  C   UNK N   1      27.544  25.274  -6.423  0.00  0.00    -0.003 A 
HETATM    9  C   UNK N   1      27.907  24.998  -8.875  0.00  0.00     0.075 C 
HETATM   10  C   UNK N   1      25.476  23.614  -7.795  0.00  0.00     0.273 C 
HETATM   11  C   UNK N   1      27.673  25.871  -7.662  0.00  0.00    -0.046 A 
HETATM   12  C   UNK N   1      29.328  23.532  -4.435  0.00  0.00     0.185 C 
HETATM   13  C   UNK N   1      29.758  23.338  -6.908  0.00  0.00    -0.020 C 
HETATM   14  C   UNK N   1      27.527  25.957  -5.265  0.00  0.00     0.111 A 
HETATM   15  C   UNK N   1      30.231  23.485  -5.659  0.00  0.00     0.004 C 
HETATM   16  C   UNK N   1      26.252  21.599  -8.829  0.00  0.00     0.310 C 
HETATM   17  C   UNK N   1      27.710  27.272  -7.716  0.00  0.00     0.011 A 
HETATM   18  C   UNK N   1      27.543  27.359  -5.260  0.00  0.00     0.113 A 
HETATM   19  C   UNK N   1      27.614  28.015  -6.517  0.00  0.00     0.041 A 
ENDROOT
BRANCH  12  20
HETATM   20  O   UNK N   1      29.593  22.548  -3.495  0.00  0.00    -0.310 OA
BRANCH  20  21
HETATM   21  C   UNK N   1      30.594  22.595  -2.579  0.00  0.00     0.255 C 
HETATM   22  O   UNK N   1      30.441  23.154  -1.505  0.00  0.00    -0.266 OA
HETATM   23  C   UNK N   1      31.906  21.965  -2.899  0.00  0.00     0.126 C 
ENDBRANCH  20  21
ENDBRANCH  12  20
BRANCH  18  24
HETATM   24  O   UNK N   1      27.504  28.032  -4.077  0.00  0.00    -0.276 OA
BRANCH  24  25
HETATM   25  C   UNK N   1      26.427  28.670  -3.535  0.00  0.00     0.260 C 
HETATM   26  O   UNK N   1      25.541  28.057  -2.961  0.00  0.00    -0.265 OA
HETATM   27  C   UNK N   1      26.326  30.151  -3.650  0.00  0.00     0.126 C 
ENDBRANCH  24  25
ENDBRANCH  18  24
TORSDOF 4
ENDMDL
MODEL 9
REMARK VINA RESULT:      -6.6      9.186     11.237
REMARK  4 active torsions:
REMARK  status: ('A' for Active; 'I' for Inactive)
REMARK    1  A    between atoms: C_16  and  O_2 
REMARK    2  A    between atoms: O_2  and  C_24 
REMARK    3  A    between atoms: O_3  and  C_22 
REMARK    4  A    between atoms: O_3  and  C_26 
ROOT
HETATM    1  O   UNK N   1      19.795  16.823   4.819  0.00  0.00    -0.338 OA
HETATM    2  N   UNK N   1      19.934  11.937   3.177  0.00  0.00     0.089 N 
HETATM    3  C   UNK N   1      20.248  14.556   4.454  0.00  0.00     0.030 C 
HETATM    4  C   UNK N   1      21.390  13.543   4.448  0.00  0.00     0.057 C 
HETATM    5  C   UNK N   1      21.211  12.684   3.141  0.00  0.00     0.235 C 
HETATM    6  C   UNK N   1      20.260  15.701   5.523  0.00  0.00     0.176 C 
HETATM    7  C   UNK N   1      18.907  13.798   4.503  0.00  0.00     0.048 C 
HETATM    8  C   UNK N   1      20.285  15.366   3.231  0.00  0.00    -0.003 A 
HETATM    9  C   UNK N   1      21.237  13.537   1.827  0.00  0.00     0.075 C 
HETATM   10  C   UNK N   1      18.757  12.803   3.343  0.00  0.00     0.273 C 
HETATM   11  C   UNK N   1      20.647  14.922   1.973  0.00  0.00    -0.046 A 
HETATM   12  C   UNK N   1      21.702  16.020   6.012  0.00  0.00     0.185 C 
HETATM   13  C   UNK N   1      22.717  14.247   4.540  0.00  0.00    -0.020 C 
HETATM   14  C   UNK N   1      19.934  16.635   3.499  0.00  0.00     0.111 A 
HETATM   15  C   UNK N   1      22.868  15.336   5.312  0.00  0.00     0.004 C 
HETATM   16  C   UNK N   1      19.934  10.907   4.209  0.00  0.00     0.310 C 
HETATM   17  C   UNK N   1      20.568  15.831   0.908  0.00  0.00     0.011 A 
HETATM   18  C   UNK N   1      19.820  17.581   2.471  0.00  0.00     0.113 A 
HETATM   19  C   UNK N   1      20.125  17.151   1.153  0.00  0.00     0.041 A 
ENDROOT
BRANCH  12  20
HETATM   20  O   UNK N   1      21.826  16.085   7.390  0.00  0.00    -0.310 OA
BRANCH  20  21
HETATM   21  C   UNK N   1      20.797  16.271   8.256  0.00  0.00     0.255 C 
HETATM   22  O   UNK N   1      20.342  17.384   8.467  0.00  0.00    -0.266 OA
HETATM   23  C   UNK N   1      20.223  15.097   8.972  0.00  0.00     0.126 C 
ENDBRANCH  20  21
ENDBRANCH  12  20
BRANCH  18  24
HETATM   24  O   UNK N   1      19.443  18.856   2.762  0.00  0.00    -0.276 OA
BRANCH  24  25
HETATM   25  C   UNK N   1      20.266  19.925   2.968  0.00  0.00     0.260 C 
HETATM   26  O   UNK N   1      20.549  20.308   4.092  0.00  0.00    -0.265 OA
HETATM   27  C   UNK N   1      20.829  20.645   1.794  0.00  0.00     0.126 C 
ENDBRANCH  24  25
ENDBRANCH  18  24
TORSDOF 4
ENDMDL
