MODEL 1
REMARK VINA RESULT:      -5.8      0.000      0.000
REMARK  3 active torsions:
REMARK  status: ('A' for Active; 'I' for Inactive)
REMARK    1  A    between atoms: N_1  and  C_5 
REMARK    2  A    between atoms: N_1  and  C_10 
REMARK    3  A    between atoms: C_4  and  C_9 
ROOT
HETATM    1  C   UNK N   1      35.640  10.121  15.133  0.00  0.00    -0.004 C 
HETATM    2  C   UNK N   1      35.616  11.808  13.635  0.00  0.00     0.009 C 
HETATM    3  C   UNK N   1      36.278  11.293  15.884  0.00  0.00     0.045 C 
HETATM    4  C   UNK N   1      36.051  12.481  14.945  0.00  0.00     0.089 C 
HETATM    5  C   UNK N   1      36.201  10.418  13.765  0.00  0.00     0.012 C 
HETATM    6  C   UNK N   1      34.148  10.378  14.891  0.00  0.00     0.006 C 
HETATM    7  C   UNK N   1      34.141  11.477  13.824  0.00  0.00     0.007 C 
ENDROOT
BRANCH   3   8
HETATM    8  C   UNK N   1      35.905  11.566  17.312  0.00  0.00    -0.052 A 
HETATM    9  C   UNK N   1      35.392  12.828  17.647  0.00  0.00     0.007 A 
HETATM   10  C   UNK N   1      35.063  13.130  18.969  0.00  0.00     0.001 A 
HETATM   11  C   UNK N   1      35.240  12.170  19.970  0.00  0.00     0.000 A 
HETATM   12  C   UNK N   1      35.751  10.909  19.645  0.00  0.00     0.001 A 
HETATM   13  C   UNK N   1      36.090  10.609  18.323  0.00  0.00     0.007 A 
ENDBRANCH   3   8
BRANCH   4  14
HETATM   14  N   UNK N   1      37.209  13.370  14.830  0.00  0.00    -0.416 N 
HETATM   15  H   UNK N   1      38.175  13.043  14.781  0.00  0.00     0.153 HD
BRANCH  14  16
HETATM   16  C   UNK N   1      36.826  14.775  14.796  0.00  0.00     0.110 C 
HETATM   17  C   UNK N   1      37.403  15.474  16.008  0.00  0.00     0.026 C 
ENDBRANCH  14  16
ENDBRANCH   4  14
TORSDOF 3
ENDMDL
MODEL 2
REMARK VINA RESULT:      -5.6     24.457     26.686
REMARK  3 active torsions:
REMARK  status: ('A' for Active; 'I' for Inactive)
REMARK    1  A    between atoms: N_1  and  C_5 
REMARK    2  A    between atoms: N_1  and  C_10 
REMARK    3  A    between atoms: C_4  and  C_9 
ROOT
HETATM    1  C   UNK N   1      26.164  26.612  -4.627  0.00  0.00    -0.004 C 
HETATM    2  C   UNK N   1      25.600  26.227  -6.778  0.00  0.00     0.009 C 
HETATM    3  C   UNK N   1      26.263  25.089  -4.770  0.00  0.00     0.045 C 
HETATM    4  C   UNK N   1      26.102  24.864  -6.276  0.00  0.00     0.089 C 
HETATM    5  C   UNK N   1      24.981  26.831  -5.536  0.00  0.00     0.012 C 
HETATM    6  C   UNK N   1      27.272  27.305  -5.428  0.00  0.00     0.006 C 
HETATM    7  C   UNK N   1      26.847  27.098  -6.885  0.00  0.00     0.007 C 
ENDROOT
BRANCH   3   8
HETATM    8  C   UNK N   1      27.419  24.349  -4.164  0.00  0.00    -0.052 A 
HETATM    9  C   UNK N   1      28.473  23.944  -4.996  0.00  0.00     0.007 A 
HETATM   10  C   UNK N   1      29.551  23.226  -4.476  0.00  0.00     0.001 A 
HETATM   11  C   UNK N   1      29.586  22.909  -3.115  0.00  0.00     0.000 A 
HETATM   12  C   UNK N   1      28.540  23.308  -2.278  0.00  0.00     0.001 A 
HETATM   13  C   UNK N   1      27.455  24.018  -2.800  0.00  0.00     0.007 A 
ENDBRANCH   3   8
BRANCH   4  14
HETATM   14  N   UNK N   1      25.243  23.726  -6.613  0.00  0.00    -0.416 N 
HETATM   15  H   UNK N   1      24.247  23.682  -6.397  0.00  0.00     0.153 HD
BRANCH  14  16
HETATM   16  C   UNK N   1      25.975  22.663  -7.289  0.00  0.00     0.110 C 
HETATM   17  C   UNK N   1      25.015  21.544  -7.632  0.00  0.00     0.026 C 
ENDBRANCH  14  16
ENDBRANCH   4  14
TORSDOF 3
ENDMDL
MODEL 3
REMARK VINA RESULT:      -5.6      1.812      2.926
REMARK  3 active torsions:
REMARK  status: ('A' for Active; 'I' for Inactive)
REMARK    1  A    between atoms: N_1  and  C_5 
REMARK    2  A    between atoms: N_1  and  C_10 
REMARK    3  A    between atoms: C_4  and  C_9 
ROOT
HETATM    1  C   UNK N   1      35.944  10.903  15.160  0.00  0.00    -0.004 C 
HETATM    2  C   UNK N   1      34.451  11.116  13.481  0.00  0.00     0.009 C 
HETATM    3  C   UNK N   1      36.054  12.375  14.750  0.00  0.00     0.045 C 
HETATM    4  C   UNK N   1      34.887  12.559  13.775  0.00  0.00     0.089 C 
HETATM    5  C   UNK N   1      35.702  10.321  13.790  0.00  0.00     0.012 C 
HETATM    6  C   UNK N   1      34.593  10.625  15.830  0.00  0.00     0.006 C 
HETATM    7  C   UNK N   1      33.594  10.706  14.673  0.00  0.00     0.007 C 
ENDROOT
BRANCH   3   8
HETATM    8  C   UNK N   1      36.147  13.444  15.798  0.00  0.00    -0.052 A 
HETATM    9  C   UNK N   1      37.062  14.492  15.615  0.00  0.00     0.007 A 
HETATM   10  C   UNK N   1      37.199  15.489  16.582  0.00  0.00     0.001 A 
HETATM   11  C   UNK N   1      36.419  15.450  17.741  0.00  0.00     0.000 A 
HETATM   12  C   UNK N   1      35.504  14.410  17.932  0.00  0.00     0.001 A 
HETATM   13  C   UNK N   1      35.373  13.406  16.969  0.00  0.00     0.007 A 
ENDBRANCH   3   8
BRANCH   4  14
HETATM   14  N   UNK N   1      35.227  13.356  12.595  0.00  0.00    -0.416 N 
HETATM   15  H   UNK N   1      34.550  13.908  12.067  0.00  0.00     0.153 HD
BRANCH  14  16
HETATM   16  C   UNK N   1      36.643  13.271  12.260  0.00  0.00     0.110 C 
HETATM   17  C   UNK N   1      36.794  12.556  10.934  0.00  0.00     0.026 C 
ENDBRANCH  14  16
ENDBRANCH   4  14
TORSDOF 3
ENDMDL
MODEL 4
REMARK VINA RESULT:      -5.6      9.512     11.624
REMARK  3 active torsions:
REMARK  status: ('A' for Active; 'I' for Inactive)
REMARK    1  A    between atoms: N_1  and  C_5 
REMARK    2  A    between atoms: N_1  and  C_10 
REMARK    3  A    between atoms: C_4  and  C_9 
ROOT
HETATM    1  C   UNK N   1      31.346  16.173   5.194  0.00  0.00    -0.004 C 
HETATM    2  C   UNK N   1      33.559  16.518   5.470  0.00  0.00     0.009 C 
HETATM    3  C   UNK N   1      31.518  16.285   6.713  0.00  0.00     0.045 C 
HETATM    4  C   UNK N   1      32.971  16.741   6.871  0.00  0.00     0.089 C 
HETATM    5  C   UNK N   1      32.641  15.464   4.888  0.00  0.00     0.012 C 
HETATM    6  C   UNK N   1      31.594  17.527   4.519  0.00  0.00     0.006 C 
HETATM    7  C   UNK N   1      33.108  17.722   4.651  0.00  0.00     0.007 C 
ENDROOT
BRANCH   3   8
HETATM    8  C   UNK N   1      30.539  17.079   7.527  0.00  0.00    -0.052 A 
HETATM    9  C   UNK N   1      29.177  17.017   7.195  0.00  0.00     0.007 A 
HETATM   10  C   UNK N   1      28.239  17.764   7.908  0.00  0.00     0.001 A 
HETATM   11  C   UNK N   1      28.654  18.579   8.965  0.00  0.00     0.000 A 
HETATM   12  C   UNK N   1      30.010  18.648   9.304  0.00  0.00     0.001 A 
HETATM   13  C   UNK N   1      30.951  17.907   8.583  0.00  0.00     0.007 A 
ENDBRANCH   3   8
BRANCH   4  14
HETATM   14  N   UNK N   1      33.685  16.064   7.956  0.00  0.00    -0.416 N 
HETATM   15  H   UNK N   1      33.576  15.074   8.179  0.00  0.00     0.153 HD
BRANCH  14  16
HETATM   16  C   UNK N   1      34.568  16.967   8.684  0.00  0.00     0.110 C 
HETATM   17  C   UNK N   1      34.387  18.371   8.149  0.00  0.00     0.026 C 
ENDBRANCH  14  16
ENDBRANCH   4  14
TORSDOF 3
ENDMDL
MODEL 5
REMARK VINA RESULT:      -5.3      1.510      2.481
REMARK  3 active torsions:
REMARK  status: ('A' for Active; 'I' for Inactive)
REMARK    1  A    between atoms: N_1  and  C_5 
REMARK    2  A    between atoms: N_1  and  C_10 
REMARK    3  A    between atoms: C_4  and  C_9 
ROOT
HETATM    1  C   UNK N   1      34.539   9.800  15.016  0.00  0.00    -0.004 C 
HETATM    2  C   UNK N   1      35.760  10.521  13.261  0.00  0.00     0.009 C 
HETATM    3  C   UNK N   1      35.742  10.496  15.662  0.00  0.00     0.045 C 
HETATM    4  C   UNK N   1      36.438  11.171  14.476  0.00  0.00     0.089 C 
HETATM    5  C   UNK N   1      35.251   9.211  13.825  0.00  0.00     0.012 C 
HETATM    6  C   UNK N   1      33.626  10.821  14.328  0.00  0.00     0.006 C 
HETATM    7  C   UNK N   1      34.434  11.256  13.101  0.00  0.00     0.007 C 
ENDROOT
BRANCH   3   8
HETATM    8  C   UNK N   1      35.547  11.396  16.846  0.00  0.00    -0.052 A 
HETATM    9  C   UNK N   1      35.385  12.772  16.630  0.00  0.00     0.007 A 
HETATM   10  C   UNK N   1      35.232  13.645  17.708  0.00  0.00     0.001 A 
HETATM   11  C   UNK N   1      35.235  13.149  19.014  0.00  0.00     0.000 A 
HETATM   12  C   UNK N   1      35.396  11.778  19.240  0.00  0.00     0.001 A 
HETATM   13  C   UNK N   1      35.559  10.904  18.162  0.00  0.00     0.007 A 
ENDBRANCH   3   8
BRANCH   4  14
HETATM   14  N   UNK N   1      37.898  11.055  14.507  0.00  0.00    -0.416 N 
HETATM   15  H   UNK N   1      38.533  11.777  14.167  0.00  0.00     0.153 HD
BRANCH  14  16
HETATM   16  C   UNK N   1      38.339   9.789  15.078  0.00  0.00     0.110 C 
HETATM   17  C   UNK N   1      39.074   8.999  14.017  0.00  0.00     0.026 C 
ENDBRANCH  14  16
ENDBRANCH   4  14
TORSDOF 3
ENDMDL
MODEL 6
REMARK VINA RESULT:      -5.3     25.102     27.370
REMARK  3 active torsions:
REMARK  status: ('A' for Active; 'I' for Inactive)
REMARK    1  A    between atoms: N_1  and  C_5 
REMARK    2  A    between atoms: N_1  and  C_10 
REMARK    3  A    between atoms: C_4  and  C_9 
ROOT
HETATM    1  C   UNK N   1      25.319  25.899  -5.481  0.00  0.00    -0.004 C 
HETATM    2  C   UNK N   1      26.980  24.398  -5.770  0.00  0.00     0.009 C 
HETATM    3  C   UNK N   1      26.467  26.446  -4.627  0.00  0.00     0.045 C 
HETATM    4  C   UNK N   1      27.650  25.551  -5.007  0.00  0.00     0.089 C 
HETATM    5  C   UNK N   1      25.562  24.430  -5.241  0.00  0.00     0.012 C 
HETATM    6  C   UNK N   1      25.655  26.004  -6.973  0.00  0.00     0.006 C 
HETATM    7  C   UNK N   1      26.735  24.936  -7.175  0.00  0.00     0.007 C 
ENDROOT
BRANCH   3   8
HETATM    8  C   UNK N   1      26.784  27.913  -4.640  0.00  0.00    -0.052 A 
HETATM    9  C   UNK N   1      26.128  28.755  -3.731  0.00  0.00     0.007 A 
HETATM   10  C   UNK N   1      26.373  30.129  -3.733  0.00  0.00     0.001 A 
HETATM   11  C   UNK N   1      27.282  30.674  -4.644  0.00  0.00     0.000 A 
HETATM   12  C   UNK N   1      27.942  29.842  -5.555  0.00  0.00     0.001 A 
HETATM   13  C   UNK N   1      27.689  28.468  -5.560  0.00  0.00     0.007 A 
ENDBRANCH   3   8
BRANCH   4  14
HETATM   14  N   UNK N   1      28.471  25.143  -3.865  0.00  0.00    -0.416 N 
HETATM   15  H   UNK N   1      28.716  25.762  -3.092  0.00  0.00     0.153 HD
BRANCH  14  16
HETATM   16  C   UNK N   1      28.897  23.753  -3.960  0.00  0.00     0.110 C 
HETATM   17  C   UNK N   1      29.111  23.207  -2.564  0.00  0.00     0.026 C 
ENDBRANCH  14  16
ENDBRANCH   4  14
TORSDOF 3
ENDMDL
MODEL 7
REMARK VINA RESULT:      -5.3     11.984     13.935
REMARK  3 active torsions:
REMARK  status: ('A' for Active; 'I' for Inactive)
REMARK    1  A    between atoms: N_1  and  C_5 
REMARK    2  A    between atoms: N_1  and  C_10 
REMARK    3  A    between atoms: C_4  and  C_9 
ROOT
HETATM    1  C   UNK N   1      28.966  16.099   4.810  0.00  0.00    -0.004 C 
HETATM    2  C   UNK N   1      27.395  17.300   3.722  0.00  0.00     0.009 C 
HETATM    3  C   UNK N   1      29.091  17.504   5.409  0.00  0.00     0.045 C 
HETATM    4  C   UNK N   1      27.881  18.244   4.831  0.00  0.00     0.089 C 
HETATM    5  C   UNK N   1      28.640  16.503   3.394  0.00  0.00     0.012 C 
HETATM    6  C   UNK N   1      27.645  15.445   5.231  0.00  0.00     0.006 C 
HETATM    7  C   UNK N   1      26.590  16.222   4.437  0.00  0.00     0.007 C 
ENDROOT
BRANCH   3   8
HETATM    8  C   UNK N   1      29.262  17.680   6.889  0.00  0.00    -0.052 A 
HETATM    9  C   UNK N   1      28.171  18.128   7.648  0.00  0.00     0.007 A 
HETATM   10  C   UNK N   1      28.300  18.333   9.022  0.00  0.00     0.001 A 
HETATM   11  C   UNK N   1      29.523  18.088   9.653  0.00  0.00     0.000 A 
HETATM   12  C   UNK N   1      30.617  17.642   8.905  0.00  0.00     0.001 A 
HETATM   13  C   UNK N   1      30.491  17.445   7.527  0.00  0.00     0.007 A 
ENDBRANCH   3   8
BRANCH   4  14
HETATM   14  N   UNK N   1      28.180  19.610   4.396  0.00  0.00    -0.416 N 
HETATM   15  H   UNK N   1      29.049  19.883   3.937  0.00  0.00     0.153 HD
BRANCH  14  16
HETATM   16  C   UNK N   1      27.094  20.535   4.695  0.00  0.00     0.110 C 
HETATM   17  C   UNK N   1      27.398  21.250   5.994  0.00  0.00     0.026 C 
ENDBRANCH  14  16
ENDBRANCH   4  14
TORSDOF 3
ENDMDL
MODEL 8
REMARK VINA RESULT:      -5.3     24.205     26.347
REMARK  3 active torsions:
REMARK  status: ('A' for Active; 'I' for Inactive)
REMARK    1  A    between atoms: N_1  and  C_5 
REMARK    2  A    between atoms: N_1  and  C_10 
REMARK    3  A    between atoms: C_4  and  C_9 
ROOT
HETATM    1  C   UNK N   1      27.342  26.891  -5.934  0.00  0.00    -0.004 C 
HETATM    2  C   UNK N   1      25.588  27.933  -4.971  0.00  0.00     0.009 C 
HETATM    3  C   UNK N   1      27.652  26.829  -4.435  0.00  0.00     0.045 C 
HETATM    4  C   UNK N   1      26.359  27.332  -3.786  0.00  0.00     0.089 C 
HETATM    5  C   UNK N   1      26.690  28.251  -5.958  0.00  0.00     0.012 C 
HETATM    6  C   UNK N   1      26.147  25.995  -6.280  0.00  0.00     0.006 C 
HETATM    7  C   UNK N   1      24.952  26.743  -5.680  0.00  0.00     0.007 C 
ENDROOT
BRANCH   3   8
HETATM    8  C   UNK N   1      28.188  25.567  -3.827  0.00  0.00    -0.052 A 
HETATM    9  C   UNK N   1      29.566  25.314  -3.898  0.00  0.00     0.007 A 
HETATM   10  C   UNK N   1      30.098  24.137  -3.371  0.00  0.00     0.001 A 
HETATM   11  C   UNK N   1      29.257  23.201  -2.764  0.00  0.00     0.000 A 
HETATM   12  C   UNK N   1      27.881  23.443  -2.689  0.00  0.00     0.001 A 
HETATM   13  C   UNK N   1      27.346  24.618  -3.225  0.00  0.00     0.007 A 
ENDBRANCH   3   8
BRANCH   4  14
HETATM   14  N   UNK N   1      26.581  28.246  -2.663  0.00  0.00    -0.416 N 
HETATM   15  H   UNK N   1      25.949  28.332  -1.867  0.00  0.00     0.153 HD
BRANCH  14  16
HETATM   16  C   UNK N   1      27.807  29.019  -2.815  0.00  0.00     0.110 C 
HETATM   17  C   UNK N   1      28.119  29.710  -1.505  0.00  0.00     0.026 C 
ENDBRANCH  14  16
ENDBRANCH   4  14
TORSDOF 3
ENDMDL
MODEL 9
REMARK VINA RESULT:      -5.2     13.919     16.054
REMARK  3 active torsions:
REMARK  status: ('A' for Active; 'I' for Inactive)
REMARK    1  A    between atoms: N_1  and  C_5 
REMARK    2  A    between atoms: N_1  and  C_10 
REMARK    3  A    between atoms: C_4  and  C_9 
ROOT
HETATM    1  C   UNK N   1      22.933  13.363   6.880  0.00  0.00    -0.004 C 
HETATM    2  C   UNK N   1      20.921  14.335   6.571  0.00  0.00     0.009 C 
HETATM    3  C   UNK N   1      22.614  13.996   8.238  0.00  0.00     0.045 C 
HETATM    4  C   UNK N   1      21.161  14.453   8.083  0.00  0.00     0.089 C 
HETATM    5  C   UNK N   1      22.321  14.427   6.004  0.00  0.00     0.012 C 
HETATM    6  C   UNK N   1      21.994  12.184   6.597  0.00  0.00     0.006 C 
HETATM    7  C   UNK N   1      20.646  12.857   6.322  0.00  0.00     0.007 C 
ENDROOT
BRANCH   3   8
HETATM    8  C   UNK N   1      22.883  13.239   9.505  0.00  0.00    -0.052 A 
HETATM    9  C   UNK N   1      24.210  12.932   9.841  0.00  0.00     0.007 A 
HETATM   10  C   UNK N   1      24.498  12.202  10.995  0.00  0.00     0.001 A 
HETATM   11  C   UNK N   1      23.460  11.776  11.829  0.00  0.00     0.000 A 
HETATM   12  C   UNK N   1      22.134  12.077  11.502  0.00  0.00     0.001 A 
HETATM   13  C   UNK N   1      21.844  12.799  10.341  0.00  0.00     0.007 A 
ENDBRANCH   3   8
BRANCH   4  14
HETATM   14  N   UNK N   1      20.896  15.776   8.652  0.00  0.00    -0.416 N 
HETATM   15  H   UNK N   1      21.528  16.257   9.292  0.00  0.00     0.153 HD
BRANCH  14  16
HETATM   16  C   UNK N   1      19.625  16.327   8.199  0.00  0.00     0.110 C 
HETATM   17  C   UNK N   1      19.376  17.640   8.909  0.00  0.00     0.026 C 
ENDBRANCH  14  16
ENDBRANCH   4  14
TORSDOF 3
ENDMDL
