MODEL 1
REMARK VINA RESULT:      -7.2      0.000      0.000
REMARK  3 active torsions:
REMARK  status: ('A' for Active; 'I' for Inactive)
REMARK    1  A    between atoms: C_14  and  O_2 
REMARK    2  A    between atoms: O_3  and  C_20 
REMARK    3  A    between atoms: O_3  and  C_22 
ROOT
HETATM    1  O   UNK N   1      20.233  13.636   9.679  0.00  0.00    -0.338 OA
HETATM    2  N   UNK N   1      23.371  12.766   5.826  0.00  0.00     0.089 N 
HETATM    3  C   UNK N   1      22.078  13.123   8.413  0.00  0.00     0.030 C 
HETATM    4  C   UNK N   1      23.570  12.889   8.287  0.00  0.00     0.057 C 
HETATM    5  C   UNK N   1      23.987  13.552   6.932  0.00  0.00     0.235 C 
HETATM    6  C   UNK N   1      21.525  13.132   9.846  0.00  0.00     0.175 C 
HETATM    7  C   UNK N   1      21.441  12.148   7.402  0.00  0.00     0.048 C 
HETATM    8  C   UNK N   1      21.549  14.436   8.083  0.00  0.00    -0.003 A 
HETATM    9  C   UNK N   1      23.541  15.053   6.754  0.00  0.00     0.075 C 
HETATM   10  C   UNK N   1      21.917  12.498   5.962  0.00  0.00     0.273 C 
HETATM   11  C   UNK N   1      22.142  15.357   7.265  0.00  0.00    -0.046 A 
HETATM   12  C   UNK N   1      22.089  11.930  10.596  0.00  0.00     0.171 C 
HETATM   13  C   UNK N   1      24.260  12.896   9.637  0.00  0.00    -0.020 C 
HETATM   14  C   UNK N   1      20.393  14.639   8.773  0.00  0.00     0.110 A 
HETATM   15  C   UNK N   1      23.605  12.290  10.690  0.00  0.00     0.004 C 
HETATM   16  C   UNK N   1      21.449  16.562   7.046  0.00  0.00     0.011 A 
HETATM   17  C   UNK N   1      24.066  11.499   5.614  0.00  0.00     0.310 C 
HETATM   18  C   UNK N   1      19.663  15.812   8.594  0.00  0.00     0.102 A 
HETATM   19  C   UNK N   1      20.194  16.777   7.684  0.00  0.00     0.040 A 
ENDROOT
BRANCH  18  20
HETATM   20  O   UNK N   1      18.539  16.041   9.312  0.00  0.00    -0.349 OA
BRANCH  20  21
HETATM   21  C   UNK N   1      17.620  17.008   8.966  0.00  0.00     0.171 C 
HETATM   22  C   UNK N   1      17.430  17.965  10.126  0.00  0.00     0.034 C 
ENDBRANCH  20  21
ENDBRANCH  18  20
BRANCH  12  23
HETATM   23  O   UNK N   1      21.550  11.869  11.881  0.00  0.00    -0.389 OA
HETATM   24  H   UNK N   1      21.072  11.076  12.174  0.00  0.00     0.210 HD
ENDBRANCH  12  23
TORSDOF 3
ENDMDL
MODEL 2
REMARK VINA RESULT:      -6.9      8.853     10.896
REMARK  3 active torsions:
REMARK  status: ('A' for Active; 'I' for Inactive)
REMARK    1  A    between atoms: C_14  and  O_2 
REMARK    2  A    between atoms: O_3  and  C_20 
REMARK    3  A    between atoms: O_3  and  C_22 
ROOT
HETATM    1  O   UNK N   1      29.383  16.518   5.790  0.00  0.00    -0.338 OA
HETATM    2  N   UNK N   1      33.761  15.914   8.224  0.00  0.00     0.089 N 
HETATM    3  C   UNK N   1      31.126  16.715   7.273  0.00  0.00     0.030 C 
HETATM    4  C   UNK N   1      31.843  17.467   8.375  0.00  0.00     0.057 C 
HETATM    5  C   UNK N   1      33.368  17.341   8.046  0.00  0.00     0.235 C 
HETATM    6  C   UNK N   1      29.681  17.161   6.995  0.00  0.00     0.175 C 
HETATM    7  C   UNK N   1      31.370  15.226   7.590  0.00  0.00     0.048 C 
HETATM    8  C   UNK N   1      31.564  16.904   5.900  0.00  0.00    -0.003 A 
HETATM    9  C   UNK N   1      33.777  17.768   6.586  0.00  0.00     0.075 C 
HETATM   10  C   UNK N   1      32.896  14.921   7.539  0.00  0.00     0.273 C 
HETATM   11  C   UNK N   1      32.804  17.326   5.505  0.00  0.00    -0.046 A 
HETATM   12  C   UNK N   1      28.943  17.284   8.323  0.00  0.00     0.171 C 
HETATM   13  C   UNK N   1      31.039  18.656   8.865  0.00  0.00    -0.020 C 
HETATM   14  C   UNK N   1      30.522  16.660   5.059  0.00  0.00     0.110 A 
HETATM   15  C   UNK N   1      29.674  18.494   8.986  0.00  0.00     0.004 C 
HETATM   16  C   UNK N   1      33.042  17.414   4.121  0.00  0.00     0.011 A 
HETATM   17  C   UNK N   1      33.863  15.556   9.636  0.00  0.00     0.310 C 
HETATM   18  C   UNK N   1      30.700  16.730   3.679  0.00  0.00     0.102 A 
HETATM   19  C   UNK N   1      32.000  17.085   3.207  0.00  0.00     0.040 A 
ENDROOT
BRANCH  18  20
HETATM   20  O   UNK N   1      29.657  16.536   2.839  0.00  0.00    -0.349 OA
BRANCH  20  21
HETATM   21  C   UNK N   1      29.206  15.281   2.492  0.00  0.00     0.171 C 
HETATM   22  C   UNK N   1      27.692  15.292   2.406  0.00  0.00     0.034 C 
ENDBRANCH  20  21
ENDBRANCH  18  20
BRANCH  12  23
HETATM   23  O   UNK N   1      27.607  17.620   8.102  0.00  0.00    -0.389 OA
HETATM   24  H   UNK N   1      27.315  17.907   7.222  0.00  0.00     0.210 HD
ENDBRANCH  12  23
TORSDOF 3
ENDMDL
MODEL 3
REMARK VINA RESULT:      -6.7     14.749     17.103
REMARK  3 active torsions:
REMARK  status: ('A' for Active; 'I' for Inactive)
REMARK    1  A    between atoms: C_14  and  O_2 
REMARK    2  A    between atoms: O_3  and  C_20 
REMARK    3  A    between atoms: O_3  and  C_22 
ROOT
HETATM    1  O   UNK N   1      36.277   9.524  17.739  0.00  0.00    -0.338 OA
HETATM    2  N   UNK N   1      34.614  12.002  13.672  0.00  0.00     0.089 N 
HETATM    3  C   UNK N   1      36.129  10.538  15.684  0.00  0.00     0.030 C 
HETATM    4  C   UNK N   1      36.784  11.099  14.439  0.00  0.00     0.057 C 
HETATM    5  C   UNK N   1      35.986  12.401  14.095  0.00  0.00     0.235 C 
HETATM    6  C   UNK N   1      37.026   9.656  16.567  0.00  0.00     0.175 C 
HETATM    7  C   UNK N   1      34.795   9.941  15.192  0.00  0.00     0.048 C 
HETATM    8  C   UNK N   1      35.781  11.451  16.760  0.00  0.00    -0.003 A 
HETATM    9  C   UNK N   1      35.838  13.430  15.279  0.00  0.00     0.075 C 
HETATM   10  C   UNK N   1      33.908  11.067  14.584  0.00  0.00     0.273 C 
HETATM   11  C   UNK N   1      35.564  12.795  16.632  0.00  0.00    -0.046 A 
HETATM   12  C   UNK N   1      37.758   8.658  15.678  0.00  0.00     0.171 C 
HETATM   13  C   UNK N   1      38.275  10.824  14.410  0.00  0.00    -0.020 C 
HETATM   14  C   UNK N   1      35.769  10.770  17.939  0.00  0.00     0.110 A 
HETATM   15  C   UNK N   1      38.703   9.591  14.856  0.00  0.00     0.004 C 
HETATM   16  C   UNK N   1      35.203  13.501  17.795  0.00  0.00     0.011 A 
HETATM   17  C   UNK N   1      34.608  11.440  12.324  0.00  0.00     0.310 C 
HETATM   18  C   UNK N   1      35.417  11.418  19.122  0.00  0.00     0.102 A 
HETATM   19  C   UNK N   1      35.098  12.807  19.034  0.00  0.00     0.040 A 
ENDROOT
BRANCH  18  20
HETATM   20  O   UNK N   1      35.449  10.759  20.304  0.00  0.00    -0.349 OA
BRANCH  20  21
HETATM   21  C   UNK N   1      34.308  10.417  20.995  0.00  0.00     0.171 C 
HETATM   22  C   UNK N   1      33.674   9.196  20.357  0.00  0.00     0.034 C 
ENDBRANCH  20  21
ENDBRANCH  18  20
BRANCH  12  23
HETATM   23  O   UNK N   1      38.529   7.794  16.457  0.00  0.00    -0.389 OA
HETATM   24  H   UNK N   1      38.104   7.083  16.964  0.00  0.00     0.210 HD
ENDBRANCH  12  23
TORSDOF 3
ENDMDL
MODEL 4
REMARK VINA RESULT:      -6.7     13.316     14.868
REMARK  3 active torsions:
REMARK  status: ('A' for Active; 'I' for Inactive)
REMARK    1  A    between atoms: C_14  and  O_2 
REMARK    2  A    between atoms: O_3  and  C_20 
REMARK    3  A    between atoms: O_3  and  C_22 
ROOT
HETATM    1  O   UNK N   1      35.315  14.217  13.260  0.00  0.00    -0.338 OA
HETATM    2  N   UNK N   1      36.690  10.778   9.834  0.00  0.00     0.089 N 
HETATM    3  C   UNK N   1      35.609  13.050  11.305  0.00  0.00     0.030 C 
HETATM    4  C   UNK N   1      35.248  12.786   9.858  0.00  0.00     0.057 C 
HETATM    5  C   UNK N   1      35.276  11.230   9.694  0.00  0.00     0.235 C 
HETATM    6  C   UNK N   1      35.087  14.372  11.891  0.00  0.00     0.175 C 
HETATM    7  C   UNK N   1      37.125  12.777  11.388  0.00  0.00     0.048 C 
HETATM    8  C   UNK N   1      35.002  12.226  12.337  0.00  0.00    -0.003 A 
HETATM    9  C   UNK N   1      34.415  10.430  10.742  0.00  0.00     0.075 C 
HETATM   10  C   UNK N   1      37.410  11.289  11.029  0.00  0.00     0.273 C 
HETATM   11  C   UNK N   1      34.487  10.971  12.160  0.00  0.00    -0.046 A 
HETATM   12  C   UNK N   1      35.381  15.495  10.902  0.00  0.00     0.171 C 
HETATM   13  C   UNK N   1      34.267  13.812   9.323  0.00  0.00    -0.020 C 
HETATM   14  C   UNK N   1      34.960  12.927  13.503  0.00  0.00     0.110 A 
HETATM   15  C   UNK N   1      34.447  15.125   9.707  0.00  0.00     0.004 C 
HETATM   16  C   UNK N   1      33.970  10.324  13.298  0.00  0.00     0.011 A 
HETATM   17  C   UNK N   1      37.475  11.087   8.643  0.00  0.00     0.310 C 
HETATM   18  C   UNK N   1      34.461  12.335  14.662  0.00  0.00     0.102 A 
HETATM   19  C   UNK N   1      33.986  10.992  14.555  0.00  0.00     0.040 A 
ENDROOT
BRANCH  18  20
HETATM   20  O   UNK N   1      34.373  13.041  15.813  0.00  0.00    -0.349 OA
BRANCH  20  21
HETATM   21  C   UNK N   1      35.040  12.676  16.962  0.00  0.00     0.171 C 
HETATM   22  C   UNK N   1      35.188  13.883  17.868  0.00  0.00     0.034 C 
ENDBRANCH  20  21
ENDBRANCH  18  20
BRANCH  12  23
HETATM   23  O   UNK N   1      34.982  16.721  11.435  0.00  0.00    -0.389 OA
HETATM   24  H   UNK N   1      35.498  17.136  12.146  0.00  0.00     0.210 HD
ENDBRANCH  12  23
TORSDOF 3
ENDMDL
MODEL 5
REMARK VINA RESULT:      -6.6     17.203     19.526
REMARK  3 active torsions:
REMARK  status: ('A' for Active; 'I' for Inactive)
REMARK    1  A    between atoms: C_14  and  O_2 
REMARK    2  A    between atoms: O_3  and  C_20 
REMARK    3  A    between atoms: O_3  and  C_22 
ROOT
HETATM    1  O   UNK N   1      27.204  24.152  -4.531  0.00  0.00    -0.338 OA
HETATM    2  N   UNK N   1      27.519  29.116  -3.687  0.00  0.00     0.089 N 
HETATM    3  C   UNK N   1      27.189  26.435  -4.779  0.00  0.00     0.030 C 
HETATM    4  C   UNK N   1      27.176  27.667  -5.660  0.00  0.00     0.057 C 
HETATM    5  C   UNK N   1      28.142  28.688  -4.971  0.00  0.00     0.235 C 
HETATM    6  C   UNK N   1      26.844  25.112  -5.481  0.00  0.00     0.175 C 
HETATM    7  C   UNK N   1      26.361  26.829  -3.540  0.00  0.00     0.048 C 
HETATM    8  C   UNK N   1      28.464  25.958  -4.268  0.00  0.00    -0.003 A 
HETATM    9  C   UNK N   1      29.579  28.133  -4.641  0.00  0.00     0.075 C 
HETATM   10  C   UNK N   1      27.047  28.018  -2.805  0.00  0.00     0.273 C 
HETATM   11  C   UNK N   1      29.597  26.708  -4.113  0.00  0.00    -0.046 A 
HETATM   12  C   UNK N   1      25.598  25.322  -6.334  0.00  0.00     0.171 C 
HETATM   13  C   UNK N   1      27.002  27.314  -7.125  0.00  0.00    -0.020 C 
HETATM   14  C   UNK N   1      28.377  24.621  -4.028  0.00  0.00     0.110 A 
HETATM   15  C   UNK N   1      26.122  26.298  -7.435  0.00  0.00     0.004 C 
HETATM   16  C   UNK N   1      30.723  26.064  -3.568  0.00  0.00     0.011 A 
HETATM   17  C   UNK N   1      26.418  30.050  -3.907  0.00  0.00     0.310 C 
HETATM   18  C   UNK N   1      29.462  23.932  -3.487  0.00  0.00     0.102 A 
HETATM   19  C   UNK N   1      30.647  24.684  -3.225  0.00  0.00     0.040 A 
ENDROOT
BRANCH  18  20
HETATM   20  O   UNK N   1      29.399  22.594  -3.290  0.00  0.00    -0.349 OA
BRANCH  20  21
HETATM   21  C   UNK N   1      30.366  21.729  -3.753  0.00  0.00     0.171 C 
HETATM   22  C   UNK N   1      30.007  21.267  -5.152  0.00  0.00     0.034 C 
ENDBRANCH  20  21
ENDBRANCH  18  20
BRANCH  12  23
HETATM   23  O   UNK N   1      25.216  24.120  -6.930  0.00  0.00    -0.389 OA
HETATM   24  H   UNK N   1      25.860  23.401  -7.039  0.00  0.00     0.210 HD
ENDBRANCH  12  23
TORSDOF 3
ENDMDL
MODEL 6
REMARK VINA RESULT:      -6.5     16.251     18.514
REMARK  3 active torsions:
REMARK  status: ('A' for Active; 'I' for Inactive)
REMARK    1  A    between atoms: C_14  and  O_2 
REMARK    2  A    between atoms: O_3  and  C_20 
REMARK    3  A    between atoms: O_3  and  C_22 
ROOT
HETATM    1  O   UNK N   1      30.310  22.453  -5.310  0.00  0.00    -0.338 OA
HETATM    2  N   UNK N   1      27.010  26.231  -4.766  0.00  0.00     0.089 N 
HETATM    3  C   UNK N   1      28.787  23.943  -4.453  0.00  0.00     0.030 C 
HETATM    4  C   UNK N   1      27.825  24.367  -3.361  0.00  0.00     0.057 C 
HETATM    5  C   UNK N   1      26.584  24.965  -4.103  0.00  0.00     0.235 C 
HETATM    6  C   UNK N   1      29.766  22.820  -4.076  0.00  0.00     0.175 C 
HETATM    7  C   UNK N   1      29.377  25.261  -4.991  0.00  0.00     0.048 C 
HETATM    8  C   UNK N   1      28.260  23.243  -5.612  0.00  0.00    -0.003 A 
HETATM    9  C   UNK N   1      25.953  24.038  -5.210  0.00  0.00     0.075 C 
HETATM   10  C   UNK N   1      28.241  26.139  -5.592  0.00  0.00     0.273 C 
HETATM   11  C   UNK N   1      26.969  23.295  -6.062  0.00  0.00    -0.046 A 
HETATM   12  C   UNK N   1      30.381  23.142  -2.718  0.00  0.00     0.171 C 
HETATM   13  C   UNK N   1      27.901  23.453  -2.153  0.00  0.00    -0.020 C 
HETATM   14  C   UNK N   1      29.239  22.465  -6.149  0.00  0.00     0.110 A 
HETATM   15  C   UNK N   1      29.149  23.010  -1.768  0.00  0.00     0.004 C 
HETATM   16  C   UNK N   1      26.665  22.568  -7.228  0.00  0.00     0.011 A 
HETATM   17  C   UNK N   1      27.169  27.316  -3.802  0.00  0.00     0.310 C 
HETATM   18  C   UNK N   1      28.995  21.725  -7.305  0.00  0.00     0.102 A 
HETATM   19  C   UNK N   1      27.686  21.808  -7.868  0.00  0.00     0.040 A 
ENDROOT
BRANCH  18  20
HETATM   20  O   UNK N   1      29.949  20.913  -7.817  0.00  0.00    -0.349 OA
BRANCH  20  21
HETATM   21  C   UNK N   1      29.656  19.851  -8.644  0.00  0.00     0.171 C 
HETATM   22  C   UNK N   1      29.417  18.608  -7.808  0.00  0.00     0.034 C 
ENDBRANCH  20  21
ENDBRANCH  18  20
BRANCH  12  23
HETATM   23  O   UNK N   1      31.329  22.177  -2.379  0.00  0.00    -0.389 OA
HETATM   24  H   UNK N   1      31.060  21.255  -2.237  0.00  0.00     0.210 HD
ENDBRANCH  12  23
TORSDOF 3
ENDMDL
MODEL 7
REMARK VINA RESULT:      -6.3      8.941     10.659
REMARK  3 active torsions:
REMARK  status: ('A' for Active; 'I' for Inactive)
REMARK    1  A    between atoms: C_14  and  O_2 
REMARK    2  A    between atoms: O_3  and  C_20 
REMARK    3  A    between atoms: O_3  and  C_22 
ROOT
HETATM    1  O   UNK N   1      29.760  16.868   6.758  0.00  0.00    -0.338 OA
HETATM    2  N   UNK N   1      33.793  14.305   5.138  0.00  0.00     0.089 N 
HETATM    3  C   UNK N   1      31.910  16.180   6.333  0.00  0.00     0.030 C 
HETATM    4  C   UNK N   1      33.401  16.447   6.309  0.00  0.00     0.057 C 
HETATM    5  C   UNK N   1      33.927  15.783   4.993  0.00  0.00     0.235 C 
HETATM    6  C   UNK N   1      31.068  17.183   7.137  0.00  0.00     0.175 C 
HETATM    7  C   UNK N   1      31.783  14.686   6.690  0.00  0.00     0.048 C 
HETATM    8  C   UNK N   1      31.151  16.360   5.107  0.00  0.00    -0.003 A 
HETATM    9  C   UNK N   1      33.164  16.202   3.680  0.00  0.00     0.075 C 
HETATM   10  C   UNK N   1      32.463  13.822   5.587  0.00  0.00     0.273 C 
HETATM   11  C   UNK N   1      31.657  16.315   3.837  0.00  0.00    -0.046 A 
HETATM   12  C   UNK N   1      31.737  17.411   8.488  0.00  0.00     0.171 C 
HETATM   13  C   UNK N   1      33.748  17.780   6.943  0.00  0.00    -0.020 C 
HETATM   14  C   UNK N   1      29.858  16.650   5.419  0.00  0.00     0.110 A 
HETATM   15  C   UNK N   1      33.051  18.147   8.076  0.00  0.00     0.004 C 
HETATM   16  C   UNK N   1      30.746  16.481   2.776  0.00  0.00     0.011 A 
HETATM   17  C   UNK N   1      34.817  13.757   6.023  0.00  0.00     0.310 C 
HETATM   18  C   UNK N   1      28.912  16.822   4.409  0.00  0.00     0.102 A 
HETATM   19  C   UNK N   1      29.368  16.703   3.062  0.00  0.00     0.040 A 
ENDROOT
BRANCH  18  20
HETATM   20  O   UNK N   1      27.636  17.157   4.711  0.00  0.00    -0.349 OA
BRANCH  20  21
HETATM   21  C   UNK N   1      26.881  17.995   3.920  0.00  0.00     0.171 C 
HETATM   22  C   UNK N   1      27.295  19.433   4.163  0.00  0.00     0.034 C 
ENDBRANCH  20  21
ENDBRANCH  18  20
BRANCH  12  23
HETATM   23  O   UNK N   1      30.960  18.264   9.272  0.00  0.00    -0.389 OA
HETATM   24  H   UNK N   1      30.169  17.927   9.725  0.00  0.00     0.210 HD
ENDBRANCH  12  23
TORSDOF 3
ENDMDL
MODEL 8
REMARK VINA RESULT:      -6.1     16.728     18.939
REMARK  3 active torsions:
REMARK  status: ('A' for Active; 'I' for Inactive)
REMARK    1  A    between atoms: C_14  and  O_2 
REMARK    2  A    between atoms: O_3  and  C_20 
REMARK    3  A    between atoms: O_3  and  C_22 
ROOT
HETATM    1  O   UNK N   1      28.285  23.661  -5.631  0.00  0.00    -0.338 OA
HETATM    2  N   UNK N   1      29.332  21.081  -9.838  0.00  0.00     0.089 N 
HETATM    3  C   UNK N   1      28.125  22.349  -7.508  0.00  0.00     0.030 C 
HETATM    4  C   UNK N   1      27.365  21.357  -8.365  0.00  0.00     0.057 C 
HETATM    5  C   UNK N   1      28.439  20.349  -8.895  0.00  0.00     0.235 C 
HETATM    6  C   UNK N   1      27.303  23.049  -6.414  0.00  0.00     0.175 C 
HETATM    7  C   UNK N   1      28.886  23.236  -8.514  0.00  0.00     0.048 C 
HETATM    8  C   UNK N   1      29.129  21.847  -6.585  0.00  0.00    -0.003 A 
HETATM    9  C   UNK N   1      29.350  19.697  -7.787  0.00  0.00     0.075 C 
HETATM   10  C   UNK N   1      29.883  22.365  -9.334  0.00  0.00     0.273 C 
HETATM   11  C   UNK N   1      29.789  20.653  -6.690  0.00  0.00    -0.046 A 
HETATM   12  C   UNK N   1      25.996  23.543  -7.025  0.00  0.00     0.171 C 
HETATM   13  C   UNK N   1      25.963  21.114  -7.841  0.00  0.00    -0.020 C 
HETATM   14  C   UNK N   1      29.266  22.722  -5.552  0.00  0.00     0.110 A 
HETATM   15  C   UNK N   1      25.268  22.201  -7.354  0.00  0.00     0.004 C 
HETATM   16  C   UNK N   1      30.753  20.364  -5.707  0.00  0.00     0.011 A 
HETATM   17  C   UNK N   1      28.679  21.320 -11.121  0.00  0.00     0.310 C 
HETATM   18  C   UNK N   1      30.207  22.488  -4.551  0.00  0.00     0.102 A 
HETATM   19  C   UNK N   1      30.986  21.295  -4.655  0.00  0.00     0.040 A 
ENDROOT
BRANCH  18  20
HETATM   20  O   UNK N   1      30.315  23.330  -3.497  0.00  0.00    -0.349 OA
BRANCH  20  21
HETATM   21  C   UNK N   1      30.107  22.923  -2.197  0.00  0.00     0.171 C 
HETATM   22  C   UNK N   1      28.633  23.034  -1.860  0.00  0.00     0.034 C 
ENDBRANCH  20  21
ENDBRANCH  18  20
BRANCH  12  23
HETATM   23  O   UNK N   1      25.257  24.246  -6.075  0.00  0.00    -0.389 OA
HETATM   24  H   UNK N   1      24.641  23.777  -5.489  0.00  0.00     0.210 HD
ENDBRANCH  12  23
TORSDOF 3
ENDMDL
MODEL 9
REMARK VINA RESULT:      -6.1     13.048     15.798
REMARK  3 active torsions:
REMARK  status: ('A' for Active; 'I' for Inactive)
REMARK    1  A    between atoms: C_14  and  O_2 
REMARK    2  A    between atoms: O_3  and  C_20 
REMARK    3  A    between atoms: O_3  and  C_22 
ROOT
HETATM    1  O   UNK N   1      35.621  14.390  12.711  0.00  0.00    -0.338 OA
HETATM    2  N   UNK N   1      38.531  12.039   9.326  0.00  0.00     0.089 N 
HETATM    3  C   UNK N   1      36.367  13.203  10.893  0.00  0.00     0.030 C 
HETATM    4  C   UNK N   1      36.102  12.293   9.711  0.00  0.00     0.057 C 
HETATM    5  C   UNK N   1      37.297  11.283   9.681  0.00  0.00     0.235 C 
HETATM    6  C   UNK N   1      35.126  13.862  11.516  0.00  0.00     0.175 C 
HETATM    7  C   UNK N   1      37.515  14.123  10.431  0.00  0.00     0.048 C 
HETATM    8  C   UNK N   1      36.813  12.609  12.142  0.00  0.00    -0.003 A 
HETATM    9  C   UNK N   1      37.573  10.532  11.038  0.00  0.00     0.075 C 
HETATM   10  C   UNK N   1      38.779  13.269  10.120  0.00  0.00     0.273 C 
HETATM   11  C   UNK N   1      37.442  11.402  12.277  0.00  0.00    -0.046 A 
HETATM   12  C   UNK N   1      34.265  14.438  10.397  0.00  0.00     0.171 C 
HETATM   13  C   UNK N   1      34.618  12.067   9.492  0.00  0.00    -0.020 C 
HETATM   14  C   UNK N   1      36.446  13.414  13.177  0.00  0.00     0.110 A 
HETATM   15  C   UNK N   1      33.777  13.146   9.669  0.00  0.00     0.004 C 
HETATM   16  C   UNK N   1      37.826  11.019  13.576  0.00  0.00     0.011 A 
HETATM   17  C   UNK N   1      38.563  12.380   7.907  0.00  0.00     0.310 C 
HETATM   18  C   UNK N   1      36.801  13.086  14.484  0.00  0.00     0.102 A 
HETATM   19  C   UNK N   1      37.534  11.876  14.676  0.00  0.00     0.040 A 
ENDROOT
BRANCH  18  20
HETATM   20  O   UNK N   1      36.399  13.857  15.521  0.00  0.00    -0.349 OA
BRANCH  20  21
HETATM   21  C   UNK N   1      35.684  13.355  16.587  0.00  0.00     0.171 C 
HETATM   22  C   UNK N   1      34.317  12.901  16.113  0.00  0.00     0.034 C 
ENDBRANCH  20  21
ENDBRANCH  18  20
BRANCH  12  23
HETATM   23  O   UNK N   1      33.164  15.107  10.933  0.00  0.00    -0.389 OA
HETATM   24  H   UNK N   1      33.246  15.590  11.772  0.00  0.00     0.210 HD
ENDBRANCH  12  23
TORSDOF 3
ENDMDL
