REMARK  6 active torsions:
REMARK  status: ('A' for Active; 'I' for Inactive)
REMARK    1  A    between atoms: N_4  and  C_11 
REMARK    2  A    between atoms: N_5  and  C_10 
REMARK    3  A    between atoms: N_5  and  C_12 
REMARK    4  A    between atoms: C_10  and  C_14 
REMARK    5  A    between atoms: C_11  and  C_12 
REMARK    6  A    between atoms: C_14  and  C_19 
ROOT
HETATM    1  O   UNK N   1       1.306   4.217   0.933  0.00  0.00    -0.265 OA
HETATM    2  O   UNK N   1      -0.906   0.609  -0.680  0.00  0.00    -0.246 OA
HETATM    3  N   UNK N   1       3.721   2.595   0.945  0.00  0.00    -0.334 N 
HETATM    4  N   UNK N   1       1.305   0.394  -0.272  0.00  0.00    -0.287 N 
HETATM    5  N   UNK N   1       0.131   2.460   0.115  0.00  0.00    -0.269 N 
HETATM    6  N   UNK N   1       3.663   0.460   0.252  0.00  0.00    -0.336 N 
ATOM      7  HN  UNK N   1       3.946  -0.489   0.010  1.00  0.00     0.168 HD
HETATM    8  C   UNK N   1       2.463   2.293   0.570  0.00  0.00     0.149 A 
HETATM    9  C   UNK N   1       2.436   1.006   0.156  0.00  0.00     0.145 A 
HETATM   10  C   UNK N   1       4.439   1.462   0.744  0.00  0.00     0.185 A 
HETATM   11  C   UNK N   1       1.299   3.055   0.561  0.00  0.00     0.282 A 
HETATM   12  C   UNK N   1       0.130   1.129  -0.297  0.00  0.00     0.332 A 
HETATM   13  C   UNK N   1       1.330  -1.004  -0.687  0.00  0.00     0.163 C 
HETATM   14  C   UNK N   1      -1.109   3.231   0.077  0.00  0.00     0.164 C 
ENDROOT
BRANCH   3  15
HETATM   15  C   UNK N   1       4.270   3.820   1.531  0.00  0.00     0.149 C 
BRANCH  15  16
HETATM   16  C   UNK N   1       4.116   5.092   0.690  0.00  0.00     0.134 C 
BRANCH  16  17
HETATM   17  N   UNK N   1       3.819   4.833  -0.712  0.00  0.00    -0.416 N 
HETATM   18  H   UNK N   1       2.901   4.557  -1.062  0.00  0.00     0.153 HD
BRANCH  17  19
HETATM   19  C   UNK N   1       4.999   5.015  -1.558  0.00  0.00     0.076 C 
HETATM   20  C   UNK N   1       5.823   3.751  -1.735  0.00  0.00     0.032 C 
BRANCH  19  21
HETATM   21  C   UNK N   1       5.740   6.363  -1.428  0.00  0.00     0.062 C 
BRANCH  21  22
HETATM   22  C   UNK N   1       7.024   6.415  -0.634  0.00  0.00    -0.056 A 
HETATM   23  C   UNK N   1       7.771   7.600  -0.661  0.00  0.00     0.007 A 
HETATM   24  C   UNK N   1       8.996   7.682   0.011  0.00  0.00     0.001 A 
HETATM   25  C   UNK N   1       9.483   6.578   0.714  0.00  0.00     0.000 A 
HETATM   26  C   UNK N   1       8.742   5.395   0.754  0.00  0.00     0.001 A 
HETATM   27  C   UNK N   1       7.518   5.313   0.082  0.00  0.00     0.007 A 
ENDBRANCH  21  22
ENDBRANCH  19  21
ENDBRANCH  17  19
ENDBRANCH  16  17
ENDBRANCH  15  16
ENDBRANCH   3  15
TORSDOF 6
