MODEL 1
REMARK VINA RESULT:      -7.6      0.000      0.000
REMARK  6 active torsions:
REMARK  status: ('A' for Active; 'I' for Inactive)
REMARK    1  A    between atoms: N_4  and  C_11 
REMARK    2  A    between atoms: N_5  and  C_10 
REMARK    3  A    between atoms: N_5  and  C_12 
REMARK    4  A    between atoms: C_10  and  C_14 
REMARK    5  A    between atoms: C_11  and  C_12 
REMARK    6  A    between atoms: C_14  and  C_19 
ROOT
HETATM    1  O   UNK N   1      36.259  13.346   8.544  0.00  0.00    -0.265 OA
HETATM    2  O   UNK N   1      34.466  16.378   5.696  0.00  0.00    -0.246 OA
HETATM    3  N   UNK N   1      35.729  15.223  10.702  0.00  0.00    -0.334 N 
HETATM    4  N   UNK N   1      34.547  16.911   7.889  0.00  0.00    -0.287 N 
HETATM    5  N   UNK N   1      35.367  14.806   7.057  0.00  0.00    -0.269 N 
HETATM    6  N   UNK N   1      34.760  17.203  10.278  0.00  0.00    -0.336 N 
ATOM      7  HN  UNK N   1      34.354  18.130  10.401  1.00  0.00     0.168 HD
HETATM    8  C   UNK N   1      35.484  15.313   9.381  0.00  0.00     0.149 A 
HETATM    9  C   UNK N   1      34.903  16.509   9.134  0.00  0.00     0.145 A 
HETATM   10  C   UNK N   1      35.280  16.387  11.233  0.00  0.00     0.185 A 
HETATM   11  C   UNK N   1      35.734  14.428   8.337  0.00  0.00     0.282 A 
HETATM   12  C   UNK N   1      34.778  16.048   6.829  0.00  0.00     0.332 A 
HETATM   13  C   UNK N   1      33.942  18.221   7.678  0.00  0.00     0.163 C 
HETATM   14  C   UNK N   1      35.599  13.898   5.936  0.00  0.00     0.164 C 
ENDROOT
BRANCH   3  15
HETATM   15  C   UNK N   1      36.402  14.176  11.475  0.00  0.00     0.149 C 
BRANCH  15  16
HETATM   16  C   UNK N   1      35.834  13.904  12.872  0.00  0.00     0.134 C 
BRANCH  16  17
HETATM   17  N   UNK N   1      36.779  14.167  13.948  0.00  0.00    -0.416 N 
HETATM   18  H   UNK N   1      37.429  14.954  13.961  0.00  0.00     0.153 HD
BRANCH  17  19
HETATM   19  C   UNK N   1      36.686  13.162  15.008  0.00  0.00     0.076 C 
HETATM   20  C   UNK N   1      37.521  11.920  14.746  0.00  0.00     0.032 C 
BRANCH  19  21
HETATM   21  C   UNK N   1      35.305  12.992  15.678  0.00  0.00     0.062 C 
BRANCH  21  22
HETATM   22  C   UNK N   1      35.242  12.468  17.093  0.00  0.00    -0.056 A 
HETATM   23  C   UNK N   1      35.227  13.397  18.142  0.00  0.00     0.007 A 
HETATM   24  C   UNK N   1      35.225  12.963  19.473  0.00  0.00     0.001 A 
HETATM   25  C   UNK N   1      35.240  11.597  19.764  0.00  0.00     0.000 A 
HETATM   26  C   UNK N   1      35.247  10.664  18.725  0.00  0.00     0.001 A 
HETATM   27  C   UNK N   1      35.248  11.097  17.395  0.00  0.00     0.007 A 
ENDBRANCH  21  22
ENDBRANCH  19  21
ENDBRANCH  17  19
ENDBRANCH  16  17
ENDBRANCH  15  16
ENDBRANCH   3  15
TORSDOF 6
ENDMDL
MODEL 2
REMARK VINA RESULT:      -7.4      7.050     12.604
REMARK  6 active torsions:
REMARK  status: ('A' for Active; 'I' for Inactive)
REMARK    1  A    between atoms: N_4  and  C_11 
REMARK    2  A    between atoms: N_5  and  C_10 
REMARK    3  A    between atoms: N_5  and  C_12 
REMARK    4  A    between atoms: C_10  and  C_14 
REMARK    5  A    between atoms: C_11  and  C_12 
REMARK    6  A    between atoms: C_14  and  C_19 
ROOT
HETATM    1  O   UNK N   1      30.266  17.133   4.756  0.00  0.00    -0.265 OA
HETATM    2  O   UNK N   1      34.619  17.291   5.998  0.00  0.00    -0.246 OA
HETATM    3  N   UNK N   1      29.567  17.432   7.564  0.00  0.00    -0.334 N 
HETATM    4  N   UNK N   1      33.054  17.459   7.618  0.00  0.00    -0.287 N 
HETATM    5  N   UNK N   1      32.466  17.214   5.296  0.00  0.00    -0.269 N 
HETATM    6  N   UNK N   1      31.171  17.618   9.124  0.00  0.00    -0.336 N 
ATOM      7  HN  UNK N   1      31.644  17.722  10.022  1.00  0.00     0.168 HD
HETATM    8  C   UNK N   1      30.770  17.381   6.960  0.00  0.00     0.149 A 
HETATM    9  C   UNK N   1      31.730  17.492   7.906  0.00  0.00     0.145 A 
HETATM   10  C   UNK N   1      29.833  17.576   8.886  0.00  0.00     0.185 A 
HETATM   11  C   UNK N   1      31.120  17.236   5.622  0.00  0.00     0.282 A 
HETATM   12  C   UNK N   1      33.434  17.320   6.293  0.00  0.00     0.332 A 
HETATM   13  C   UNK N   1      34.046  17.562   8.682  0.00  0.00     0.163 C 
HETATM   14  C   UNK N   1      32.874  17.077   3.901  0.00  0.00     0.164 C 
ENDROOT
BRANCH   3  15
HETATM   15  C   UNK N   1      28.218  17.288   7.011  0.00  0.00     0.149 C 
BRANCH  15  16
HETATM   16  C   UNK N   1      27.559  18.577   6.508  0.00  0.00     0.134 C 
BRANCH  16  17
HETATM   17  N   UNK N   1      27.925  18.925   5.142  0.00  0.00    -0.416 N 
HETATM   18  H   UNK N   1      28.464  18.321   4.521  0.00  0.00     0.153 HD
BRANCH  17  19
HETATM   19  C   UNK N   1      27.426  20.249   4.769  0.00  0.00     0.076 C 
HETATM   20  C   UNK N   1      26.993  21.094   5.955  0.00  0.00     0.032 C 
BRANCH  19  21
HETATM   21  C   UNK N   1      26.603  20.335   3.466  0.00  0.00     0.062 C 
BRANCH  21  22
HETATM   22  C   UNK N   1      25.156  19.902   3.489  0.00  0.00    -0.056 A 
HETATM   23  C   UNK N   1      24.214  20.707   2.835  0.00  0.00     0.007 A 
HETATM   24  C   UNK N   1      22.853  20.382   2.875  0.00  0.00     0.001 A 
HETATM   25  C   UNK N   1      22.425  19.248   3.570  0.00  0.00     0.000 A 
HETATM   26  C   UNK N   1      23.357  18.435   4.217  0.00  0.00     0.001 A 
HETATM   27  C   UNK N   1      24.717  18.760   4.179  0.00  0.00     0.007 A 
ENDBRANCH  21  22
ENDBRANCH  19  21
ENDBRANCH  17  19
ENDBRANCH  16  17
ENDBRANCH  15  16
ENDBRANCH   3  15
TORSDOF 6
ENDMDL
MODEL 3
REMARK VINA RESULT:      -7.2     12.962     15.080
REMARK  6 active torsions:
REMARK  status: ('A' for Active; 'I' for Inactive)
REMARK    1  A    between atoms: N_4  and  C_11 
REMARK    2  A    between atoms: N_5  and  C_10 
REMARK    3  A    between atoms: N_5  and  C_12 
REMARK    4  A    between atoms: C_10  and  C_14 
REMARK    5  A    between atoms: C_11  and  C_12 
REMARK    6  A    between atoms: C_14  and  C_19 
ROOT
HETATM    1  O   UNK N   1      19.887  18.542   3.066  0.00  0.00    -0.265 OA
HETATM    2  O   UNK N   1      23.586  21.065   2.387  0.00  0.00    -0.246 OA
HETATM    3  N   UNK N   1      21.388  17.077   5.082  0.00  0.00    -0.334 N 
HETATM    4  N   UNK N   1      23.695  19.431   3.943  0.00  0.00    -0.287 N 
HETATM    5  N   UNK N   1      21.693  19.854   2.676  0.00  0.00    -0.269 N 
HETATM    6  N   UNK N   1      23.518  17.623   5.537  0.00  0.00    -0.336 N 
ATOM      7  HN  UNK N   1      24.450  17.631   5.950  1.00  0.00     0.168 HD
HETATM    8  C   UNK N   1      21.748  18.113   4.299  0.00  0.00     0.149 A 
HETATM    9  C   UNK N   1      23.032  18.434   4.578  0.00  0.00     0.145 A 
HETATM   10  C   UNK N   1      22.482  16.792   5.830  0.00  0.00     0.185 A 
HETATM   11  C   UNK N   1      21.045  18.821   3.331  0.00  0.00     0.282 A 
HETATM   12  C   UNK N   1      23.019  20.158   2.976  0.00  0.00     0.332 A 
HETATM   13  C   UNK N   1      25.087  19.720   4.269  0.00  0.00     0.163 C 
HETATM   14  C   UNK N   1      20.984  20.631   1.662  0.00  0.00     0.164 C 
ENDROOT
BRANCH   3  15
HETATM   15  C   UNK N   1      20.142  16.308   5.126  0.00  0.00     0.149 C 
BRANCH  15  16
HETATM   16  C   UNK N   1      19.741  15.762   6.501  0.00  0.00     0.134 C 
BRANCH  16  17
HETATM   17  N   UNK N   1      20.224  14.412   6.756  0.00  0.00    -0.416 N 
HETATM   18  H   UNK N   1      20.112  13.631   6.109  0.00  0.00     0.153 HD
BRANCH  17  19
HETATM   19  C   UNK N   1      20.888  14.311   8.057  0.00  0.00     0.076 C 
HETATM   20  C   UNK N   1      20.791  15.577   8.890  0.00  0.00     0.032 C 
BRANCH  19  21
HETATM   21  C   UNK N   1      22.201  13.502   8.100  0.00  0.00     0.062 C 
BRANCH  21  22
HETATM   22  C   UNK N   1      22.640  12.893   9.411  0.00  0.00    -0.056 A 
HETATM   23  C   UNK N   1      21.654  12.571  10.353  0.00  0.00     0.007 A 
HETATM   24  C   UNK N   1      22.010  12.058  11.606  0.00  0.00     0.001 A 
HETATM   25  C   UNK N   1      23.356  11.864  11.925  0.00  0.00     0.000 A 
HETATM   26  C   UNK N   1      24.345  12.175  10.990  0.00  0.00     0.001 A 
HETATM   27  C   UNK N   1      23.989  12.688   9.739  0.00  0.00     0.007 A 
ENDBRANCH  21  22
ENDBRANCH  19  21
ENDBRANCH  17  19
ENDBRANCH  16  17
ENDBRANCH  15  16
ENDBRANCH   3  15
TORSDOF 6
ENDMDL
MODEL 4
REMARK VINA RESULT:      -7.1     14.072     16.014
REMARK  6 active torsions:
REMARK  status: ('A' for Active; 'I' for Inactive)
REMARK    1  A    between atoms: N_4  and  C_11 
REMARK    2  A    between atoms: N_5  and  C_10 
REMARK    3  A    between atoms: N_5  and  C_12 
REMARK    4  A    between atoms: C_10  and  C_14 
REMARK    5  A    between atoms: C_11  and  C_12 
REMARK    6  A    between atoms: C_14  and  C_19 
ROOT
HETATM    1  O   UNK N   1      21.056  19.464   4.772  0.00  0.00    -0.265 OA
HETATM    2  O   UNK N   1      20.691  19.490   0.257  0.00  0.00    -0.246 OA
HETATM    3  N   UNK N   1      20.092  16.720   4.725  0.00  0.00    -0.334 N 
HETATM    4  N   UNK N   1      20.122  17.597   1.350  0.00  0.00    -0.287 N 
HETATM    5  N   UNK N   1      20.911  19.553   2.512  0.00  0.00    -0.269 N 
HETATM    6  N   UNK N   1      19.590  15.721   2.777  0.00  0.00    -0.336 N 
ATOM      7  HN  UNK N   1      19.295  15.028   2.091  1.00  0.00     0.168 HD
HETATM    8  C   UNK N   1      20.320  17.587   3.720  0.00  0.00     0.149 A 
HETATM    9  C   UNK N   1      20.014  16.979   2.551  0.00  0.00     0.145 A 
HETATM   10  C   UNK N   1      19.646  15.586   4.129  0.00  0.00     0.185 A 
HETATM   11  C   UNK N   1      20.777  18.901   3.726  0.00  0.00     0.282 A 
HETATM   12  C   UNK N   1      20.579  18.905   1.323  0.00  0.00     0.332 A 
HETATM   13  C   UNK N   1      19.757  16.900   0.122  0.00  0.00     0.163 C 
HETATM   14  C   UNK N   1      21.402  20.928   2.475  0.00  0.00     0.164 C 
ENDROOT
BRANCH   3  15
HETATM   15  C   UNK N   1      20.193  16.898   6.175  0.00  0.00     0.149 C 
BRANCH  15  16
HETATM   16  C   UNK N   1      19.965  15.641   7.022  0.00  0.00     0.134 C 
BRANCH  16  17
HETATM   17  N   UNK N   1      21.129  15.244   7.803  0.00  0.00    -0.416 N 
HETATM   18  H   UNK N   1      21.741  15.898   8.292  0.00  0.00     0.153 HD
BRANCH  17  19
HETATM   19  C   UNK N   1      21.314  13.793   7.799  0.00  0.00     0.076 C 
HETATM   20  C   UNK N   1      20.872  13.125   6.508  0.00  0.00     0.032 C 
BRANCH  19  21
HETATM   21  C   UNK N   1      21.053  13.060   9.133  0.00  0.00     0.062 C 
BRANCH  21  22
HETATM   22  C   UNK N   1      22.232  12.654   9.985  0.00  0.00    -0.056 A 
HETATM   23  C   UNK N   1      21.987  12.239  11.300  0.00  0.00     0.007 A 
HETATM   24  C   UNK N   1      23.048  11.906  12.149  0.00  0.00     0.001 A 
HETATM   25  C   UNK N   1      24.364  11.989  11.688  0.00  0.00     0.000 A 
HETATM   26  C   UNK N   1      24.619  12.394  10.377  0.00  0.00     0.001 A 
HETATM   27  C   UNK N   1      23.558  12.727   9.528  0.00  0.00     0.007 A 
ENDBRANCH  21  22
ENDBRANCH  19  21
ENDBRANCH  17  19
ENDBRANCH  16  17
ENDBRANCH  15  16
ENDBRANCH   3  15
TORSDOF 6
ENDMDL
MODEL 5
REMARK VINA RESULT:      -7.1     13.656     16.878
REMARK  6 active torsions:
REMARK  status: ('A' for Active; 'I' for Inactive)
REMARK    1  A    between atoms: N_4  and  C_11 
REMARK    2  A    between atoms: N_5  and  C_10 
REMARK    3  A    between atoms: N_5  and  C_12 
REMARK    4  A    between atoms: C_10  and  C_14 
REMARK    5  A    between atoms: C_11  and  C_12 
REMARK    6  A    between atoms: C_14  and  C_19 
ROOT
HETATM    1  O   UNK N   1      21.232  19.341   4.712  0.00  0.00    -0.265 OA
HETATM    2  O   UNK N   1      20.617  19.394   0.226  0.00  0.00    -0.246 OA
HETATM    3  N   UNK N   1      20.277  16.593   4.701  0.00  0.00    -0.334 N 
HETATM    4  N   UNK N   1      20.116  17.492   1.335  0.00  0.00    -0.287 N 
HETATM    5  N   UNK N   1      20.961  19.443   2.464  0.00  0.00    -0.269 N 
HETATM    6  N   UNK N   1      19.671  15.605   2.778  0.00  0.00    -0.336 N 
ATOM      7  HN  UNK N   1      19.341  14.914   2.104  1.00  0.00     0.168 HD
HETATM    8  C   UNK N   1      20.445  17.467   3.691  0.00  0.00     0.149 A 
HETATM    9  C   UNK N   1      20.077  16.866   2.537  0.00  0.00     0.145 A 
HETATM   10  C   UNK N   1      19.802  15.461   4.123  0.00  0.00     0.185 A 
HETATM   11  C   UNK N   1      20.897  18.783   3.680  0.00  0.00     0.282 A 
HETATM   12  C   UNK N   1      20.566  18.802   1.292  0.00  0.00     0.332 A 
HETATM   13  C   UNK N   1      19.686  16.801   0.125  0.00  0.00     0.163 C 
HETATM   14  C   UNK N   1      21.444  20.820   2.410  0.00  0.00     0.164 C 
ENDROOT
BRANCH   3  15
HETATM   15  C   UNK N   1      20.457  16.762   6.145  0.00  0.00     0.149 C 
BRANCH  15  16
HETATM   16  C   UNK N   1      21.841  16.397   6.694  0.00  0.00     0.134 C 
BRANCH  16  17
HETATM   17  N   UNK N   1      22.931  17.126   6.061  0.00  0.00    -0.416 N 
HETATM   18  H   UNK N   1      23.061  18.136   6.129  0.00  0.00     0.153 HD
BRANCH  17  19
HETATM   19  C   UNK N   1      23.817  16.233   5.313  0.00  0.00     0.076 C 
HETATM   20  C   UNK N   1      24.826  15.506   6.185  0.00  0.00     0.032 C 
BRANCH  19  21
HETATM   21  C   UNK N   1      24.265  16.716   3.917  0.00  0.00     0.062 C 
BRANCH  21  22
HETATM   22  C   UNK N   1      25.151  17.936   3.817  0.00  0.00    -0.056 A 
HETATM   23  C   UNK N   1      26.535  17.760   3.948  0.00  0.00     0.007 A 
HETATM   24  C   UNK N   1      27.396  18.864   3.921  0.00  0.00     0.001 A 
HETATM   25  C   UNK N   1      26.878  20.151   3.763  0.00  0.00     0.000 A 
HETATM   26  C   UNK N   1      25.501  20.335   3.623  0.00  0.00     0.001 A 
HETATM   27  C   UNK N   1      24.641  19.233   3.651  0.00  0.00     0.007 A 
ENDBRANCH  21  22
ENDBRANCH  19  21
ENDBRANCH  17  19
ENDBRANCH  16  17
ENDBRANCH  15  16
ENDBRANCH   3  15
TORSDOF 6
ENDMDL
MODEL 6
REMARK VINA RESULT:      -7.0     17.956     21.791
REMARK  6 active torsions:
REMARK  status: ('A' for Active; 'I' for Inactive)
REMARK    1  A    between atoms: N_4  and  C_11 
REMARK    2  A    between atoms: N_5  and  C_10 
REMARK    3  A    between atoms: N_5  and  C_12 
REMARK    4  A    between atoms: C_10  and  C_14 
REMARK    5  A    between atoms: C_11  and  C_12 
REMARK    6  A    between atoms: C_14  and  C_19 
ROOT
HETATM    1  O   UNK N   1      28.908  22.885  -4.508  0.00  0.00    -0.265 OA
HETATM    2  O   UNK N   1      32.512  21.532  -2.122  0.00  0.00    -0.246 OA
HETATM    3  N   UNK N   1      29.830  21.169  -6.668  0.00  0.00    -0.334 N 
HETATM    4  N   UNK N   1      32.246  20.688  -4.200  0.00  0.00    -0.287 N 
HETATM    5  N   UNK N   1      30.681  22.249  -3.247  0.00  0.00    -0.269 N 
HETATM    6  N   UNK N   1      31.704  19.954  -6.437  0.00  0.00    -0.336 N 
ATOM      7  HN  UNK N   1      32.474  19.313  -6.627  1.00  0.00     0.168 HD
HETATM    8  C   UNK N   1      30.349  21.398  -5.446  0.00  0.00     0.149 A 
HETATM    9  C   UNK N   1      31.478  20.665  -5.316  0.00  0.00     0.145 A 
HETATM   10  C   UNK N   1      30.672  20.285  -7.258  0.00  0.00     0.185 A 
HETATM   11  C   UNK N   1      29.923  22.216  -4.405  0.00  0.00     0.282 A 
HETATM   12  C   UNK N   1      31.845  21.491  -3.143  0.00  0.00     0.332 A 
HETATM   13  C   UNK N   1      33.466  19.893  -4.122  0.00  0.00     0.163 C 
HETATM   14  C   UNK N   1      30.258  23.085  -2.126  0.00  0.00     0.164 C 
ENDROOT
BRANCH   3  15
HETATM   15  C   UNK N   1      28.666  21.760  -7.332  0.00  0.00     0.149 C 
BRANCH  15  16
HETATM   16  C   UNK N   1      28.845  23.191  -7.849  0.00  0.00     0.134 C 
BRANCH  16  17
HETATM   17  N   UNK N   1      27.990  24.164  -7.182  0.00  0.00    -0.416 N 
HETATM   18  H   UNK N   1      28.329  25.028  -6.756  0.00  0.00     0.153 HD
BRANCH  17  19
HETATM   19  C   UNK N   1      26.587  23.752  -7.197  0.00  0.00     0.076 C 
HETATM   20  C   UNK N   1      25.851  24.135  -8.470  0.00  0.00     0.032 C 
BRANCH  19  21
HETATM   21  C   UNK N   1      25.828  23.840  -5.855  0.00  0.00     0.062 C 
BRANCH  21  22
HETATM   22  C   UNK N   1      25.775  25.166  -5.134  0.00  0.00    -0.056 A 
HETATM   23  C   UNK N   1      25.092  26.226  -5.746  0.00  0.00     0.007 A 
HETATM   24  C   UNK N   1      25.061  27.490  -5.147  0.00  0.00     0.001 A 
HETATM   25  C   UNK N   1      25.715  27.705  -3.932  0.00  0.00     0.000 A 
HETATM   26  C   UNK N   1      26.392  26.653  -3.310  0.00  0.00     0.001 A 
HETATM   27  C   UNK N   1      26.423  25.389  -3.908  0.00  0.00     0.007 A 
ENDBRANCH  21  22
ENDBRANCH  19  21
ENDBRANCH  17  19
ENDBRANCH  16  17
ENDBRANCH  15  16
ENDBRANCH   3  15
TORSDOF 6
ENDMDL
MODEL 7
REMARK VINA RESULT:      -6.9     11.141     14.907
REMARK  6 active torsions:
REMARK  status: ('A' for Active; 'I' for Inactive)
REMARK    1  A    between atoms: N_4  and  C_11 
REMARK    2  A    between atoms: N_5  and  C_10 
REMARK    3  A    between atoms: N_5  and  C_12 
REMARK    4  A    between atoms: C_10  and  C_14 
REMARK    5  A    between atoms: C_11  and  C_12 
REMARK    6  A    between atoms: C_14  and  C_19 
ROOT
HETATM    1  O   UNK N   1      23.156  14.226   6.844  0.00  0.00    -0.265 OA
HETATM    2  O   UNK N   1      19.576  14.210   9.619  0.00  0.00    -0.246 OA
HETATM    3  N   UNK N   1      22.427  16.941   6.096  0.00  0.00    -0.334 N 
HETATM    4  N   UNK N   1      19.968  16.080   8.415  0.00  0.00    -0.287 N 
HETATM    5  N   UNK N   1      21.390  14.144   8.263  0.00  0.00    -0.269 N 
HETATM    6  N   UNK N   1      20.634  17.933   7.014  0.00  0.00    -0.336 N 
ATOM      7  HN  UNK N   1      19.917  18.621   7.242  1.00  0.00     0.168 HD
HETATM    8  C   UNK N   1      21.852  16.086   6.964  0.00  0.00     0.149 A 
HETATM    9  C   UNK N   1      20.773  16.689   7.511  0.00  0.00     0.145 A 
HETATM   10  C   UNK N   1      21.667  18.064   6.141  0.00  0.00     0.185 A 
HETATM   11  C   UNK N   1      22.186  14.786   7.329  0.00  0.00     0.282 A 
HETATM   12  C   UNK N   1      20.278  14.786   8.803  0.00  0.00     0.332 A 
HETATM   13  C   UNK N   1      18.804  16.772   8.957  0.00  0.00     0.163 C 
HETATM   14  C   UNK N   1      21.716  12.783   8.683  0.00  0.00     0.164 C 
ENDROOT
BRANCH   3  15
HETATM   15  C   UNK N   1      23.569  16.760   5.197  0.00  0.00     0.149 C 
BRANCH  15  16
HETATM   16  C   UNK N   1      24.118  18.034   4.546  0.00  0.00     0.134 C 
BRANCH  16  17
HETATM   17  N   UNK N   1      25.013  18.792   5.410  0.00  0.00    -0.416 N 
HETATM   18  H   UNK N   1      25.201  18.560   6.386  0.00  0.00     0.153 HD
BRANCH  17  19
HETATM   19  C   UNK N   1      25.607  19.930   4.708  0.00  0.00     0.076 C 
HETATM   20  C   UNK N   1      25.238  19.998   3.236  0.00  0.00     0.032 C 
BRANCH  19  21
HETATM   21  C   UNK N   1      27.040  20.326   5.125  0.00  0.00     0.062 C 
BRANCH  21  22
HETATM   22  C   UNK N   1      27.885  19.322   5.874  0.00  0.00    -0.056 A 
HETATM   23  C   UNK N   1      27.970  19.438   7.268  0.00  0.00     0.007 A 
HETATM   24  C   UNK N   1      28.784  18.569   8.003  0.00  0.00     0.001 A 
HETATM   25  C   UNK N   1      29.519  17.578   7.349  0.00  0.00     0.000 A 
HETATM   26  C   UNK N   1      29.434  17.449   5.961  0.00  0.00     0.001 A 
HETATM   27  C   UNK N   1      28.621  18.318   5.226  0.00  0.00     0.007 A 
ENDBRANCH  21  22
ENDBRANCH  19  21
ENDBRANCH  17  19
ENDBRANCH  16  17
ENDBRANCH  15  16
ENDBRANCH   3  15
TORSDOF 6
ENDMDL
MODEL 8
REMARK VINA RESULT:      -6.8      2.785      9.409
REMARK  6 active torsions:
REMARK  status: ('A' for Active; 'I' for Inactive)
REMARK    1  A    between atoms: N_4  and  C_11 
REMARK    2  A    between atoms: N_5  and  C_10 
REMARK    3  A    between atoms: N_5  and  C_12 
REMARK    4  A    between atoms: C_10  and  C_14 
REMARK    5  A    between atoms: C_11  and  C_12 
REMARK    6  A    between atoms: C_14  and  C_19 
ROOT
HETATM    1  O   UNK N   1      34.411  12.015  10.451  0.00  0.00    -0.265 OA
HETATM    2  O   UNK N   1      35.502  11.165  14.764  0.00  0.00    -0.246 OA
HETATM    3  N   UNK N   1      35.483  14.694  10.821  0.00  0.00    -0.334 N 
HETATM    4  N   UNK N   1      35.969  13.217  13.943  0.00  0.00    -0.287 N 
HETATM    5  N   UNK N   1      34.936  11.509  12.597  0.00  0.00    -0.269 N 
HETATM    6  N   UNK N   1      36.351  15.311  12.799  0.00  0.00    -0.336 N 
ATOM      7  HN  UNK N   1      36.789  15.862  13.536  1.00  0.00     0.168 HD
HETATM    8  C   UNK N   1      35.399  13.656  11.676  0.00  0.00     0.149 A 
HETATM    9  C   UNK N   1      35.921  14.036  12.865  0.00  0.00     0.145 A 
HETATM   10  C   UNK N   1      36.067  15.695  11.526  0.00  0.00     0.185 A 
HETATM   11  C   UNK N   1      34.887  12.373  11.516  0.00  0.00     0.282 A 
HETATM   12  C   UNK N   1      35.471  11.930  13.812  0.00  0.00     0.332 A 
HETATM   13  C   UNK N   1      36.524  13.687  15.207  0.00  0.00     0.163 C 
HETATM   14  C   UNK N   1      34.422  10.148  12.464  0.00  0.00     0.164 C 
ENDROOT
BRANCH   3  15
HETATM   15  C   UNK N   1      35.003  14.833   9.445  0.00  0.00     0.149 C 
BRANCH  15  16
HETATM   16  C   UNK N   1      34.649  16.256   8.999  0.00  0.00     0.134 C 
BRANCH  16  17
HETATM   17  N   UNK N   1      33.238  16.582   9.154  0.00  0.00    -0.416 N 
HETATM   18  H   UNK N   1      32.651  16.241   9.916  0.00  0.00     0.153 HD
BRANCH  17  19
HETATM   19  C   UNK N   1      32.765  17.458   8.081  0.00  0.00     0.076 C 
HETATM   20  C   UNK N   1      31.296  17.267   7.742  0.00  0.00     0.032 C 
BRANCH  19  21
HETATM   21  C   UNK N   1      33.754  17.736   6.930  0.00  0.00     0.062 C 
BRANCH  21  22
HETATM   22  C   UNK N   1      33.529  17.062   5.597  0.00  0.00    -0.056 A 
HETATM   23  C   UNK N   1      34.054  15.777   5.408  0.00  0.00     0.007 A 
HETATM   24  C   UNK N   1      33.922  15.131   4.174  0.00  0.00     0.001 A 
HETATM   25  C   UNK N   1      33.266  15.768   3.118  0.00  0.00     0.000 A 
HETATM   26  C   UNK N   1      32.733  17.046   3.298  0.00  0.00     0.001 A 
HETATM   27  C   UNK N   1      32.865  17.691   4.532  0.00  0.00     0.007 A 
ENDBRANCH  21  22
ENDBRANCH  19  21
ENDBRANCH  17  19
ENDBRANCH  16  17
ENDBRANCH  15  16
ENDBRANCH   3  15
TORSDOF 6
ENDMDL
MODEL 9
REMARK VINA RESULT:      -6.7     11.118     14.881
REMARK  6 active torsions:
REMARK  status: ('A' for Active; 'I' for Inactive)
REMARK    1  A    between atoms: N_4  and  C_11 
REMARK    2  A    between atoms: N_5  and  C_10 
REMARK    3  A    between atoms: N_5  and  C_12 
REMARK    4  A    between atoms: C_10  and  C_14 
REMARK    5  A    between atoms: C_11  and  C_12 
REMARK    6  A    between atoms: C_14  and  C_19 
ROOT
HETATM    1  O   UNK N   1      20.714  18.051   7.164  0.00  0.00    -0.265 OA
HETATM    2  O   UNK N   1      19.664  14.282   9.444  0.00  0.00    -0.246 OA
HETATM    3  N   UNK N   1      22.799  16.529   5.822  0.00  0.00    -0.334 N 
HETATM    4  N   UNK N   1      21.357  14.174   7.952  0.00  0.00    -0.287 N 
HETATM    5  N   UNK N   1      20.122  16.205   8.337  0.00  0.00    -0.269 N 
HETATM    6  N   UNK N   1      23.109  14.357   6.298  0.00  0.00    -0.336 N 
ATOM      7  HN  UNK N   1      23.478  13.406   6.295  1.00  0.00     0.168 HD
HETATM    8  C   UNK N   1      21.901  16.155   6.754  0.00  0.00     0.149 A 
HETATM    9  C   UNK N   1      22.095  14.847   7.036  0.00  0.00     0.145 A 
HETATM   10  C   UNK N   1      23.528  15.417   5.557  0.00  0.00     0.185 A 
HETATM   11  C   UNK N   1      20.902  16.870   7.406  0.00  0.00     0.282 A 
HETATM   12  C   UNK N   1      20.350  14.859   8.615  0.00  0.00     0.332 A 
HETATM   13  C   UNK N   1      21.625  12.768   8.233  0.00  0.00     0.163 C 
HETATM   14  C   UNK N   1      19.053  16.917   9.033  0.00  0.00     0.164 C 
ENDROOT
BRANCH   3  15
HETATM   15  C   UNK N   1      23.061  17.842   5.228  0.00  0.00     0.149 C 
BRANCH  15  16
HETATM   16  C   UNK N   1      24.504  18.097   4.778  0.00  0.00     0.134 C 
BRANCH  16  17
HETATM   17  N   UNK N   1      25.170  19.156   5.524  0.00  0.00    -0.416 N 
HETATM   18  H   UNK N   1      25.099  19.277   6.535  0.00  0.00     0.153 HD
BRANCH  17  19
HETATM   19  C   UNK N   1      25.952  20.027   4.647  0.00  0.00     0.076 C 
HETATM   20  C   UNK N   1      25.399  20.125   3.235  0.00  0.00     0.032 C 
BRANCH  19  21
HETATM   21  C   UNK N   1      27.484  20.002   4.836  0.00  0.00     0.062 C 
BRANCH  21  22
HETATM   22  C   UNK N   1      28.073  19.091   5.886  0.00  0.00    -0.056 A 
HETATM   23  C   UNK N   1      27.966  19.473   7.230  0.00  0.00     0.007 A 
HETATM   24  C   UNK N   1      28.544  18.694   8.238  0.00  0.00     0.001 A 
HETATM   25  C   UNK N   1      29.235  17.526   7.909  0.00  0.00     0.000 A 
HETATM   26  C   UNK N   1      29.341  17.131   6.573  0.00  0.00     0.001 A 
HETATM   27  C   UNK N   1      28.763  17.911   5.566  0.00  0.00     0.007 A 
ENDBRANCH  21  22
ENDBRANCH  19  21
ENDBRANCH  17  19
ENDBRANCH  16  17
ENDBRANCH  15  16
ENDBRANCH   3  15
TORSDOF 6
ENDMDL
