MODEL 1
REMARK VINA RESULT:      -7.8      0.000      0.000
REMARK  3 active torsions:
REMARK  status: ('A' for Active; 'I' for Inactive)
REMARK    1  A    between atoms: O_2  and  C_12 
REMARK    2  A    between atoms: O_2  and  C_24 
REMARK       I    between atoms: N_8  and  C_24 
REMARK    3  A    between atoms: C_11  and  C_14 
ROOT
HETATM    1 Cl   UNK N   1      20.310  12.639  11.020  0.00  0.00    -0.084 Cl
HETATM    2  O   UNK N   1      23.382  17.381   5.143  0.00  0.00    -0.268 OA
HETATM    3  N   UNK N   1      22.966  15.757   6.618  0.00  0.00    -0.318 N 
HETATM    4  N   UNK N   1      20.502  17.591   6.988  0.00  0.00    -0.354 N 
ATOM      5  HN  UNK N   1      20.141  18.543   7.044  1.00  0.00     0.162 HD
HETATM    6  C   UNK N   1      22.172  15.037   7.588  0.00  0.00     0.049 A 
HETATM    7  C   UNK N   1      20.985  15.532   8.254  0.00  0.00     0.020 A 
HETATM    8  C   UNK N   1      20.312  16.877   8.036  0.00  0.00     0.053 C 
HETATM    9  C   UNK N   1      21.140  17.259   5.754  0.00  0.00     0.327 C 
HETATM   10  C   UNK N   1      22.562  16.817   5.860  0.00  0.00     0.273 C 
HETATM   11  C   UNK N   1      22.692  13.789   8.013  0.00  0.00     0.032 A 
HETATM   12  C   UNK N   1      20.454  14.737   9.290  0.00  0.00     0.040 A 
HETATM   13  C   UNK N   1      24.339  15.313   6.426  0.00  0.00     0.159 C 
HETATM   14  C   UNK N   1      22.121  13.043   9.033  0.00  0.00     0.026 A 
HETATM   15  C   UNK N   1      21.003  13.524   9.679  0.00  0.00     0.035 A 
ENDROOT
BRANCH   8  16
HETATM   16  C   UNK N   1      19.256  17.430   8.971  0.00  0.00    -0.009 A 
HETATM   17  C   UNK N   1      19.577  18.560   9.754  0.00  0.00     0.014 A 
HETATM   18  C   UNK N   1      18.622  19.176  10.564  0.00  0.00     0.001 A 
HETATM   19  C   UNK N   1      17.319  18.681  10.603  0.00  0.00     0.000 A 
HETATM   20  C   UNK N   1      16.979  17.562   9.841  0.00  0.00     0.001 A 
HETATM   21  C   UNK N   1      17.939  16.945   9.034  0.00  0.00     0.014 A 
ENDBRANCH   8  16
BRANCH   9  22
HETATM   22  O   UNK N   1      21.084  18.385   4.943  0.00  0.00    -0.269 OA
BRANCH  22  23
HETATM   23  C   UNK N   1      20.559  18.412   3.684  0.00  0.00     0.364 C 
HETATM   24  O   UNK N   1      19.574  17.737   3.413  0.00  0.00    -0.238 OA
HETATM   25  N   UNK N   1      21.109  19.226   2.743  0.00  0.00    -0.337 N 
HETATM   26  C   UNK N   1      20.537  19.320   1.423  0.00  0.00     0.154 C 
HETATM   27  C   UNK N   1      22.248  20.047   3.062  0.00  0.00     0.154 C 
ENDBRANCH  22  23
ENDBRANCH   9  22
TORSDOF 3
ENDMDL
MODEL 2
REMARK VINA RESULT:      -7.4      9.431     11.945
REMARK  3 active torsions:
REMARK  status: ('A' for Active; 'I' for Inactive)
REMARK    1  A    between atoms: O_2  and  C_12 
REMARK    2  A    between atoms: O_2  and  C_24 
REMARK       I    between atoms: N_8  and  C_24 
REMARK    3  A    between atoms: C_11  and  C_14 
ROOT
HETATM    1 Cl   UNK N   1      26.772  17.035   3.499  0.00  0.00    -0.084 Cl
HETATM    2  O   UNK N   1      34.676  15.557   4.846  0.00  0.00    -0.268 OA
HETATM    3  N   UNK N   1      32.621  15.729   3.988  0.00  0.00    -0.318 N 
HETATM    4  N   UNK N   1      32.320  17.260   6.659  0.00  0.00    -0.354 N 
ATOM      5  HN  UNK N   1      32.549  17.309   7.652  1.00  0.00     0.162 HD
HETATM    6  C   UNK N   1      31.258  16.208   3.932  0.00  0.00     0.049 A 
HETATM    7  C   UNK N   1      30.534  16.844   5.013  0.00  0.00     0.020 A 
HETATM    8  C   UNK N   1      31.068  17.177   6.396  0.00  0.00     0.053 C 
HETATM    9  C   UNK N   1      33.443  17.296   5.778  0.00  0.00     0.327 C 
HETATM   10  C   UNK N   1      33.588  16.123   4.867  0.00  0.00     0.273 C 
HETATM   11  C   UNK N   1      30.538  15.898   2.751  0.00  0.00     0.032 A 
HETATM   12  C   UNK N   1      29.160  17.084   4.807  0.00  0.00     0.040 A 
HETATM   13  C   UNK N   1      33.009  14.722   3.011  0.00  0.00     0.159 C 
HETATM   14  C   UNK N   1      29.187  16.167   2.600  0.00  0.00     0.026 A 
HETATM   15  C   UNK N   1      28.494  16.755   3.636  0.00  0.00     0.035 A 
ENDROOT
BRANCH   8  16
HETATM   16  C   UNK N   1      30.171  17.573   7.551  0.00  0.00    -0.009 A 
HETATM   17  C   UNK N   1      28.852  17.071   7.580  0.00  0.00     0.014 A 
HETATM   18  C   UNK N   1      28.006  17.320   8.662  0.00  0.00     0.001 A 
HETATM   19  C   UNK N   1      28.462  18.070   9.745  0.00  0.00     0.000 A 
HETATM   20  C   UNK N   1      29.761  18.580   9.737  0.00  0.00     0.001 A 
HETATM   21  C   UNK N   1      30.606  18.333   8.651  0.00  0.00     0.014 A 
ENDBRANCH   8  16
BRANCH   9  22
HETATM   22  O   UNK N   1      34.584  17.391   6.565  0.00  0.00    -0.269 OA
BRANCH  22  23
HETATM   23  C   UNK N   1      34.584  17.572   7.916  0.00  0.00     0.364 C 
HETATM   24  O   UNK N   1      34.294  18.664   8.391  0.00  0.00    -0.238 OA
HETATM   25  N   UNK N   1      34.865  16.524   8.737  0.00  0.00    -0.337 N 
HETATM   26  C   UNK N   1      34.812  16.673  10.170  0.00  0.00     0.154 C 
HETATM   27  C   UNK N   1      35.176  15.230   8.188  0.00  0.00     0.154 C 
ENDBRANCH  22  23
ENDBRANCH   9  22
TORSDOF 3
ENDMDL
MODEL 3
REMARK VINA RESULT:      -7.1     15.425     17.410
REMARK  3 active torsions:
REMARK  status: ('A' for Active; 'I' for Inactive)
REMARK    1  A    between atoms: O_2  and  C_12 
REMARK    2  A    between atoms: O_2  and  C_24 
REMARK       I    between atoms: N_8  and  C_24 
REMARK    3  A    between atoms: C_11  and  C_14 
ROOT
HETATM    1 Cl   UNK N   1      31.366  19.024  -8.701  0.00  0.00    -0.084 Cl
HETATM    2  O   UNK N   1      25.188  24.302  -8.034  0.00  0.00    -0.268 OA
HETATM    3  N   UNK N   1      26.651  22.756  -8.710  0.00  0.00    -0.318 N 
HETATM    4  N   UNK N   1      27.568  23.264  -5.799  0.00  0.00    -0.354 N 
ATOM      5  HN  UNK N   1      27.731  23.943  -5.056  1.00  0.00     0.162 HD
HETATM    6  C   UNK N   1      27.730  21.808  -8.542  0.00  0.00     0.049 A 
HETATM    7  C   UNK N   1      28.634  21.737  -7.414  0.00  0.00     0.020 A 
HETATM    8  C   UNK N   1      28.605  22.605  -6.167  0.00  0.00     0.053 C 
HETATM    9  C   UNK N   1      26.221  23.194  -6.268  0.00  0.00     0.327 C 
HETATM   10  C   UNK N   1      26.029  23.465  -7.723  0.00  0.00     0.273 C 
HETATM   11  C   UNK N   1      27.996  20.968  -9.652  0.00  0.00     0.032 A 
HETATM   12  C   UNK N   1      29.723  20.849  -7.521  0.00  0.00     0.040 A 
HETATM   13  C   UNK N   1      26.177  22.986 -10.066  0.00  0.00     0.159 C 
HETATM   14  C   UNK N   1      29.078  20.104  -9.699  0.00  0.00     0.026 A 
HETATM   15  C   UNK N   1      29.950  20.050  -8.632  0.00  0.00     0.035 A 
ENDROOT
BRANCH   8  16
HETATM   16  C   UNK N   1      29.750  22.661  -5.175  0.00  0.00    -0.009 A 
HETATM   17  C   UNK N   1      29.750  21.750  -4.098  0.00  0.00     0.014 A 
HETATM   18  C   UNK N   1      30.820  21.685  -3.203  0.00  0.00     0.001 A 
HETATM   19  C   UNK N   1      31.919  22.525  -3.372  0.00  0.00     0.000 A 
HETATM   20  C   UNK N   1      31.940  23.438  -4.427  0.00  0.00     0.001 A 
HETATM   21  C   UNK N   1      30.866  23.504  -5.319  0.00  0.00     0.014 A 
ENDBRANCH   8  16
BRANCH   9  22
HETATM   22  O   UNK N   1      25.481  24.118  -5.543  0.00  0.00    -0.269 OA
BRANCH  22  23
HETATM   23  C   UNK N   1      25.933  24.786  -4.442  0.00  0.00     0.364 C 
HETATM   24  O   UNK N   1      26.314  24.163  -3.458  0.00  0.00    -0.238 OA
HETATM   25  N   UNK N   1      26.001  26.144  -4.459  0.00  0.00    -0.337 N 
HETATM   26  C   UNK N   1      26.531  26.872  -3.333  0.00  0.00     0.154 C 
HETATM   27  C   UNK N   1      25.585  26.882  -5.624  0.00  0.00     0.154 C 
ENDBRANCH  22  23
ENDBRANCH   9  22
TORSDOF 3
ENDMDL
MODEL 4
REMARK VINA RESULT:      -7.0     14.805     17.297
REMARK  3 active torsions:
REMARK  status: ('A' for Active; 'I' for Inactive)
REMARK    1  A    between atoms: O_2  and  C_12 
REMARK    2  A    between atoms: O_2  and  C_24 
REMARK       I    between atoms: N_8  and  C_24 
REMARK    3  A    between atoms: C_11  and  C_14 
ROOT
HETATM    1 Cl   UNK N   1      35.500   8.721  16.613  0.00  0.00    -0.084 Cl
HETATM    2  O   UNK N   1      38.030  12.842  10.050  0.00  0.00    -0.268 OA
HETATM    3  N   UNK N   1      37.420  11.276  11.520  0.00  0.00    -0.318 N 
HETATM    4  N   UNK N   1      36.748  13.878  13.054  0.00  0.00    -0.354 N 
ATOM      5  HN  UNK N   1      37.023  14.831  13.290  1.00  0.00     0.162 HD
HETATM    6  C   UNK N   1      36.825  10.784  12.743  0.00  0.00     0.049 A 
HETATM    7  C   UNK N   1      36.482  11.579  13.903  0.00  0.00     0.020 A 
HETATM    8  C   UNK N   1      36.633  13.084  14.054  0.00  0.00     0.053 C 
HETATM    9  C   UNK N   1      36.549  13.634  11.661  0.00  0.00     0.327 C 
HETATM   10  C   UNK N   1      37.400  12.562  11.064  0.00  0.00     0.273 C 
HETATM   11  C   UNK N   1      36.696   9.377  12.848  0.00  0.00     0.032 A 
HETATM   12  C   UNK N   1      36.067  10.882  15.055  0.00  0.00     0.040 A 
HETATM   13  C   UNK N   1      38.115  10.307  10.686  0.00  0.00     0.159 C 
HETATM   14  C   UNK N   1      36.272   8.745  14.006  0.00  0.00     0.026 A 
HETATM   15  C   UNK N   1      35.964   9.500  15.117  0.00  0.00     0.035 A 
ENDROOT
BRANCH   8  16
HETATM   16  C   UNK N   1      36.525  13.792  15.389  0.00  0.00    -0.009 A 
HETATM   17  C   UNK N   1      37.296  14.957  15.595  0.00  0.00     0.014 A 
HETATM   18  C   UNK N   1      37.173  15.710  16.764  0.00  0.00     0.001 A 
HETATM   19  C   UNK N   1      36.270  15.320  17.751  0.00  0.00     0.000 A 
HETATM   20  C   UNK N   1      35.500  14.170  17.572  0.00  0.00     0.001 A 
HETATM   21  C   UNK N   1      35.628  13.415  16.402  0.00  0.00     0.014 A 
ENDBRANCH   8  16
BRANCH   9  22
HETATM   22  O   UNK N   1      36.802  14.825  10.992  0.00  0.00    -0.269 OA
BRANCH  22  23
HETATM   23  C   UNK N   1      35.859  15.764  10.693  0.00  0.00     0.364 C 
HETATM   24  O   UNK N   1      35.557  16.618  11.518  0.00  0.00    -0.238 OA
HETATM   25  N   UNK N   1      35.287  15.776   9.459  0.00  0.00    -0.337 N 
HETATM   26  C   UNK N   1      34.333  16.794   9.096  0.00  0.00     0.154 C 
HETATM   27  C   UNK N   1      35.659  14.795   8.472  0.00  0.00     0.154 C 
ENDBRANCH  22  23
ENDBRANCH   9  22
TORSDOF 3
ENDMDL
MODEL 5
REMARK VINA RESULT:      -7.0      2.921      5.352
REMARK  3 active torsions:
REMARK  status: ('A' for Active; 'I' for Inactive)
REMARK    1  A    between atoms: O_2  and  C_12 
REMARK    2  A    between atoms: O_2  and  C_24 
REMARK       I    between atoms: N_8  and  C_24 
REMARK    3  A    between atoms: C_11  and  C_14 
ROOT
HETATM    1 Cl   UNK N   1      22.440  10.768   6.201  0.00  0.00    -0.084 Cl
HETATM    2  O   UNK N   1      20.786  18.711   6.999  0.00  0.00    -0.268 OA
HETATM    3  N   UNK N   1      21.140  16.530   7.324  0.00  0.00    -0.318 N 
HETATM    4  N   UNK N   1      21.939  16.863   4.353  0.00  0.00    -0.354 N 
ATOM      5  HN  UNK N   1      21.737  17.299   3.454  1.00  0.00     0.162 HD
HETATM    6  C   UNK N   1      21.597  15.206   6.963  0.00  0.00     0.049 A 
HETATM    7  C   UNK N   1      21.927  14.754   5.628  0.00  0.00     0.020 A 
HETATM    8  C   UNK N   1      21.906  15.581   4.354  0.00  0.00     0.053 C 
HETATM    9  C   UNK N   1      22.214  17.775   5.418  0.00  0.00     0.327 C 
HETATM   10  C   UNK N   1      21.312  17.676   6.603  0.00  0.00     0.273 C 
HETATM   11  C   UNK N   1      21.586  14.241   8.001  0.00  0.00     0.032 A 
HETATM   12  C   UNK N   1      22.192  13.379   5.466  0.00  0.00     0.040 A 
HETATM   13  C   UNK N   1      20.419  16.661   8.581  0.00  0.00     0.159 C 
HETATM   14  C   UNK N   1      21.865  12.901   7.785  0.00  0.00     0.026 A 
HETATM   15  C   UNK N   1      22.161  12.467   6.511  0.00  0.00     0.035 A 
ENDROOT
BRANCH   8  16
HETATM   16  C   UNK N   1      21.983  14.966   2.971  0.00  0.00    -0.009 A 
HETATM   17  C   UNK N   1      23.251  14.830   2.366  0.00  0.00     0.014 A 
HETATM   18  C   UNK N   1      23.403  14.187   1.137  0.00  0.00     0.001 A 
HETATM   19  C   UNK N   1      22.289  13.658   0.486  0.00  0.00     0.000 A 
HETATM   20  C   UNK N   1      21.024  13.784   1.062  0.00  0.00     0.001 A 
HETATM   21  C   UNK N   1      20.875  14.432   2.292  0.00  0.00     0.014 A 
ENDBRANCH   8  16
BRANCH   9  22
HETATM   22  O   UNK N   1      22.122  19.059   4.896  0.00  0.00    -0.269 OA
BRANCH  22  23
HETATM   23  C   UNK N   1      21.435  19.393   3.766  0.00  0.00     0.364 C 
HETATM   24  O   UNK N   1      20.253  19.094   3.654  0.00  0.00    -0.238 OA
HETATM   25  N   UNK N   1      22.057  20.099   2.784  0.00  0.00    -0.337 N 
HETATM   26  C   UNK N   1      21.338  20.518   1.607  0.00  0.00     0.154 C 
HETATM   27  C   UNK N   1      23.438  20.482   2.922  0.00  0.00     0.154 C 
ENDBRANCH  22  23
ENDBRANCH   9  22
TORSDOF 3
ENDMDL
MODEL 6
REMARK VINA RESULT:      -6.8      7.920     10.677
REMARK  3 active torsions:
REMARK  status: ('A' for Active; 'I' for Inactive)
REMARK    1  A    between atoms: O_2  and  C_12 
REMARK    2  A    between atoms: O_2  and  C_24 
REMARK       I    between atoms: N_8  and  C_24 
REMARK    3  A    between atoms: C_11  and  C_14 
ROOT
HETATM    1 Cl   UNK N   1      27.437  21.566   6.091  0.00  0.00    -0.084 Cl
HETATM    2  O   UNK N   1      27.586  14.222   2.554  0.00  0.00    -0.268 OA
HETATM    3  N   UNK N   1      27.085  16.293   3.223  0.00  0.00    -0.318 N 
HETATM    4  N   UNK N   1      29.836  15.844   4.565  0.00  0.00    -0.354 N 
ATOM      5  HN  UNK N   1      30.458  15.202   5.056  1.00  0.00     0.162 HD
HETATM    6  C   UNK N   1      27.343  17.565   3.860  0.00  0.00     0.049 A 
HETATM    7  C   UNK N   1      28.424  17.853   4.779  0.00  0.00     0.020 A 
HETATM    8  C   UNK N   1      29.524  16.902   5.220  0.00  0.00     0.053 C 
HETATM    9  C   UNK N   1      29.448  15.427   3.255  0.00  0.00     0.327 C 
HETATM   10  C   UNK N   1      27.980  15.281   3.032  0.00  0.00     0.273 C 
HETATM   11  C   UNK N   1      26.363  18.569   3.661  0.00  0.00     0.032 A 
HETATM   12  C   UNK N   1      28.401  19.109   5.419  0.00  0.00     0.040 A 
HETATM   13  C   UNK N   1      25.733  16.059   2.735  0.00  0.00     0.159 C 
HETATM   14  C   UNK N   1      26.397  19.793   4.312  0.00  0.00     0.026 A 
HETATM   15  C   UNK N   1      27.416  20.060   5.201  0.00  0.00     0.035 A 
ENDROOT
BRANCH   8  16
HETATM   16  C   UNK N   1      30.438  17.187   6.394  0.00  0.00    -0.009 A 
HETATM   17  C   UNK N   1      31.833  17.188   6.174  0.00  0.00     0.014 A 
HETATM   18  C   UNK N   1      32.727  17.536   7.188  0.00  0.00     0.001 A 
HETATM   19  C   UNK N   1      32.246  17.900   8.445  0.00  0.00     0.000 A 
HETATM   20  C   UNK N   1      30.871  17.902   8.687  0.00  0.00     0.001 A 
HETATM   21  C   UNK N   1      29.978  17.550   7.671  0.00  0.00     0.014 A 
ENDBRANCH   8  16
BRANCH   9  22
HETATM   22  O   UNK N   1      30.059  14.204   3.013  0.00  0.00    -0.269 OA
BRANCH  22  23
HETATM   23  C   UNK N   1      30.728  13.469   3.947  0.00  0.00     0.364 C 
HETATM   24  O   UNK N   1      30.122  12.970   4.888  0.00  0.00    -0.238 OA
HETATM   25  N   UNK N   1      32.064  13.256   3.806  0.00  0.00    -0.337 N 
HETATM   26  C   UNK N   1      32.784  12.433   4.746  0.00  0.00     0.154 C 
HETATM   27  C   UNK N   1      32.778  13.813   2.687  0.00  0.00     0.154 C 
ENDBRANCH  22  23
ENDBRANCH   9  22
TORSDOF 3
ENDMDL
MODEL 7
REMARK VINA RESULT:      -6.8      7.440      9.858
REMARK  3 active torsions:
REMARK  status: ('A' for Active; 'I' for Inactive)
REMARK    1  A    between atoms: O_2  and  C_12 
REMARK    2  A    between atoms: O_2  and  C_24 
REMARK       I    between atoms: N_8  and  C_24 
REMARK    3  A    between atoms: C_11  and  C_14 
ROOT
HETATM    1 Cl   UNK N   1      29.686  18.830   9.824  0.00  0.00    -0.084 Cl
HETATM    2  O   UNK N   1      32.259  15.170   3.009  0.00  0.00    -0.268 OA
HETATM    3  N   UNK N   1      32.049  16.015   5.065  0.00  0.00    -0.318 N 
HETATM    4  N   UNK N   1      29.235  16.522   3.884  0.00  0.00    -0.354 N 
ATOM      5  HN  UNK N   1      28.681  16.800   3.074  1.00  0.00     0.162 HD
HETATM    6  C   UNK N   1      31.332  16.594   6.180  0.00  0.00     0.049 A 
HETATM    7  C   UNK N   1      30.010  17.182   6.128  0.00  0.00     0.020 A 
HETATM    8  C   UNK N   1      29.098  17.270   4.916  0.00  0.00     0.053 C 
HETATM    9  C   UNK N   1      30.043  15.360   3.692  0.00  0.00     0.327 C 
HETATM   10  C   UNK N   1      31.509  15.551   3.901  0.00  0.00     0.273 C 
HETATM   11  C   UNK N   1      32.056  16.706   7.393  0.00  0.00     0.032 A 
HETATM   12  C   UNK N   1      29.558  17.841   7.289  0.00  0.00     0.040 A 
HETATM   13  C   UNK N   1      33.496  15.917   5.189  0.00  0.00     0.159 C 
HETATM   14  C   UNK N   1      31.556  17.358   8.509  0.00  0.00     0.026 A 
HETATM   15  C   UNK N   1      30.306  17.936   8.454  0.00  0.00     0.035 A 
ENDROOT
BRANCH   8  16
HETATM   16  C   UNK N   1      27.865  18.150   4.875  0.00  0.00    -0.009 A 
HETATM   17  C   UNK N   1      28.027  19.519   4.569  0.00  0.00     0.014 A 
HETATM   18  C   UNK N   1      26.926  20.364   4.422  0.00  0.00     0.001 A 
HETATM   19  C   UNK N   1      25.635  19.858   4.570  0.00  0.00     0.000 A 
HETATM   20  C   UNK N   1      25.450  18.509   4.878  0.00  0.00     0.001 A 
HETATM   21  C   UNK N   1      26.555  17.665   5.028  0.00  0.00     0.014 A 
ENDBRANCH   8  16
BRANCH   9  22
HETATM   22  O   UNK N   1      29.834  14.920   2.392  0.00  0.00    -0.269 OA
BRANCH  22  23
HETATM   23  C   UNK N   1      28.842  14.065   2.010  0.00  0.00     0.364 C 
HETATM   24  O   UNK N   1      27.681  14.453   1.957  0.00  0.00    -0.238 OA
HETATM   25  N   UNK N   1      29.154  12.792   1.647  0.00  0.00    -0.337 N 
HETATM   26  C   UNK N   1      28.134  11.885   1.181  0.00  0.00     0.154 C 
HETATM   27  C   UNK N   1      30.520  12.337   1.676  0.00  0.00     0.154 C 
ENDBRANCH  22  23
ENDBRANCH   9  22
TORSDOF 3
ENDMDL
MODEL 8
REMARK VINA RESULT:      -6.8     15.697     16.936
REMARK  3 active torsions:
REMARK  status: ('A' for Active; 'I' for Inactive)
REMARK    1  A    between atoms: O_2  and  C_12 
REMARK    2  A    between atoms: O_2  and  C_24 
REMARK       I    between atoms: N_8  and  C_24 
REMARK    3  A    between atoms: C_11  and  C_14 
ROOT
HETATM    1 Cl   UNK N   1      29.981  19.163  -9.004  0.00  0.00    -0.084 Cl
HETATM    2  O   UNK N   1      29.966  23.885  -2.358  0.00  0.00    -0.268 OA
HETATM    3  N   UNK N   1      30.403  22.357  -3.927  0.00  0.00    -0.318 N 
HETATM    4  N   UNK N   1      28.161  24.015  -5.267  0.00  0.00    -0.354 N 
ATOM      5  HN  UNK N   1      27.276  24.509  -5.158  1.00  0.00     0.162 HD
HETATM    6  C   UNK N   1      30.290  21.748  -5.234  0.00  0.00     0.049 A 
HETATM    7  C   UNK N   1      29.264  22.026  -6.217  0.00  0.00     0.020 A 
HETATM    8  C   UNK N   1      28.136  23.037  -6.097  0.00  0.00     0.053 C 
HETATM    9  C   UNK N   1      29.236  24.519  -4.474  0.00  0.00     0.327 C 
HETATM   10  C   UNK N   1      29.857  23.543  -3.532  0.00  0.00     0.273 C 
HETATM   11  C   UNK N   1      31.193  20.690  -5.507  0.00  0.00     0.032 A 
HETATM   12  C   UNK N   1      29.235  21.203  -7.361  0.00  0.00     0.040 A 
HETATM   13  C   UNK N   1      31.174  21.635  -2.926  0.00  0.00     0.159 C 
HETATM   14  C   UNK N   1      31.124  19.919  -6.656  0.00  0.00     0.026 A 
HETATM   15  C   UNK N   1      30.136  20.172  -7.583  0.00  0.00     0.035 A 
ENDROOT
BRANCH   8  16
HETATM   16  C   UNK N   1      26.948  23.061  -7.036  0.00  0.00    -0.009 A 
HETATM   17  C   UNK N   1      26.941  24.005  -8.086  0.00  0.00     0.014 A 
HETATM   18  C   UNK N   1      25.924  24.018  -9.042  0.00  0.00     0.001 A 
HETATM   19  C   UNK N   1      24.893  23.082  -8.975  0.00  0.00     0.000 A 
HETATM   20  C   UNK N   1      24.876  22.142  -7.943  0.00  0.00     0.001 A 
HETATM   21  C   UNK N   1      25.894  22.133  -6.985  0.00  0.00     0.014 A 
ENDBRANCH   8  16
BRANCH   9  22
HETATM   22  O   UNK N   1      28.743  25.592  -3.743  0.00  0.00    -0.269 OA
BRANCH  22  23
HETATM   23  C   UNK N   1      27.432  25.963  -3.693  0.00  0.00     0.364 C 
HETATM   24  O   UNK N   1      26.601  25.222  -3.180  0.00  0.00    -0.238 OA
HETATM   25  N   UNK N   1      27.057  27.178  -4.176  0.00  0.00    -0.337 N 
HETATM   26  C   UNK N   1      25.688  27.620  -4.081  0.00  0.00     0.154 C 
HETATM   27  C   UNK N   1      28.031  28.068  -4.751  0.00  0.00     0.154 C 
ENDBRANCH  22  23
ENDBRANCH   9  22
TORSDOF 3
ENDMDL
MODEL 9
REMARK VINA RESULT:      -6.8     14.624     17.228
REMARK  3 active torsions:
REMARK  status: ('A' for Active; 'I' for Inactive)
REMARK    1  A    between atoms: O_2  and  C_12 
REMARK    2  A    between atoms: O_2  and  C_24 
REMARK       I    between atoms: N_8  and  C_24 
REMARK    3  A    between atoms: C_11  and  C_14 
ROOT
HETATM    1 Cl   UNK N   1      34.016  19.663  -4.896  0.00  0.00    -0.084 Cl
HETATM    2  O   UNK N   1      27.349  24.076  -3.300  0.00  0.00    -0.268 OA
HETATM    3  N   UNK N   1      29.306  23.004  -3.218  0.00  0.00    -0.318 N 
HETATM    4  N   UNK N   1      28.503  22.625  -6.182  0.00  0.00    -0.354 N 
ATOM      5  HN  UNK N   1      27.758  22.439  -6.853  1.00  0.00     0.162 HD
HETATM    6  C   UNK N   1      30.442  22.301  -3.772  0.00  0.00     0.049 A 
HETATM    7  C   UNK N   1      30.521  21.718  -5.095  0.00  0.00     0.020 A 
HETATM    8  C   UNK N   1      29.454  21.766  -6.177  0.00  0.00     0.053 C 
HETATM    9  C   UNK N   1      28.326  23.804  -5.394  0.00  0.00     0.327 C 
HETATM   10  C   UNK N   1      28.294  23.594  -3.917  0.00  0.00     0.273 C 
HETATM   11  C   UNK N   1      31.515  22.054  -2.879  0.00  0.00     0.032 A 
HETATM   12  C   UNK N   1      31.654  20.931  -5.380  0.00  0.00     0.040 A 
HETATM   13  C   UNK N   1      29.225  23.091  -1.767  0.00  0.00     0.159 C 
HETATM   14  C   UNK N   1      32.612  21.279  -3.218  0.00  0.00     0.026 A 
HETATM   15  C   UNK N   1      32.678  20.708  -4.471  0.00  0.00     0.035 A 
ENDROOT
BRANCH   8  16
HETATM   16  C   UNK N   1      29.498  20.893  -7.414  0.00  0.00    -0.009 A 
HETATM   17  C   UNK N   1      29.669  21.515  -8.669  0.00  0.00     0.014 A 
HETATM   18  C   UNK N   1      29.811  20.765  -9.838  0.00  0.00     0.001 A 
HETATM   19  C   UNK N   1      29.795  19.372  -9.776  0.00  0.00     0.000 A 
HETATM   20  C   UNK N   1      29.622  18.734  -8.547  0.00  0.00     0.001 A 
HETATM   21  C   UNK N   1      29.476  19.488  -7.379  0.00  0.00     0.014 A 
ENDBRANCH   8  16
BRANCH   9  22
HETATM   22  O   UNK N   1      27.128  24.387  -5.786  0.00  0.00    -0.269 OA
BRANCH  22  23
HETATM   23  C   UNK N   1      26.262  23.853  -6.694  0.00  0.00     0.364 C 
HETATM   24  O   UNK N   1      25.585  22.876  -6.398  0.00  0.00    -0.238 OA
HETATM   25  N   UNK N   1      26.122  24.435  -7.915  0.00  0.00    -0.337 N 
HETATM   26  C   UNK N   1      25.170  23.927  -8.872  0.00  0.00     0.154 C 
HETATM   27  C   UNK N   1      26.892  25.603  -8.260  0.00  0.00     0.154 C 
ENDBRANCH  22  23
ENDBRANCH   9  22
TORSDOF 3
ENDMDL
