MODEL 1
REMARK VINA RESULT:      -8.1      0.000      0.000
REMARK  8 active torsions:
REMARK  status: ('A' for Active; 'I' for Inactive)
REMARK    1  A    between atoms: O_1  and  C_13 
REMARK    2  A    between atoms: N_3  and  C_10 
REMARK    3  A    between atoms: C_5  and  C_11 
REMARK    4  A    between atoms: C_5  and  C_13 
REMARK    5  A    between atoms: C_10  and  C_12 
REMARK    6  A    between atoms: C_12  and  C_14 
REMARK    7  A    between atoms: C_14  and  C_17 
REMARK    8  A    between atoms: C_14  and  C_18 
ROOT
HETATM    1  N   UNK N   1      24.813  23.182  -8.192  0.00  0.00    -0.196 NA
HETATM    2  C   UNK N   1      26.522  25.178  -8.339  0.00  0.00     0.104 C 
HETATM    3  C   UNK N   1      25.555  24.070  -8.237  0.00  0.00     0.079 C 
ENDROOT
BRANCH   2   4
HETATM    4  C   UNK N   1      28.000  24.633  -8.285  0.00  0.00     0.065 C 
BRANCH   4   5
HETATM    5  C   UNK N   1      28.320  23.294  -7.558  0.00  0.00     0.275 C 
BRANCH   5   6
HETATM    6  N   UNK N   1      29.076  23.395  -6.292  0.00  0.00     0.088 N 
HETATM    7  C   UNK N   1      29.866  22.176  -6.111  0.00  0.00     0.274 C 
HETATM    8  C   UNK N   1      30.582  22.055  -4.763  0.00  0.00     0.055 C 
HETATM    9  C   UNK N   1      30.375  23.237  -3.814  0.00  0.00     0.075 C 
HETATM   10  C   UNK N   1      28.871  23.570  -3.788  0.00  0.00     0.055 C 
HETATM   11  C   UNK N   1      28.187  23.688  -5.162  0.00  0.00     0.274 C 
BRANCH   9  12
HETATM   12  C   UNK N   1      31.201  24.461  -4.203  0.00  0.00    -0.039 A 
HETATM   13  C   UNK N   1      30.758  25.746  -3.849  0.00  0.00     0.008 A 
HETATM   14  C   UNK N   1      31.528  26.872  -4.156  0.00  0.00     0.001 A 
HETATM   15  C   UNK N   1      32.748  26.727  -4.821  0.00  0.00     0.000 A 
HETATM   16  C   UNK N   1      33.201  25.456  -5.180  0.00  0.00     0.001 A 
HETATM   17  C   UNK N   1      32.436  24.329  -4.867  0.00  0.00     0.008 A 
ENDBRANCH   9  12
BRANCH   9  18
HETATM   18  C   UNK N   1      30.804  22.754  -2.442  0.00  0.00     0.153 C 
HETATM   19  O   UNK N   1      30.257  23.186  -1.438  0.00  0.00    -0.649 OA
BRANCH  18  20
HETATM   20  O   UNK N   1      31.846  21.907  -2.309  0.00  0.00    -0.776 OA
HETATM   21  H   UNK N   1      32.593  21.961  -2.872  0.00  0.00     0.167 HD
ENDBRANCH  18  20
ENDBRANCH   9  18
ENDBRANCH   5   6
ENDBRANCH   4   5
ENDBRANCH   2   4
BRANCH   2  22
HETATM   22  C   UNK N   1      26.191  25.796  -9.700  0.00  0.00    -0.031 A 
HETATM   23  C   UNK N   1      24.865  25.962 -10.140  0.00  0.00     0.009 A 
HETATM   24  C   UNK N   1      24.597  26.622 -11.346  0.00  0.00     0.001 A 
HETATM   25  C   UNK N   1      25.644  27.115 -12.129  0.00  0.00     0.000 A 
HETATM   26  C   UNK N   1      26.964  26.949 -11.712  0.00  0.00     0.001 A 
HETATM   27  C   UNK N   1      27.231  26.308 -10.505  0.00  0.00     0.009 A 
ENDBRANCH   2  22
BRANCH   2  28
HETATM   28  C   UNK N   1      26.316  26.216  -7.228  0.00  0.00    -0.031 A 
HETATM   29  C   UNK N   1      27.279  27.216  -7.003  0.00  0.00     0.009 A 
HETATM   30  C   UNK N   1      27.127  28.144  -5.967  0.00  0.00     0.001 A 
HETATM   31  C   UNK N   1      26.010  28.081  -5.132  0.00  0.00     0.000 A 
HETATM   32  C   UNK N   1      25.041  27.098  -5.341  0.00  0.00     0.001 A 
HETATM   33  C   UNK N   1      25.188  26.173  -6.383  0.00  0.00     0.009 A 
ENDBRANCH   2  28
TORSDOF 8
ENDMDL
MODEL 2
REMARK VINA RESULT:      -7.7      3.562      7.702
REMARK  8 active torsions:
REMARK  status: ('A' for Active; 'I' for Inactive)
REMARK    1  A    between atoms: O_1  and  C_13 
REMARK    2  A    between atoms: N_3  and  C_10 
REMARK    3  A    between atoms: C_5  and  C_11 
REMARK    4  A    between atoms: C_5  and  C_13 
REMARK    5  A    between atoms: C_10  and  C_12 
REMARK    6  A    between atoms: C_12  and  C_14 
REMARK    7  A    between atoms: C_14  and  C_17 
REMARK    8  A    between atoms: C_14  and  C_18 
ROOT
HETATM    1  N   UNK N   1      30.236  22.880  -1.728  0.00  0.00    -0.196 NA
HETATM    2  C   UNK N   1      31.154  23.099  -4.185  0.00  0.00     0.104 C 
HETATM    3  C   UNK N   1      30.620  22.963  -2.817  0.00  0.00     0.079 C 
ENDROOT
BRANCH   2   4
HETATM    4  C   UNK N   1      31.260  24.617  -4.592  0.00  0.00     0.065 C 
BRANCH   4   5
HETATM    5  C   UNK N   1      30.519  25.709  -3.765  0.00  0.00     0.275 C 
BRANCH   5   6
HETATM    6  N   UNK N   1      29.289  26.270  -4.363  0.00  0.00     0.088 N 
HETATM    7  C   UNK N   1      28.128  25.581  -3.797  0.00  0.00     0.274 C 
HETATM    8  C   UNK N   1      26.783  25.935  -4.435  0.00  0.00     0.055 C 
HETATM    9  C   UNK N   1      26.855  26.970  -5.559  0.00  0.00     0.075 C 
HETATM   10  C   UNK N   1      28.001  26.568  -6.506  0.00  0.00     0.055 C 
HETATM   11  C   UNK N   1      29.339  26.223  -5.828  0.00  0.00     0.274 C 
BRANCH   9  12
HETATM   12  C   UNK N   1      27.044  28.394  -5.043  0.00  0.00    -0.039 A 
HETATM   13  C   UNK N   1      27.781  29.322  -5.799  0.00  0.00     0.008 A 
HETATM   14  C   UNK N   1      27.922  30.642  -5.361  0.00  0.00     0.001 A 
HETATM   15  C   UNK N   1      27.330  31.050  -4.163  0.00  0.00     0.000 A 
HETATM   16  C   UNK N   1      26.596  30.140  -3.401  0.00  0.00     0.001 A 
HETATM   17  C   UNK N   1      26.448  28.822  -3.840  0.00  0.00     0.008 A 
ENDBRANCH   9  12
BRANCH   9  18
HETATM   18  C   UNK N   1      25.535  26.875  -6.303  0.00  0.00     0.153 C 
HETATM   19  O   UNK N   1      24.480  27.051  -5.711  0.00  0.00    -0.649 OA
BRANCH  18  20
HETATM   20  O   UNK N   1      25.507  26.517  -7.603  0.00  0.00    -0.776 OA
HETATM   21  H   UNK N   1      25.719  25.645  -7.874  0.00  0.00     0.167 HD
ENDBRANCH  18  20
ENDBRANCH   9  18
ENDBRANCH   5   6
ENDBRANCH   4   5
ENDBRANCH   2   4
BRANCH   2  22
HETATM   22  C   UNK N   1      32.530  22.438  -4.083  0.00  0.00    -0.031 A 
HETATM   23  C   UNK N   1      32.779  21.368  -3.203  0.00  0.00     0.009 A 
HETATM   24  C   UNK N   1      34.023  20.723  -3.209  0.00  0.00     0.001 A 
HETATM   25  C   UNK N   1      35.031  21.140  -4.081  0.00  0.00     0.000 A 
HETATM   26  C   UNK N   1      34.804  22.205  -4.951  0.00  0.00     0.001 A 
HETATM   27  C   UNK N   1      33.562  22.837  -4.959  0.00  0.00     0.009 A 
ENDBRANCH   2  22
BRANCH   2  28
HETATM   28  C   UNK N   1      30.288  22.351  -5.209  0.00  0.00    -0.031 A 
HETATM   29  C   UNK N   1      30.666  21.074  -5.660  0.00  0.00     0.009 A 
HETATM   30  C   UNK N   1      29.910  20.397  -6.624  0.00  0.00     0.001 A 
HETATM   31  C   UNK N   1      28.767  20.993  -7.159  0.00  0.00     0.000 A 
HETATM   32  C   UNK N   1      28.372  22.258  -6.721  0.00  0.00     0.001 A 
HETATM   33  C   UNK N   1      29.123  22.933  -5.750  0.00  0.00     0.009 A 
ENDBRANCH   2  28
TORSDOF 8
ENDMDL
MODEL 3
REMARK VINA RESULT:      -7.5      0.993      3.558
REMARK  8 active torsions:
REMARK  status: ('A' for Active; 'I' for Inactive)
REMARK    1  A    between atoms: O_1  and  C_13 
REMARK    2  A    between atoms: N_3  and  C_10 
REMARK    3  A    between atoms: C_5  and  C_11 
REMARK    4  A    between atoms: C_5  and  C_13 
REMARK    5  A    between atoms: C_10  and  C_12 
REMARK    6  A    between atoms: C_12  and  C_14 
REMARK    7  A    between atoms: C_14  and  C_17 
REMARK    8  A    between atoms: C_14  and  C_18 
ROOT
HETATM    1  N   UNK N   1      29.874  26.208  -7.849  0.00  0.00    -0.196 NA
HETATM    2  C   UNK N   1      27.269  25.834  -7.917  0.00  0.00     0.104 C 
HETATM    3  C   UNK N   1      28.728  26.050  -7.903  0.00  0.00     0.079 C 
ENDROOT
BRANCH   2   4
HETATM    4  C   UNK N   1      26.924  24.342  -7.546  0.00  0.00     0.065 C 
BRANCH   4   5
HETATM    5  C   UNK N   1      28.058  23.285  -7.395  0.00  0.00     0.275 C 
BRANCH   5   6
HETATM    6  N   UNK N   1      28.882  23.372  -6.171  0.00  0.00     0.088 N 
HETATM    7  C   UNK N   1      29.633  22.125  -6.014  0.00  0.00     0.274 C 
HETATM    8  C   UNK N   1      30.413  21.992  -4.704  0.00  0.00     0.055 C 
HETATM    9  C   UNK N   1      30.302  23.193  -3.763  0.00  0.00     0.075 C 
HETATM   10  C   UNK N   1      28.816  23.586  -3.663  0.00  0.00     0.055 C 
HETATM   11  C   UNK N   1      28.066  23.714  -5.001  0.00  0.00     0.274 C 
BRANCH   9  12
HETATM   12  C   UNK N   1      31.153  24.378  -4.211  0.00  0.00    -0.039 A 
HETATM   13  C   UNK N   1      30.791  25.683  -3.836  0.00  0.00     0.008 A 
HETATM   14  C   UNK N   1      31.588  26.773  -4.199  0.00  0.00     0.001 A 
HETATM   15  C   UNK N   1      32.755  26.572  -4.941  0.00  0.00     0.000 A 
HETATM   16  C   UNK N   1      33.127  25.282  -5.322  0.00  0.00     0.001 A 
HETATM   17  C   UNK N   1      32.336  24.190  -4.954  0.00  0.00     0.008 A 
ENDBRANCH   9  12
BRANCH   9  18
HETATM   18  C   UNK N   1      30.783  22.710  -2.407  0.00  0.00     0.153 C 
HETATM   19  O   UNK N   1      31.696  21.900  -2.330  0.00  0.00    -0.649 OA
BRANCH  18  20
HETATM   20  O   UNK N   1      30.159  23.106  -1.279  0.00  0.00    -0.776 OA
HETATM   21  H   UNK N   1      29.344  23.567  -1.307  0.00  0.00     0.167 HD
ENDBRANCH  18  20
ENDBRANCH   9  18
ENDBRANCH   5   6
ENDBRANCH   4   5
ENDBRANCH   2   4
BRANCH   2  22
HETATM   22  C   UNK N   1      26.768  26.817  -6.857  0.00  0.00    -0.031 A 
HETATM   23  C   UNK N   1      25.621  26.559  -6.083  0.00  0.00     0.009 A 
HETATM   24  C   UNK N   1      25.250  27.433  -5.054  0.00  0.00     0.001 A 
HETATM   25  C   UNK N   1      26.009  28.576  -4.790  0.00  0.00     0.000 A 
HETATM   26  C   UNK N   1      27.142  28.852  -5.554  0.00  0.00     0.001 A 
HETATM   27  C   UNK N   1      27.522  27.975  -6.567  0.00  0.00     0.009 A 
ENDBRANCH   2  22
BRANCH   2  28
HETATM   28  C   UNK N   1      26.658  26.179  -9.283  0.00  0.00    -0.031 A 
HETATM   29  C   UNK N   1      25.320  25.850  -9.565  0.00  0.00     0.009 A 
HETATM   30  C   UNK N   1      24.760  26.119 -10.819  0.00  0.00     0.001 A 
HETATM   31  C   UNK N   1      25.535  26.716 -11.815  0.00  0.00     0.000 A 
HETATM   32  C   UNK N   1      26.864  27.054 -11.553  0.00  0.00     0.001 A 
HETATM   33  C   UNK N   1      27.423  26.792 -10.296  0.00  0.00     0.009 A 
ENDBRANCH   2  28
TORSDOF 8
ENDMDL
MODEL 4
REMARK VINA RESULT:      -7.5     15.584     19.284
REMARK  8 active torsions:
REMARK  status: ('A' for Active; 'I' for Inactive)
REMARK    1  A    between atoms: O_1  and  C_13 
REMARK    2  A    between atoms: N_3  and  C_10 
REMARK    3  A    between atoms: C_5  and  C_11 
REMARK    4  A    between atoms: C_5  and  C_13 
REMARK    5  A    between atoms: C_10  and  C_12 
REMARK    6  A    between atoms: C_12  and  C_14 
REMARK    7  A    between atoms: C_14  and  C_17 
REMARK    8  A    between atoms: C_14  and  C_18 
ROOT
HETATM    1  N   UNK N   1      19.796  14.623   8.930  0.00  0.00    -0.196 NA
HETATM    2  C   UNK N   1      21.928  13.532   7.838  0.00  0.00     0.104 C 
HETATM    3  C   UNK N   1      20.720  14.129   8.436  0.00  0.00     0.079 C 
ENDROOT
BRANCH   2   4
HETATM    4  C   UNK N   1      22.799  14.635   7.126  0.00  0.00     0.065 C 
BRANCH   4   5
HETATM    5  C   UNK N   1      22.182  16.021   6.774  0.00  0.00     0.275 C 
BRANCH   5   6
HETATM    6  N   UNK N   1      21.595  16.158   5.424  0.00  0.00     0.088 N 
HETATM    7  C   UNK N   1      22.298  17.222   4.705  0.00  0.00     0.274 C 
HETATM    8  C   UNK N   1      21.701  17.598   3.347  0.00  0.00     0.055 C 
HETATM    9  C   UNK N   1      20.466  16.792   2.940  0.00  0.00     0.075 C 
HETATM   10  C   UNK N   1      19.508  16.746   4.145  0.00  0.00     0.055 C 
HETATM   11  C   UNK N   1      20.143  16.360   5.492  0.00  0.00     0.274 C 
BRANCH   9  12
HETATM   12  C   UNK N   1      20.809  15.385   2.458  0.00  0.00    -0.039 A 
HETATM   13  C   UNK N   1      22.145  15.043   2.187  0.00  0.00     0.008 A 
HETATM   14  C   UNK N   1      22.480  13.745   1.791  0.00  0.00     0.001 A 
HETATM   15  C   UNK N   1      21.484  12.774   1.660  0.00  0.00     0.000 A 
HETATM   16  C   UNK N   1      20.152  13.098   1.925  0.00  0.00     0.001 A 
HETATM   17  C   UNK N   1      19.817  14.394   2.328  0.00  0.00     0.008 A 
ENDBRANCH   9  12
BRANCH   9  18
HETATM   18  C   UNK N   1      19.813  17.567   1.810  0.00  0.00     0.153 C 
HETATM   19  O   UNK N   1      20.286  17.529   0.683  0.00  0.00    -0.649 OA
BRANCH  18  20
HETATM   20  O   UNK N   1      18.755  18.368   2.052  0.00  0.00    -0.776 OA
HETATM   21  H   UNK N   1      18.808  19.296   1.933  0.00  0.00     0.167 HD
ENDBRANCH  18  20
ENDBRANCH   9  18
ENDBRANCH   5   6
ENDBRANCH   4   5
ENDBRANCH   2   4
BRANCH   2  22
HETATM   22  C   UNK N   1      22.647  12.930   9.048  0.00  0.00    -0.031 A 
HETATM   23  C   UNK N   1      24.045  12.993   9.192  0.00  0.00     0.009 A 
HETATM   24  C   UNK N   1      24.657  12.520  10.360  0.00  0.00     0.001 A 
HETATM   25  C   UNK N   1      23.888  11.974  11.390  0.00  0.00     0.000 A 
HETATM   26  C   UNK N   1      22.502  11.895  11.258  0.00  0.00     0.001 A 
HETATM   27  C   UNK N   1      21.890  12.379  10.105  0.00  0.00     0.009 A 
ENDBRANCH   2  22
BRANCH   2  28
HETATM   28  C   UNK N   1      21.577  12.426   6.833  0.00  0.00    -0.031 A 
HETATM   29  C   UNK N   1      20.443  12.549   6.010  0.00  0.00     0.009 A 
HETATM   30  C   UNK N   1      20.085  11.531   5.119  0.00  0.00     0.001 A 
HETATM   31  C   UNK N   1      20.853  10.368   5.043  0.00  0.00     0.000 A 
HETATM   32  C   UNK N   1      21.985  10.228   5.849  0.00  0.00     0.001 A 
HETATM   33  C   UNK N   1      22.349  11.250   6.735  0.00  0.00     0.009 A 
ENDBRANCH   2  28
TORSDOF 8
ENDMDL
MODEL 5
REMARK VINA RESULT:      -7.5     15.316     18.809
REMARK  8 active torsions:
REMARK  status: ('A' for Active; 'I' for Inactive)
REMARK    1  A    between atoms: O_1  and  C_13 
REMARK    2  A    between atoms: N_3  and  C_10 
REMARK    3  A    between atoms: C_5  and  C_11 
REMARK    4  A    between atoms: C_5  and  C_13 
REMARK    5  A    between atoms: C_10  and  C_12 
REMARK    6  A    between atoms: C_12  and  C_14 
REMARK    7  A    between atoms: C_14  and  C_17 
REMARK    8  A    between atoms: C_14  and  C_18 
ROOT
HETATM    1  N   UNK N   1      24.177  15.137   6.680  0.00  0.00    -0.196 NA
HETATM    2  C   UNK N   1      22.275  13.830   7.946  0.00  0.00     0.104 C 
HETATM    3  C   UNK N   1      23.356  14.557   7.255  0.00  0.00     0.079 C 
ENDROOT
BRANCH   2   4
HETATM    4  C   UNK N   1      21.073  14.796   8.267  0.00  0.00     0.065 C 
BRANCH   4   5
HETATM    5  C   UNK N   1      21.069  16.257   7.727  0.00  0.00     0.275 C 
BRANCH   5   6
HETATM    6  N   UNK N   1      20.972  16.419   6.262  0.00  0.00     0.088 N 
HETATM    7  C   UNK N   1      21.534  17.718   5.888  0.00  0.00     0.274 C 
HETATM    8  C   UNK N   1      21.361  18.108   4.418  0.00  0.00     0.055 C 
HETATM    9  C   UNK N   1      20.640  17.070   3.557  0.00  0.00     0.075 C 
HETATM   10  C   UNK N   1      19.382  16.608   4.318  0.00  0.00     0.055 C 
HETATM   11  C   UNK N   1      19.596  16.222   5.792  0.00  0.00     0.274 C 
BRANCH   9  12
HETATM   12  C   UNK N   1      21.526  15.882   3.193  0.00  0.00    -0.039 A 
HETATM   13  C   UNK N   1      22.923  15.990   3.305  0.00  0.00     0.008 A 
HETATM   14  C   UNK N   1      23.745  14.895   3.020  0.00  0.00     0.001 A 
HETATM   15  C   UNK N   1      23.182  13.681   2.620  0.00  0.00     0.000 A 
HETATM   16  C   UNK N   1      21.796  13.559   2.504  0.00  0.00     0.001 A 
HETATM   17  C   UNK N   1      20.972  14.650   2.794  0.00  0.00     0.008 A 
ENDBRANCH   9  12
BRANCH   9  18
HETATM   18  C   UNK N   1      20.220  17.793   2.290  0.00  0.00     0.153 C 
HETATM   19  O   UNK N   1      20.743  18.855   1.986  0.00  0.00    -0.649 OA
BRANCH  18  20
HETATM   20  O   UNK N   1      19.213  17.315   1.531  0.00  0.00    -0.776 OA
HETATM   21  H   UNK N   1      18.347  17.668   1.590  0.00  0.00     0.167 HD
ENDBRANCH  18  20
ENDBRANCH   9  18
ENDBRANCH   5   6
ENDBRANCH   4   5
ENDBRANCH   2   4
BRANCH   2  22
HETATM   22  C   UNK N   1      21.886  12.751   6.932  0.00  0.00    -0.031 A 
HETATM   23  C   UNK N   1      20.607  12.704   6.348  0.00  0.00     0.009 A 
HETATM   24  C   UNK N   1      20.319  11.763   5.351  0.00  0.00     0.001 A 
HETATM   25  C   UNK N   1      21.297  10.858   4.931  0.00  0.00     0.000 A 
HETATM   26  C   UNK N   1      22.566  10.885   5.507  0.00  0.00     0.001 A 
HETATM   27  C   UNK N   1      22.859  11.830   6.487  0.00  0.00     0.009 A 
ENDBRANCH   2  22
BRANCH   2  28
HETATM   28  C   UNK N   1      22.770  13.176   9.244  0.00  0.00    -0.031 A 
HETATM   29  C   UNK N   1      24.145  12.963   9.451  0.00  0.00     0.009 A 
HETATM   30  C   UNK N   1      24.610  12.331  10.610  0.00  0.00     0.001 A 
HETATM   31  C   UNK N   1      23.703  11.893  11.577  0.00  0.00     0.000 A 
HETATM   32  C   UNK N   1      22.335  12.098  11.391  0.00  0.00     0.001 A 
HETATM   33  C   UNK N   1      21.869  12.739  10.236  0.00  0.00     0.009 A 
ENDBRANCH   2  28
TORSDOF 8
ENDMDL
MODEL 6
REMARK VINA RESULT:      -7.3      3.058      6.094
REMARK  8 active torsions:
REMARK  status: ('A' for Active; 'I' for Inactive)
REMARK    1  A    between atoms: O_1  and  C_13 
REMARK    2  A    between atoms: N_3  and  C_10 
REMARK    3  A    between atoms: C_5  and  C_11 
REMARK    4  A    between atoms: C_5  and  C_13 
REMARK    5  A    between atoms: C_10  and  C_12 
REMARK    6  A    between atoms: C_12  and  C_14 
REMARK    7  A    between atoms: C_14  and  C_17 
REMARK    8  A    between atoms: C_14  and  C_18 
ROOT
HETATM    1  N   UNK N   1      29.901  24.215  -8.895  0.00  0.00    -0.196 NA
HETATM    2  C   UNK N   1      29.192  22.631  -6.915  0.00  0.00     0.104 C 
HETATM    3  C   UNK N   1      29.603  23.532  -8.008  0.00  0.00     0.079 C 
ENDROOT
BRANCH   2   4
HETATM    4  C   UNK N   1      27.625  22.633  -6.752  0.00  0.00     0.065 C 
BRANCH   4   5
HETATM    5  C   UNK N   1      26.774  23.804  -7.326  0.00  0.00     0.275 C 
BRANCH   5   6
HETATM    6  N   UNK N   1      26.748  25.051  -6.532  0.00  0.00     0.088 N 
HETATM    7  C   UNK N   1      26.831  24.713  -5.110  0.00  0.00     0.274 C 
HETATM    8  C   UNK N   1      26.652  25.888  -4.146  0.00  0.00     0.055 C 
HETATM    9  C   UNK N   1      26.428  27.244  -4.818  0.00  0.00     0.075 C 
HETATM   10  C   UNK N   1      25.364  27.063  -5.917  0.00  0.00     0.055 C 
HETATM   11  C   UNK N   1      25.580  25.874  -6.869  0.00  0.00     0.274 C 
BRANCH   9  12
HETATM   12  C   UNK N   1      27.711  27.841  -5.390  0.00  0.00    -0.039 A 
HETATM   13  C   UNK N   1      27.661  28.620  -6.558  0.00  0.00     0.008 A 
HETATM   14  C   UNK N   1      28.822  29.212  -7.066  0.00  0.00     0.001 A 
HETATM   15  C   UNK N   1      30.044  29.032  -6.415  0.00  0.00     0.000 A 
HETATM   16  C   UNK N   1      30.109  28.260  -5.254  0.00  0.00     0.001 A 
HETATM   17  C   UNK N   1      28.950  27.673  -4.740  0.00  0.00     0.008 A 
ENDBRANCH   9  12
BRANCH   9  18
HETATM   18  C   UNK N   1      25.883  28.161  -3.739  0.00  0.00     0.153 C 
HETATM   19  O   UNK N   1      25.467  27.697  -2.688  0.00  0.00    -0.649 OA
BRANCH  18  20
HETATM   20  O   UNK N   1      25.775  29.488  -3.959  0.00  0.00    -0.776 OA
HETATM   21  H   UNK N   1      26.531  30.019  -4.121  0.00  0.00     0.167 HD
ENDBRANCH  18  20
ENDBRANCH   9  18
ENDBRANCH   5   6
ENDBRANCH   4   5
ENDBRANCH   2   4
BRANCH   2  22
HETATM   22  C   UNK N   1      29.717  21.270  -7.378  0.00  0.00    -0.031 A 
HETATM   23  C   UNK N   1      28.856  20.187  -7.633  0.00  0.00     0.009 A 
HETATM   24  C   UNK N   1      29.363  18.988  -8.151  0.00  0.00     0.001 A 
HETATM   25  C   UNK N   1      30.728  18.852  -8.411  0.00  0.00     0.000 A 
HETATM   26  C   UNK N   1      31.596  19.912  -8.154  0.00  0.00     0.001 A 
HETATM   27  C   UNK N   1      31.092  21.111  -7.655  0.00  0.00     0.009 A 
ENDBRANCH   2  22
BRANCH   2  28
HETATM   28  C   UNK N   1      29.848  23.021  -5.583  0.00  0.00    -0.031 A 
HETATM   29  C   UNK N   1      29.792  22.147  -4.482  0.00  0.00     0.009 A 
HETATM   30  C   UNK N   1      30.349  22.505  -3.249  0.00  0.00     0.001 A 
HETATM   31  C   UNK N   1      30.963  23.749  -3.095  0.00  0.00     0.000 A 
HETATM   32  C   UNK N   1      31.031  24.629  -4.176  0.00  0.00     0.001 A 
HETATM   33  C   UNK N   1      30.482  24.269  -5.414  0.00  0.00     0.009 A 
ENDBRANCH   2  28
TORSDOF 8
ENDMDL
MODEL 7
REMARK VINA RESULT:      -7.2     12.737     15.587
REMARK  8 active torsions:
REMARK  status: ('A' for Active; 'I' for Inactive)
REMARK    1  A    between atoms: O_1  and  C_13 
REMARK    2  A    between atoms: N_3  and  C_10 
REMARK    3  A    between atoms: C_5  and  C_11 
REMARK    4  A    between atoms: C_5  and  C_13 
REMARK    5  A    between atoms: C_10  and  C_12 
REMARK    6  A    between atoms: C_12  and  C_14 
REMARK    7  A    between atoms: C_14  and  C_17 
REMARK    8  A    between atoms: C_14  and  C_18 
ROOT
HETATM    1  N   UNK N   1      27.238  15.890   7.368  0.00  0.00    -0.196 NA
HETATM    2  C   UNK N   1      28.082  17.150   5.217  0.00  0.00     0.104 C 
HETATM    3  C   UNK N   1      27.600  16.465   6.431  0.00  0.00     0.079 C 
ENDROOT
BRANCH   2   4
HETATM    4  C   UNK N   1      29.647  17.013   5.086  0.00  0.00     0.065 C 
BRANCH   4   5
HETATM    5  C   UNK N   1      30.388  15.798   5.718  0.00  0.00     0.275 C 
BRANCH   5   6
HETATM    6  N   UNK N   1      31.606  16.101   6.498  0.00  0.00     0.088 N 
HETATM    7  C   UNK N   1      31.225  16.800   7.726  0.00  0.00     0.274 C 
HETATM    8  C   UNK N   1      32.389  17.328   8.567  0.00  0.00     0.055 C 
HETATM    9  C   UNK N   1      33.780  17.030   8.003  0.00  0.00     0.075 C 
HETATM   10  C   UNK N   1      33.773  17.385   6.504  0.00  0.00     0.055 C 
HETATM   11  C   UNK N   1      32.589  16.833   5.690  0.00  0.00     0.274 C 
BRANCH   9  12
HETATM   12  C   UNK N   1      34.209  15.581   8.221  0.00  0.00    -0.039 A 
HETATM   13  C   UNK N   1      33.573  14.802   9.202  0.00  0.00     0.008 A 
HETATM   14  C   UNK N   1      33.923  13.460   9.381  0.00  0.00     0.001 A 
HETATM   15  C   UNK N   1      34.913  12.882   8.582  0.00  0.00     0.000 A 
HETATM   16  C   UNK N   1      35.555  13.644   7.604  0.00  0.00     0.001 A 
HETATM   17  C   UNK N   1      35.201  14.983   7.419  0.00  0.00     0.008 A 
ENDBRANCH   9  12
BRANCH   9  18
HETATM   18  C   UNK N   1      34.736  17.955   8.732  0.00  0.00     0.153 C 
HETATM   19  O   UNK N   1      35.250  17.604   9.784  0.00  0.00    -0.649 OA
BRANCH  18  20
HETATM   20  O   UNK N   1      34.966  19.201   8.271  0.00  0.00    -0.776 OA
HETATM   21  H   UNK N   1      34.569  19.512   7.481  0.00  0.00     0.167 HD
ENDBRANCH  18  20
ENDBRANCH   9  18
ENDBRANCH   5   6
ENDBRANCH   4   5
ENDBRANCH   2   4
BRANCH   2  22
HETATM   22  C   UNK N   1      27.349  16.412   4.094  0.00  0.00    -0.031 A 
HETATM   23  C   UNK N   1      25.945  16.342   4.042  0.00  0.00     0.009 A 
HETATM   24  C   UNK N   1      25.307  15.745   2.947  0.00  0.00     0.001 A 
HETATM   25  C   UNK N   1      26.058  15.206   1.900  0.00  0.00     0.000 A 
HETATM   26  C   UNK N   1      27.450  15.258   1.942  0.00  0.00     0.001 A 
HETATM   27  C   UNK N   1      28.086  15.866   3.021  0.00  0.00     0.009 A 
ENDBRANCH   2  22
BRANCH   2  28
HETATM   28  C   UNK N   1      27.694  18.635   5.211  0.00  0.00    -0.031 A 
HETATM   29  C   UNK N   1      27.744  19.386   6.398  0.00  0.00     0.009 A 
HETATM   30  C   UNK N   1      27.353  20.730   6.418  0.00  0.00     0.001 A 
HETATM   31  C   UNK N   1      26.896  21.341   5.249  0.00  0.00     0.000 A 
HETATM   32  C   UNK N   1      26.841  20.613   4.060  0.00  0.00     0.001 A 
HETATM   33  C   UNK N   1      27.240  19.270   4.036  0.00  0.00     0.009 A 
ENDBRANCH   2  28
TORSDOF 8
ENDMDL
MODEL 8
REMARK VINA RESULT:      -7.2     13.985     17.850
REMARK  8 active torsions:
REMARK  status: ('A' for Active; 'I' for Inactive)
REMARK    1  A    between atoms: O_1  and  C_13 
REMARK    2  A    between atoms: N_3  and  C_10 
REMARK    3  A    between atoms: C_5  and  C_11 
REMARK    4  A    between atoms: C_5  and  C_13 
REMARK    5  A    between atoms: C_10  and  C_12 
REMARK    6  A    between atoms: C_12  and  C_14 
REMARK    7  A    between atoms: C_14  and  C_17 
REMARK    8  A    between atoms: C_14  and  C_18 
ROOT
HETATM    1  N   UNK N   1      21.002  15.599   8.130  0.00  0.00    -0.196 NA
HETATM    2  C   UNK N   1      22.880  13.810   7.685  0.00  0.00     0.104 C 
HETATM    3  C   UNK N   1      21.813  14.800   7.918  0.00  0.00     0.079 C 
ENDROOT
BRANCH   2   4
HETATM    4  C   UNK N   1      24.169  14.508   7.105  0.00  0.00     0.065 C 
BRANCH   4   5
HETATM    5  C   UNK N   1      24.041  15.675   6.082  0.00  0.00     0.275 C 
BRANCH   5   6
HETATM    6  N   UNK N   1      25.304  16.285   5.616  0.00  0.00     0.088 N 
HETATM    7  C   UNK N   1      25.368  16.191   4.156  0.00  0.00     0.274 C 
HETATM    8  C   UNK N   1      26.692  16.634   3.529  0.00  0.00     0.055 C 
HETATM    9  C   UNK N   1      27.745  17.123   4.525  0.00  0.00     0.075 C 
HETATM   10  C   UNK N   1      27.815  16.109   5.683  0.00  0.00     0.055 C 
HETATM   11  C   UNK N   1      26.465  15.691   6.290  0.00  0.00     0.274 C 
BRANCH   9  12
HETATM   12  C   UNK N   1      27.460  18.530   5.045  0.00  0.00    -0.039 A 
HETATM   13  C   UNK N   1      27.805  18.873   6.364  0.00  0.00     0.008 A 
HETATM   14  C   UNK N   1      27.594  20.171   6.838  0.00  0.00     0.001 A 
HETATM   15  C   UNK N   1      27.036  21.141   6.002  0.00  0.00     0.000 A 
HETATM   16  C   UNK N   1      26.687  20.815   4.690  0.00  0.00     0.001 A 
HETATM   17  C   UNK N   1      26.904  19.520   4.212  0.00  0.00     0.008 A 
ENDBRANCH   9  12
BRANCH   9  18
HETATM   18  C   UNK N   1      29.065  17.120   3.777  0.00  0.00     0.153 C 
HETATM   19  O   UNK N   1      29.237  16.360   2.835  0.00  0.00    -0.649 OA
BRANCH  18  20
HETATM   20  O   UNK N   1      30.088  17.895   4.191  0.00  0.00    -0.776 OA
HETATM   21  H   UNK N   1      30.121  18.237   5.063  0.00  0.00     0.167 HD
ENDBRANCH  18  20
ENDBRANCH   9  18
ENDBRANCH   5   6
ENDBRANCH   4   5
ENDBRANCH   2   4
BRANCH   2  22
HETATM   22  C   UNK N   1      23.122  13.232   9.081  0.00  0.00    -0.031 A 
HETATM   23  C   UNK N   1      22.062  12.913   9.949  0.00  0.00     0.009 A 
HETATM   24  C   UNK N   1      22.318  12.293  11.179  0.00  0.00     0.001 A 
HETATM   25  C   UNK N   1      23.628  11.994  11.560  0.00  0.00     0.000 A 
HETATM   26  C   UNK N   1      24.690  12.313  10.716  0.00  0.00     0.001 A 
HETATM   27  C   UNK N   1      24.437  12.914   9.485  0.00  0.00     0.009 A 
ENDBRANCH   2  22
BRANCH   2  28
HETATM   28  C   UNK N   1      22.424  12.699   6.729  0.00  0.00    -0.031 A 
HETATM   29  C   UNK N   1      21.054  12.430   6.556  0.00  0.00     0.009 A 
HETATM   30  C   UNK N   1      20.622  11.394   5.721  0.00  0.00     0.001 A 
HETATM   31  C   UNK N   1      21.557  10.601   5.052  0.00  0.00     0.000 A 
HETATM   32  C   UNK N   1      22.921  10.854   5.208  0.00  0.00     0.001 A 
HETATM   33  C   UNK N   1      23.354  11.897   6.037  0.00  0.00     0.009 A 
ENDBRANCH   2  28
TORSDOF 8
ENDMDL
MODEL 9
REMARK VINA RESULT:      -7.2      3.349      7.705
REMARK  8 active torsions:
REMARK  status: ('A' for Active; 'I' for Inactive)
REMARK    1  A    between atoms: O_1  and  C_13 
REMARK    2  A    between atoms: N_3  and  C_10 
REMARK    3  A    between atoms: C_5  and  C_11 
REMARK    4  A    between atoms: C_5  and  C_13 
REMARK    5  A    between atoms: C_10  and  C_12 
REMARK    6  A    between atoms: C_12  and  C_14 
REMARK    7  A    between atoms: C_14  and  C_17 
REMARK    8  A    between atoms: C_14  and  C_18 
ROOT
HETATM    1  N   UNK N   1      31.561  22.076  -2.224  0.00  0.00    -0.196 NA
HETATM    2  C   UNK N   1      32.256  22.860  -4.639  0.00  0.00     0.104 C 
HETATM    3  C   UNK N   1      31.850  22.406  -3.296  0.00  0.00     0.079 C 
ENDROOT
BRANCH   2   4
HETATM    4  C   UNK N   1      32.058  24.417  -4.782  0.00  0.00     0.065 C 
BRANCH   4   5
HETATM    5  C   UNK N   1      30.999  25.161  -3.917  0.00  0.00     0.275 C 
BRANCH   5   6
HETATM    6  N   UNK N   1      29.637  25.260  -4.481  0.00  0.00     0.088 N 
HETATM    7  C   UNK N   1      28.783  24.256  -3.844  0.00  0.00     0.274 C 
HETATM    8  C   UNK N   1      27.378  24.121  -4.437  0.00  0.00     0.055 C 
HETATM    9  C   UNK N   1      27.074  25.070  -5.598  0.00  0.00     0.075 C 
HETATM   10  C   UNK N   1      28.262  25.021  -6.578  0.00  0.00     0.055 C 
HETATM   11  C   UNK N   1      29.658  25.164  -5.945  0.00  0.00     0.274 C 
BRANCH   9  12
HETATM   12  C   UNK N   1      26.800  26.500  -5.139  0.00  0.00    -0.039 A 
HETATM   13  C   UNK N   1      26.133  26.730  -3.923  0.00  0.00     0.008 A 
HETATM   14  C   UNK N   1      25.918  28.034  -3.468  0.00  0.00     0.001 A 
HETATM   15  C   UNK N   1      26.366  29.122  -4.220  0.00  0.00     0.000 A 
HETATM   16  C   UNK N   1      27.029  28.910  -5.430  0.00  0.00     0.001 A 
HETATM   17  C   UNK N   1      27.252  27.607  -5.884  0.00  0.00     0.008 A 
ENDBRANCH   9  12
BRANCH   9  18
HETATM   18  C   UNK N   1      25.839  24.514  -6.282  0.00  0.00     0.153 C 
HETATM   19  O   UNK N   1      25.169  23.649  -5.736  0.00  0.00    -0.649 OA
BRANCH  18  20
HETATM   20  O   UNK N   1      25.512  24.909  -7.529  0.00  0.00    -0.776 OA
HETATM   21  H   UNK N   1      24.974  24.378  -8.084  0.00  0.00     0.167 HD
ENDBRANCH  18  20
ENDBRANCH   9  18
ENDBRANCH   5   6
ENDBRANCH   4   5
ENDBRANCH   2   4
BRANCH   2  22
HETATM   22  C   UNK N   1      33.732  22.463  -4.702  0.00  0.00    -0.031 A 
HETATM   23  C   UNK N   1      34.172  21.172  -4.357  0.00  0.00     0.009 A 
HETATM   24  C   UNK N   1      35.516  20.815  -4.523  0.00  0.00     0.001 A 
HETATM   25  C   UNK N   1      36.436  21.740  -5.024  0.00  0.00     0.000 A 
HETATM   26  C   UNK N   1      36.018  23.026  -5.361  0.00  0.00     0.001 A 
HETATM   27  C   UNK N   1      34.679  23.378  -5.213  0.00  0.00     0.009 A 
ENDBRANCH   2  22
BRANCH   2  28
HETATM   28  C   UNK N   1      31.471  22.138  -5.743  0.00  0.00    -0.031 A 
HETATM   29  C   UNK N   1      31.805  22.334  -7.095  0.00  0.00     0.009 A 
HETATM   30  C   UNK N   1      31.073  21.716  -8.115  0.00  0.00     0.001 A 
HETATM   31  C   UNK N   1      29.987  20.899  -7.799  0.00  0.00     0.000 A 
HETATM   32  C   UNK N   1      29.641  20.690  -6.462  0.00  0.00     0.001 A 
HETATM   33  C   UNK N   1      30.378  21.300  -5.440  0.00  0.00     0.009 A 
ENDBRANCH   2  28
TORSDOF 8
ENDMDL
