MODEL 1
REMARK VINA RESULT:      -6.9      0.000      0.000
REMARK  1 active torsions:
REMARK  status: ('A' for Active; 'I' for Inactive)
REMARK    1  A    between atoms: C_8  and  C_10 
ROOT
HETATM    1 Cl   UNK N   1      38.814   9.851  10.191  0.00  0.00    -0.084 Cl
HETATM    2  O   UNK N   1      35.293  17.067  10.947  0.00  0.00    -0.271 OA
HETATM    3  N   UNK N   1      36.793  15.450  10.685  0.00  0.00    -0.325 N 
HETATM    4  N   UNK N   1      34.506  14.079  12.080  0.00  0.00    -0.380 N 
ATOM      5  HN  UNK N   1      33.769  14.179  12.779  1.00  0.00     0.160 HD
HETATM    6  C   UNK N   1      36.593  13.026  11.364  0.00  0.00     0.020 A 
HETATM    7  C   UNK N   1      35.441  13.219  12.333  0.00  0.00     0.053 C 
HETATM    8  C   UNK N   1      37.192  14.090  10.604  0.00  0.00     0.047 A 
HETATM    9  C   UNK N   1      37.103  11.731  11.190  0.00  0.00     0.040 A 
HETATM   10  C   UNK N   1      34.411  14.907  10.912  0.00  0.00     0.223 C 
HETATM   11  C   UNK N   1      38.285  13.809   9.773  0.00  0.00     0.032 A 
HETATM   12  C   UNK N   1      35.528  15.874  10.877  0.00  0.00     0.239 C 
HETATM   13  C   UNK N   1      38.182  11.476  10.342  0.00  0.00     0.035 A 
HETATM   14  C   UNK N   1      38.776  12.516   9.640  0.00  0.00     0.026 A 
HETATM   15  H   UNK N   1      37.493  16.136  10.595  0.00  0.00     0.169 HD
ENDROOT
BRANCH   7  16
HETATM   16  C   UNK N   1      35.221  12.367  13.574  0.00  0.00     0.013 A 
HETATM   17  C   UNK N   1      35.848  12.514  14.857  0.00  0.00     0.046 A 
HETATM   18 Cl   UNK N   1      36.960  13.797  15.308  0.00  0.00    -0.083 Cl
HETATM   19  C   UNK N   1      35.508  11.640  15.898  0.00  0.00     0.025 A 
HETATM   20  C   UNK N   1      34.563  10.633  15.721  0.00  0.00     0.002 A 
HETATM   21  C   UNK N   1      33.923  10.497  14.498  0.00  0.00     0.001 A 
HETATM   22  C   UNK N   1      34.247  11.351  13.448  0.00  0.00     0.015 A 
ENDBRANCH   7  16
TORSDOF 1
ENDMDL
MODEL 2
REMARK VINA RESULT:      -6.9     13.977     15.412
REMARK  1 active torsions:
REMARK  status: ('A' for Active; 'I' for Inactive)
REMARK    1  A    between atoms: C_8  and  C_10 
ROOT
HETATM    1 Cl   UNK N   1      20.693  10.225   5.472  0.00  0.00    -0.084 Cl
HETATM    2  O   UNK N   1      20.708  18.016   7.554  0.00  0.00    -0.271 OA
HETATM    3  N   UNK N   1      20.939  16.116   6.427  0.00  0.00    -0.325 N 
HETATM    4  N   UNK N   1      20.984  15.245   9.307  0.00  0.00    -0.380 N 
ATOM      5  HN  UNK N   1      21.288  15.485  10.251  1.00  0.00     0.160 HD
HETATM    6  C   UNK N   1      21.145  13.778   7.359  0.00  0.00     0.020 A 
HETATM    7  C   UNK N   1      21.516  14.192   8.771  0.00  0.00     0.053 C 
HETATM    8  C   UNK N   1      20.873  14.703   6.292  0.00  0.00     0.047 A 
HETATM    9  C   UNK N   1      21.054  12.407   7.073  0.00  0.00     0.040 A 
HETATM   10  C   UNK N   1      20.011  16.106   8.699  0.00  0.00     0.223 C 
HETATM   11  C   UNK N   1      20.587  14.212   5.012  0.00  0.00     0.032 A 
HETATM   12  C   UNK N   1      20.599  16.803   7.536  0.00  0.00     0.239 C 
HETATM   13  C   UNK N   1      20.751  11.944   5.792  0.00  0.00     0.035 A 
HETATM   14  C   UNK N   1      20.524  12.846   4.761  0.00  0.00     0.026 A 
HETATM   15  H   UNK N   1      21.257  16.632   5.652  0.00  0.00     0.169 HD
ENDROOT
BRANCH   7  16
HETATM   16  C   UNK N   1      22.410  13.375   9.691  0.00  0.00     0.013 A 
HETATM   17  C   UNK N   1      22.012  12.592  10.826  0.00  0.00     0.046 A 
HETATM   18 Cl   UNK N   1      20.358  12.326  11.353  0.00  0.00    -0.083 Cl
HETATM   19  C   UNK N   1      22.979  11.885  11.554  0.00  0.00     0.025 A 
HETATM   20  C   UNK N   1      24.323  11.916  11.194  0.00  0.00     0.002 A 
HETATM   21  C   UNK N   1      24.721  12.640  10.080  0.00  0.00     0.001 A 
HETATM   22  C   UNK N   1      23.779  13.353   9.344  0.00  0.00     0.015 A 
ENDBRANCH   7  16
TORSDOF 1
ENDMDL
MODEL 3
REMARK VINA RESULT:      -6.6      6.517      9.187
REMARK  1 active torsions:
REMARK  status: ('A' for Active; 'I' for Inactive)
REMARK    1  A    between atoms: C_8  and  C_10 
ROOT
HETATM    1 Cl   UNK N   1      28.209  16.644   6.308  0.00  0.00    -0.084 Cl
HETATM    2  O   UNK N   1      35.379  17.451   9.909  0.00  0.00    -0.271 OA
HETATM    3  N   UNK N   1      33.362  17.858   9.073  0.00  0.00    -0.325 N 
HETATM    4  N   UNK N   1      34.296  15.445   7.536  0.00  0.00    -0.380 N 
ATOM      5  HN  UNK N   1      35.099  14.982   7.109  1.00  0.00     0.160 HD
HETATM    6  C   UNK N   1      32.137  16.563   7.285  0.00  0.00     0.020 A 
HETATM    7  C   UNK N   1      33.353  15.838   6.739  0.00  0.00     0.053 C 
HETATM    8  C   UNK N   1      32.176  17.491   8.382  0.00  0.00     0.047 A 
HETATM    9  C   UNK N   1      30.892  16.309   6.689  0.00  0.00     0.040 A 
HETATM   10  C   UNK N   1      34.319  15.601   8.963  0.00  0.00     0.223 C 
HETATM   11  C   UNK N   1      31.000  18.142   8.774  0.00  0.00     0.032 A 
HETATM   12  C   UNK N   1      34.399  17.033   9.321  0.00  0.00     0.239 C 
HETATM   13  C   UNK N   1      29.731  16.958   7.110  0.00  0.00     0.035 A 
HETATM   14  C   UNK N   1      29.787  17.880   8.148  0.00  0.00     0.026 A 
HETATM   15  H   UNK N   1      33.432  18.785   9.396  0.00  0.00     0.169 HD
ENDROOT
BRANCH   7  16
HETATM   16  C   UNK N   1      33.512  15.415   5.287  0.00  0.00     0.013 A 
HETATM   17  C   UNK N   1      33.270  16.207   4.115  0.00  0.00     0.046 A 
HETATM   18 Cl   UNK N   1      32.819  17.904   4.105  0.00  0.00    -0.083 Cl
HETATM   19  C   UNK N   1      33.487  15.651   2.846  0.00  0.00     0.025 A 
HETATM   20  C   UNK N   1      33.945  14.346   2.695  0.00  0.00     0.002 A 
HETATM   21  C   UNK N   1      34.215  13.577   3.817  0.00  0.00     0.001 A 
HETATM   22  C   UNK N   1      34.004  14.106   5.087  0.00  0.00     0.015 A 
ENDBRANCH   7  16
TORSDOF 1
ENDMDL
MODEL 4
REMARK VINA RESULT:      -6.6     20.021     22.459
REMARK  1 active torsions:
REMARK  status: ('A' for Active; 'I' for Inactive)
REMARK    1  A    between atoms: C_8  and  C_10 
ROOT
HETATM    1 Cl   UNK N   1      29.004  22.086  -9.323  0.00  0.00    -0.084 Cl
HETATM    2  O   UNK N   1      30.565  23.005  -1.465  0.00  0.00    -0.271 OA
HETATM    3  N   UNK N   1      30.036  22.138  -3.440  0.00  0.00    -0.325 N 
HETATM    4  N   UNK N   1      29.426  25.067  -3.761  0.00  0.00    -0.380 N 
ATOM      5  HN  UNK N   1      29.072  25.905  -3.300  1.00  0.00     0.160 HD
HETATM    6  C   UNK N   1      29.169  23.348  -5.480  0.00  0.00     0.020 A 
HETATM    7  C   UNK N   1      28.733  24.608  -4.755  0.00  0.00     0.053 C 
HETATM    8  C   UNK N   1      29.783  22.219  -4.835  0.00  0.00     0.047 A 
HETATM    9  C   UNK N   1      28.970  23.279  -6.868  0.00  0.00     0.040 A 
HETATM   10  C   UNK N   1      30.643  24.508  -3.247  0.00  0.00     0.223 C 
HETATM   11  C   UNK N   1      30.103  21.085  -5.594  0.00  0.00     0.032 A 
HETATM   12  C   UNK N   1      30.386  23.177  -2.656  0.00  0.00     0.239 C 
HETATM   13  C   UNK N   1      29.313  22.144  -7.602  0.00  0.00     0.035 A 
HETATM   14  C   UNK N   1      29.873  21.045  -6.964  0.00  0.00     0.026 A 
HETATM   15  H   UNK N   1      29.947  21.256  -3.013  0.00  0.00     0.169 HD
ENDROOT
BRANCH   7  16
HETATM   16  C   UNK N   1      27.564  25.478  -5.189  0.00  0.00     0.013 A 
HETATM   17  C   UNK N   1      26.248  25.047  -5.569  0.00  0.00     0.046 A 
HETATM   18 Cl   UNK N   1      25.664  23.391  -5.524  0.00  0.00    -0.083 Cl
HETATM   19  C   UNK N   1      25.284  26.000  -5.927  0.00  0.00     0.025 A 
HETATM   20  C   UNK N   1      25.569  27.361  -5.911  0.00  0.00     0.002 A 
HETATM   21  C   UNK N   1      26.824  27.798  -5.515  0.00  0.00     0.001 A 
HETATM   22  C   UNK N   1      27.799  26.870  -5.159  0.00  0.00     0.015 A 
ENDBRANCH   7  16
TORSDOF 1
ENDMDL
MODEL 5
REMARK VINA RESULT:      -6.4     21.034     23.378
REMARK  1 active torsions:
REMARK  status: ('A' for Active; 'I' for Inactive)
REMARK    1  A    between atoms: C_8  and  C_10 
ROOT
HETATM    1 Cl   UNK N   1      30.850  23.402  -2.805  0.00  0.00    -0.084 Cl
HETATM    2  O   UNK N   1      25.777  21.920  -8.896  0.00  0.00    -0.271 OA
HETATM    3  N   UNK N   1      27.612  22.155  -7.667  0.00  0.00    -0.325 N 
HETATM    4  N   UNK N   1      25.605  23.932  -6.299  0.00  0.00    -0.380 N 
ATOM      5  HN  UNK N   1      24.822  24.573  -6.434  1.00  0.00     0.160 HD
HETATM    6  C   UNK N   1      27.912  23.555  -5.587  0.00  0.00     0.020 A 
HETATM    7  C   UNK N   1      26.690  24.429  -5.795  0.00  0.00     0.053 C 
HETATM    8  C   UNK N   1      28.307  22.496  -6.476  0.00  0.00     0.047 A 
HETATM    9  C   UNK N   1      28.707  23.786  -4.453  0.00  0.00     0.040 A 
HETATM   10  C   UNK N   1      25.400  22.565  -6.686  0.00  0.00     0.223 C 
HETATM   11  C   UNK N   1      29.483  21.782  -6.215  0.00  0.00     0.032 A 
HETATM   12  C   UNK N   1      26.275  22.220  -7.827  0.00  0.00     0.239 C 
HETATM   13  C   UNK N   1      29.865  23.048  -4.207  0.00  0.00     0.035 A 
HETATM   14  C   UNK N   1      30.257  22.051  -5.092  0.00  0.00     0.026 A 
HETATM   15  H   UNK N   1      28.147  21.849  -8.434  0.00  0.00     0.169 HD
ENDROOT
BRANCH   7  16
HETATM   16  C   UNK N   1      26.588  25.875  -5.334  0.00  0.00     0.013 A 
HETATM   17  C   UNK N   1      26.874  27.057  -6.097  0.00  0.00     0.046 A 
HETATM   18 Cl   UNK N   1      27.323  27.092  -7.795  0.00  0.00    -0.083 Cl
HETATM   19  C   UNK N   1      26.708  28.318  -5.509  0.00  0.00     0.025 A 
HETATM   20  C   UNK N   1      26.258  28.454  -4.199  0.00  0.00     0.002 A 
HETATM   21  C   UNK N   1      25.945  27.325  -3.458  0.00  0.00     0.001 A 
HETATM   22  C   UNK N   1      26.107  26.061  -4.019  0.00  0.00     0.015 A 
ENDBRANCH   7  16
TORSDOF 1
ENDMDL
MODEL 6
REMARK VINA RESULT:      -6.4      6.643      8.909
REMARK  1 active torsions:
REMARK  status: ('A' for Active; 'I' for Inactive)
REMARK    1  A    between atoms: C_8  and  C_10 
ROOT
HETATM    1 Cl   UNK N   1      28.168  18.095   9.122  0.00  0.00    -0.084 Cl
HETATM    2  O   UNK N   1      32.476  16.262   2.556  0.00  0.00    -0.271 OA
HETATM    3  N   UNK N   1      30.859  16.376   4.074  0.00  0.00    -0.325 N 
HETATM    4  N   UNK N   1      33.339  17.100   5.619  0.00  0.00    -0.380 N 
ATOM      5  HN  UNK N   1      34.335  16.916   5.738  1.00  0.00     0.160 HD
HETATM    6  C   UNK N   1      31.065  17.009   6.510  0.00  0.00     0.020 A 
HETATM    7  C   UNK N   1      32.564  16.799   6.612  0.00  0.00     0.053 C 
HETATM    8  C   UNK N   1      30.303  16.812   5.306  0.00  0.00     0.047 A 
HETATM    9  C   UNK N   1      30.374  17.429   7.658  0.00  0.00     0.040 A 
HETATM   10  C   UNK N   1      32.928  17.664   4.365  0.00  0.00     0.223 C 
HETATM   11  C   UNK N   1      28.914  16.988   5.335  0.00  0.00     0.032 A 
HETATM   12  C   UNK N   1      32.086  16.703   3.621  0.00  0.00     0.239 C 
HETATM   13  C   UNK N   1      28.992  17.614   7.655  0.00  0.00     0.035 A 
HETATM   14  C   UNK N   1      28.261  17.387   6.496  0.00  0.00     0.026 A 
HETATM   15  H   UNK N   1      30.307  15.791   3.508  0.00  0.00     0.169 HD
ENDROOT
BRANCH   7  16
HETATM   16  C   UNK N   1      33.276  16.352   7.880  0.00  0.00     0.013 A 
HETATM   17  C   UNK N   1      34.238  17.092   8.647  0.00  0.00     0.046 A 
HETATM   18 Cl   UNK N   1      34.740  18.746   8.334  0.00  0.00    -0.083 Cl
HETATM   19  C   UNK N   1      34.783  16.524   9.808  0.00  0.00     0.025 A 
HETATM   20  C   UNK N   1      34.404  15.257  10.241  0.00  0.00     0.002 A 
HETATM   21  C   UNK N   1      33.452  14.542   9.531  0.00  0.00     0.001 A 
HETATM   22  C   UNK N   1      32.899  15.084   8.373  0.00  0.00     0.015 A 
ENDBRANCH   7  16
TORSDOF 1
ENDMDL
MODEL 7
REMARK VINA RESULT:      -6.3     23.442     25.122
REMARK  1 active torsions:
REMARK  status: ('A' for Active; 'I' for Inactive)
REMARK    1  A    between atoms: C_8  and  C_10 
ROOT
HETATM    1 Cl   UNK N   1      29.315  28.004 -10.180  0.00  0.00    -0.084 Cl
HETATM    2  O   UNK N   1      25.292  27.896  -3.192  0.00  0.00    -0.271 OA
HETATM    3  N   UNK N   1      26.855  28.199  -4.741  0.00  0.00    -0.325 N 
HETATM    4  N   UNK N   1      25.158  25.981  -5.864  0.00  0.00    -0.380 N 
ATOM      5  HN  UNK N   1      24.611  25.149  -5.642  1.00  0.00     0.160 HD
HETATM    6  C   UNK N   1      27.107  26.987  -6.942  0.00  0.00     0.020 A 
HETATM    7  C   UNK N   1      26.218  25.810  -6.589  0.00  0.00     0.053 C 
HETATM    8  C   UNK N   1      27.374  28.090  -6.058  0.00  0.00     0.047 A 
HETATM    9  C   UNK N   1      27.703  27.010  -8.213  0.00  0.00     0.040 A 
HETATM   10  C   UNK N   1      24.681  27.231  -5.343  0.00  0.00     0.223 C 
HETATM   11  C   UNK N   1      28.251  29.103  -6.469  0.00  0.00     0.032 A 
HETATM   12  C   UNK N   1      25.637  27.770  -4.353  0.00  0.00     0.239 C 
HETATM   13  C   UNK N   1      28.559  28.041  -8.603  0.00  0.00     0.035 A 
HETATM   14  C   UNK N   1      28.838  29.083  -7.728  0.00  0.00     0.026 A 
HETATM   15  H   UNK N   1      27.428  28.618  -4.060  0.00  0.00     0.169 HD
ENDROOT
BRANCH   7  16
HETATM   16  C   UNK N   1      26.412  24.403  -7.134  0.00  0.00     0.013 A 
HETATM   17  C   UNK N   1      27.366  23.422  -6.699  0.00  0.00     0.046 A 
HETATM   18 Cl   UNK N   1      28.477  23.606  -5.351  0.00  0.00    -0.083 Cl
HETATM   19  C   UNK N   1      27.389  22.161  -7.311  0.00  0.00     0.025 A 
HETATM   20  C   UNK N   1      26.498  21.831  -8.327  0.00  0.00     0.002 A 
HETATM   21  C   UNK N   1      25.548  22.754  -8.737  0.00  0.00     0.001 A 
HETATM   22  C   UNK N   1      25.508  24.015  -8.147  0.00  0.00     0.015 A 
ENDBRANCH   7  16
TORSDOF 1
ENDMDL
MODEL 8
REMARK VINA RESULT:      -6.2     23.897     25.472
REMARK  1 active torsions:
REMARK  status: ('A' for Active; 'I' for Inactive)
REMARK    1  A    between atoms: C_8  and  C_10 
ROOT
HETATM    1 Cl   UNK N   1      29.436  28.214 -10.138  0.00  0.00    -0.084 Cl
HETATM    2  O   UNK N   1      25.262  27.828  -3.249  0.00  0.00    -0.271 OA
HETATM    3  N   UNK N   1      26.862  28.182  -4.749  0.00  0.00    -0.325 N 
HETATM    4  N   UNK N   1      25.160  26.046  -6.013  0.00  0.00    -0.380 N 
ATOM      5  HN  UNK N   1      24.597  25.212  -5.843  1.00  0.00     0.160 HD
HETATM    6  C   UNK N   1      27.145  27.075  -7.000  0.00  0.00     0.020 A 
HETATM    7  C   UNK N   1      26.233  25.895  -6.723  0.00  0.00     0.053 C 
HETATM    8  C   UNK N   1      27.408  28.130  -6.058  0.00  0.00     0.047 A 
HETATM    9  C   UNK N   1      27.769  27.151  -8.256  0.00  0.00     0.040 A 
HETATM   10  C   UNK N   1      24.689  27.276  -5.442  0.00  0.00     0.223 C 
HETATM   11  C   UNK N   1      28.306  29.148  -6.401  0.00  0.00     0.032 A 
HETATM   12  C   UNK N   1      25.630  27.753  -4.407  0.00  0.00     0.239 C 
HETATM   13  C   UNK N   1      28.647  28.186  -8.577  0.00  0.00     0.035 A 
HETATM   14  C   UNK N   1      28.921  29.180  -7.647  0.00  0.00     0.026 A 
HETATM   15  H   UNK N   1      27.425  28.559  -4.036  0.00  0.00     0.169 HD
ENDROOT
BRANCH   7  16
HETATM   16  C   UNK N   1      26.420  24.513  -7.331  0.00  0.00     0.013 A 
HETATM   17  C   UNK N   1      25.935  24.044  -8.599  0.00  0.00     0.046 A 
HETATM   18 Cl   UNK N   1      25.083  25.015  -9.788  0.00  0.00    -0.083 Cl
HETATM   19  C   UNK N   1      26.220  22.733  -9.007  0.00  0.00     0.025 A 
HETATM   20  C   UNK N   1      26.974  21.874  -8.214  0.00  0.00     0.002 A 
HETATM   21  C   UNK N   1      27.479  22.321  -7.002  0.00  0.00     0.001 A 
HETATM   22  C   UNK N   1      27.206  23.618  -6.573  0.00  0.00     0.015 A 
ENDBRANCH   7  16
TORSDOF 1
ENDMDL
MODEL 9
REMARK VINA RESULT:      -6.2     20.376     22.772
REMARK  1 active torsions:
REMARK  status: ('A' for Active; 'I' for Inactive)
REMARK    1  A    between atoms: C_8  and  C_10 
ROOT
HETATM    1 Cl   UNK N   1      28.189  28.811  -4.337  0.00  0.00    -0.084 Cl
HETATM    2  O   UNK N   1      24.795  22.037  -7.098  0.00  0.00    -0.271 OA
HETATM    3  N   UNK N   1      25.136  23.985  -6.087  0.00  0.00    -0.325 N 
HETATM    4  N   UNK N   1      27.898  22.816  -6.331  0.00  0.00    -0.380 N 
ATOM      5  HN  UNK N   1      28.451  21.959  -6.302  1.00  0.00     0.160 HD
HETATM    6  C   UNK N   1      27.336  24.988  -5.360  0.00  0.00     0.020 A 
HETATM    7  C   UNK N   1      28.133  23.698  -5.411  0.00  0.00     0.053 C 
HETATM    8  C   UNK N   1      25.940  25.087  -5.692  0.00  0.00     0.047 A 
HETATM    9  C   UNK N   1      28.000  26.162  -4.972  0.00  0.00     0.040 A 
HETATM   10  C   UNK N   1      26.931  22.929  -7.385  0.00  0.00     0.223 C 
HETATM   11  C   UNK N   1      25.289  26.320  -5.564  0.00  0.00     0.032 A 
HETATM   12  C   UNK N   1      25.563  22.941  -6.826  0.00  0.00     0.239 C 
HETATM   13  C   UNK N   1      27.331  27.382  -4.869  0.00  0.00     0.035 A 
HETATM   14  C   UNK N   1      25.975  27.459  -5.158  0.00  0.00     0.026 A 
HETATM   15  H   UNK N   1      24.195  23.983  -5.799  0.00  0.00     0.169 HD
ENDROOT
BRANCH   7  16
HETATM   16  C   UNK N   1      29.315  23.391  -4.504  0.00  0.00     0.013 A 
HETATM   17  C   UNK N   1      30.708  23.403  -4.850  0.00  0.00     0.046 A 
HETATM   18 Cl   UNK N   1      31.369  23.877  -6.407  0.00  0.00    -0.083 Cl
HETATM   19  C   UNK N   1      31.667  23.107  -3.872  0.00  0.00     0.025 A 
HETATM   20  C   UNK N   1      31.301  22.812  -2.562  0.00  0.00     0.002 A 
HETATM   21  C   UNK N   1      29.961  22.828  -2.202  0.00  0.00     0.001 A 
HETATM   22  C   UNK N   1      28.990  23.115  -3.157  0.00  0.00     0.015 A 
ENDBRANCH   7  16
TORSDOF 1
ENDMDL
