MODEL 1
REMARK VINA RESULT:      -6.2      0.000      0.000
REMARK  4 active torsions:
REMARK  status: ('A' for Active; 'I' for Inactive)
REMARK    1  A    between atoms: O_1  and  C_11 
REMARK    2  A    between atoms: C_4  and  C_6 
REMARK    3  A    between atoms: C_6  and  C_10 
REMARK    4  A    between atoms: C_6  and  C_11 
ROOT
HETATM    1  C   UNK N   1      33.211  17.114   8.192  0.00  0.00     0.140 C 
ENDROOT
BRANCH   1   2
HETATM    2  C   UNK N   1      33.894  16.241   9.277  0.00  0.00     0.094 C 
HETATM    3  N   UNK N   1      34.734  17.077  10.143  0.00  0.00    -0.416 N 
HETATM    4  C   UNK N   1      35.278  16.272  11.236  0.00  0.00     0.114 C 
HETATM    5  H   UNK N   1      34.912  18.071  10.005  0.00  0.00     0.153 HD
HETATM    6  C   UNK N   1      36.206  15.197  10.681  0.00  0.00     0.019 C 
HETATM    7  C   UNK N   1      35.414  14.298   9.743  0.00  0.00     0.004 C 
HETATM    8  C   UNK N   1      34.761  15.140   8.653  0.00  0.00     0.026 C 
ENDBRANCH   1   2
BRANCH   1   9
HETATM    9  C   UNK N   1      31.713  17.365   8.161  0.00  0.00    -0.043 A 
HETATM   10  C   UNK N   1      31.147  18.357   8.983  0.00  0.00     0.008 A 
HETATM   11  C   UNK N   1      29.781  18.641   8.920  0.00  0.00     0.001 A 
HETATM   12  C   UNK N   1      28.964  17.950   8.023  0.00  0.00     0.000 A 
HETATM   13  C   UNK N   1      29.511  16.964   7.201  0.00  0.00     0.001 A 
HETATM   14  C   UNK N   1      30.877  16.673   7.272  0.00  0.00     0.008 A 
ENDBRANCH   1   9
BRANCH   1  15
HETATM   15  C   UNK N   1      34.091  18.032   7.375  0.00  0.00     0.269 C 
HETATM   16  O   UNK N   1      34.771  18.864   7.944  0.00  0.00    -0.264 OA
BRANCH  15  17
HETATM   17  O   UNK N   1      34.140  17.898   6.024  0.00  0.00    -0.326 OA
HETATM   18  C   UNK N   1      33.968  16.678   5.409  0.00  0.00     0.213 C 
ENDBRANCH  15  17
ENDBRANCH   1  15
TORSDOF 4
ENDMDL
MODEL 2
REMARK VINA RESULT:      -6.0      2.058      4.239
REMARK  4 active torsions:
REMARK  status: ('A' for Active; 'I' for Inactive)
REMARK    1  A    between atoms: O_1  and  C_11 
REMARK    2  A    between atoms: C_4  and  C_6 
REMARK    3  A    between atoms: C_6  and  C_10 
REMARK    4  A    between atoms: C_6  and  C_11 
ROOT
HETATM    1  C   UNK N   1      32.376  17.291   6.779  0.00  0.00     0.140 C 
ENDROOT
BRANCH   1   2
HETATM    2  C   UNK N   1      32.348  16.601   5.391  0.00  0.00     0.094 C 
HETATM    3  N   UNK N   1      33.580  15.829   5.186  0.00  0.00    -0.416 N 
HETATM    4  C   UNK N   1      33.498  15.083   3.931  0.00  0.00     0.114 C 
HETATM    5  H   UNK N   1      34.377  15.815   5.823  0.00  0.00     0.153 HD
HETATM    6  C   UNK N   1      33.420  16.049   2.754  0.00  0.00     0.019 C 
HETATM    7  C   UNK N   1      32.176  16.912   2.906  0.00  0.00     0.004 C 
HETATM    8  C   UNK N   1      32.205  17.621   4.255  0.00  0.00     0.026 C 
ENDBRANCH   1   2
BRANCH   1   9
HETATM    9  C   UNK N   1      31.121  17.545   7.598  0.00  0.00    -0.043 A 
HETATM   10  C   UNK N   1      31.176  18.367   8.738  0.00  0.00     0.008 A 
HETATM   11  C   UNK N   1      30.019  18.659   9.464  0.00  0.00     0.001 A 
HETATM   12  C   UNK N   1      28.787  18.146   9.050  0.00  0.00     0.000 A 
HETATM   13  C   UNK N   1      28.717  17.329   7.921  0.00  0.00     0.001 A 
HETATM   14  C   UNK N   1      29.878  17.030   7.200  0.00  0.00     0.008 A 
ENDBRANCH   1   9
BRANCH   1  15
HETATM   15  C   UNK N   1      33.705  17.375   7.494  0.00  0.00     0.269 C 
HETATM   16  O   UNK N   1      34.470  18.281   7.223  0.00  0.00    -0.264 OA
BRANCH  15  17
HETATM   17  O   UNK N   1      34.019  16.463   8.451  0.00  0.00    -0.326 OA
HETATM   18  C   UNK N   1      34.669  16.822   9.610  0.00  0.00     0.213 C 
ENDBRANCH  15  17
ENDBRANCH   1  15
TORSDOF 4
ENDMDL
MODEL 3
REMARK VINA RESULT:      -6.0      1.709      4.860
REMARK  4 active torsions:
REMARK  status: ('A' for Active; 'I' for Inactive)
REMARK    1  A    between atoms: O_1  and  C_11 
REMARK    2  A    between atoms: C_4  and  C_6 
REMARK    3  A    between atoms: C_6  and  C_10 
REMARK    4  A    between atoms: C_6  and  C_11 
ROOT
HETATM    1  C   UNK N   1      32.587  17.314   7.079  0.00  0.00     0.140 C 
ENDROOT
BRANCH   1   2
HETATM    2  C   UNK N   1      31.210  17.817   7.584  0.00  0.00     0.094 C 
HETATM    3  N   UNK N   1      31.251  18.027   9.037  0.00  0.00    -0.416 N 
HETATM    4  C   UNK N   1      29.992  18.615   9.491  0.00  0.00     0.114 C 
HETATM    5  H   UNK N   1      32.040  17.797   9.641  0.00  0.00     0.153 HD
HETATM    6  C   UNK N   1      28.844  17.641   9.251  0.00  0.00     0.019 C 
HETATM    7  C   UNK N   1      28.750  17.346   7.761  0.00  0.00     0.004 C 
HETATM    8  C   UNK N   1      30.089  16.822   7.256  0.00  0.00     0.026 C 
ENDBRANCH   1   2
BRANCH   1   9
HETATM    9  C   UNK N   1      32.806  16.796   5.667  0.00  0.00    -0.043 A 
HETATM   10  C   UNK N   1      32.359  17.546   4.563  0.00  0.00     0.008 A 
HETATM   11  C   UNK N   1      32.608  17.112   3.259  0.00  0.00     0.001 A 
HETATM   12  C   UNK N   1      33.322  15.932   3.039  0.00  0.00     0.000 A 
HETATM   13  C   UNK N   1      33.771  15.178   4.124  0.00  0.00     0.001 A 
HETATM   14  C   UNK N   1      33.513  15.607   5.430  0.00  0.00     0.008 A 
ENDBRANCH   1   9
BRANCH   1  15
HETATM   15  C   UNK N   1      33.810  17.693   7.881  0.00  0.00     0.269 C 
HETATM   16  O   UNK N   1      34.645  18.423   7.383  0.00  0.00    -0.264 OA
BRANCH  15  17
HETATM   17  O   UNK N   1      33.949  17.245   9.156  0.00  0.00    -0.326 OA
HETATM   18  C   UNK N   1      34.364  15.961   9.432  0.00  0.00     0.213 C 
ENDBRANCH  15  17
ENDBRANCH   1  15
TORSDOF 4
ENDMDL
MODEL 4
REMARK VINA RESULT:      -5.6     11.352     12.990
REMARK  4 active torsions:
REMARK  status: ('A' for Active; 'I' for Inactive)
REMARK    1  A    between atoms: O_1  and  C_11 
REMARK    2  A    between atoms: C_4  and  C_6 
REMARK    3  A    between atoms: C_6  and  C_10 
REMARK    4  A    between atoms: C_6  and  C_11 
ROOT
HETATM    1  C   UNK N   1      20.958  15.382   8.263  0.00  0.00     0.140 C 
ENDROOT
BRANCH   1   2
HETATM    2  C   UNK N   1      21.874  15.673   7.047  0.00  0.00     0.094 C 
HETATM    3  N   UNK N   1      21.664  17.048   6.574  0.00  0.00    -0.416 N 
HETATM    4  C   UNK N   1      22.613  17.358   5.507  0.00  0.00     0.114 C 
HETATM    5  H   UNK N   1      20.960  17.691   6.936  0.00  0.00     0.153 HD
HETATM    6  C   UNK N   1      22.351  16.466   4.298  0.00  0.00     0.019 C 
HETATM    7  C   UNK N   1      22.521  15.012   4.713  0.00  0.00     0.004 C 
HETATM    8  C   UNK N   1      21.604  14.703   5.890  0.00  0.00     0.026 C 
ENDBRANCH   1   2
BRANCH   1   9
HETATM    9  C   UNK N   1      21.262  14.293   9.279  0.00  0.00    -0.043 A 
HETATM   10  C   UNK N   1      20.222  13.725  10.037  0.00  0.00     0.008 A 
HETATM   11  C   UNK N   1      20.477  12.681  10.930  0.00  0.00     0.001 A 
HETATM   12  C   UNK N   1      21.773  12.180  11.065  0.00  0.00     0.000 A 
HETATM   13  C   UNK N   1      22.815  12.733  10.320  0.00  0.00     0.001 A 
HETATM   14  C   UNK N   1      22.561  13.785   9.434  0.00  0.00     0.008 A 
ENDBRANCH   1   9
BRANCH   1  15
HETATM   15  C   UNK N   1      19.951  16.439   8.652  0.00  0.00     0.269 C 
HETATM   16  O   UNK N   1      20.344  17.500   9.097  0.00  0.00    -0.264 OA
BRANCH  15  17
HETATM   17  O   UNK N   1      18.624  16.210   8.471  0.00  0.00    -0.326 OA
HETATM   18  C   UNK N   1      17.666  17.063   8.972  0.00  0.00     0.213 C 
ENDBRANCH  15  17
ENDBRANCH   1  15
TORSDOF 4
ENDMDL
MODEL 5
REMARK VINA RESULT:      -5.6      6.903      9.773
REMARK  4 active torsions:
REMARK  status: ('A' for Active; 'I' for Inactive)
REMARK    1  A    between atoms: O_1  and  C_11 
REMARK    2  A    between atoms: C_4  and  C_6 
REMARK    3  A    between atoms: C_6  and  C_10 
REMARK    4  A    between atoms: C_6  and  C_11 
ROOT
HETATM    1  C   UNK N   1      35.648  12.081  15.238  0.00  0.00     0.140 C 
ENDROOT
BRANCH   1   2
HETATM    2  C   UNK N   1      36.073  10.761  14.545  0.00  0.00     0.094 C 
HETATM    3  N   UNK N   1      36.925  11.052  13.384  0.00  0.00    -0.416 N 
HETATM    4  C   UNK N   1      37.422   9.804  12.806  0.00  0.00     0.114 C 
HETATM    5  H   UNK N   1      37.138  11.985  13.032  0.00  0.00     0.153 HD
HETATM    6  C   UNK N   1      36.260   8.980  12.263  0.00  0.00     0.019 C 
HETATM    7  C   UNK N   1      35.308   8.658  13.407  0.00  0.00     0.004 C 
HETATM    8  C   UNK N   1      34.858   9.950  14.079  0.00  0.00     0.026 C 
ENDBRANCH   1   2
BRANCH   1   9
HETATM    9  C   UNK N   1      35.473  12.200  16.743  0.00  0.00    -0.043 A 
HETATM   10  C   UNK N   1      35.676  11.079  17.568  0.00  0.00     0.008 A 
HETATM   11  C   UNK N   1      35.578  11.188  18.957  0.00  0.00     0.001 A 
HETATM   12  C   UNK N   1      35.292  12.424  19.542  0.00  0.00     0.000 A 
HETATM   13  C   UNK N   1      35.089  13.545  18.737  0.00  0.00     0.001 A 
HETATM   14  C   UNK N   1      35.177  13.432  17.345  0.00  0.00     0.008 A 
ENDBRANCH   1   9
BRANCH   1  15
HETATM   15  C   UNK N   1      35.775  13.362  14.446  0.00  0.00     0.269 C 
HETATM   16  O   UNK N   1      36.739  14.079  14.627  0.00  0.00    -0.264 OA
BRANCH  15  17
HETATM   17  O   UNK N   1      34.833  13.682  13.521  0.00  0.00    -0.326 OA
HETATM   18  C   UNK N   1      35.165  13.958  12.213  0.00  0.00     0.213 C 
ENDBRANCH  15  17
ENDBRANCH   1  15
TORSDOF 4
ENDMDL
MODEL 6
REMARK VINA RESULT:      -5.4     15.554     17.565
REMARK  4 active torsions:
REMARK  status: ('A' for Active; 'I' for Inactive)
REMARK    1  A    between atoms: O_1  and  C_11 
REMARK    2  A    between atoms: C_4  and  C_6 
REMARK    3  A    between atoms: C_6  and  C_10 
REMARK    4  A    between atoms: C_6  and  C_11 
ROOT
HETATM    1  C   UNK N   1      26.749  25.319  -4.746  0.00  0.00     0.140 C 
ENDROOT
BRANCH   1   2
HETATM    2  C   UNK N   1      26.985  26.844  -4.593  0.00  0.00     0.094 C 
HETATM    3  N   UNK N   1      28.239  27.092  -3.872  0.00  0.00    -0.416 N 
HETATM    4  C   UNK N   1      28.519  28.526  -3.837  0.00  0.00     0.114 C 
HETATM    5  H   UNK N   1      28.829  26.371  -3.457  0.00  0.00     0.153 HD
HETATM    6  C   UNK N   1      27.440  29.249  -3.039  0.00  0.00     0.019 C 
HETATM    7  C   UNK N   1      26.093  29.018  -3.709  0.00  0.00     0.004 C 
HETATM    8  C   UNK N   1      25.834  27.522  -3.838  0.00  0.00     0.026 C 
ENDBRANCH   1   2
BRANCH   1   9
HETATM    9  C   UNK N   1      26.325  24.679  -6.058  0.00  0.00    -0.043 A 
HETATM   10  C   UNK N   1      26.047  23.302  -6.113  0.00  0.00     0.008 A 
HETATM   11  C   UNK N   1      25.597  22.711  -7.297  0.00  0.00     0.001 A 
HETATM   12  C   UNK N   1      25.403  23.494  -8.437  0.00  0.00     0.000 A 
HETATM   13  C   UNK N   1      25.675  24.862  -8.397  0.00  0.00     0.001 A 
HETATM   14  C   UNK N   1      26.134  25.450  -7.214  0.00  0.00     0.008 A 
ENDBRANCH   1   9
BRANCH   1  15
HETATM   15  C   UNK N   1      27.310  24.413  -3.675  0.00  0.00     0.269 C 
HETATM   16  O   UNK N   1      26.571  23.989  -2.808  0.00  0.00    -0.264 OA
BRANCH  15  17
HETATM   17  O   UNK N   1      28.620  24.054  -3.709  0.00  0.00    -0.326 OA
HETATM   18  C   UNK N   1      29.184  23.273  -2.726  0.00  0.00     0.213 C 
ENDBRANCH  15  17
ENDBRANCH   1  15
TORSDOF 4
ENDMDL
MODEL 7
REMARK VINA RESULT:      -5.4      6.067      8.970
REMARK  4 active torsions:
REMARK  status: ('A' for Active; 'I' for Inactive)
REMARK    1  A    between atoms: O_1  and  C_11 
REMARK    2  A    between atoms: C_4  and  C_6 
REMARK    3  A    between atoms: C_6  and  C_10 
REMARK    4  A    between atoms: C_6  and  C_11 
ROOT
HETATM    1  C   UNK N   1      36.029  12.740  14.447  0.00  0.00     0.140 C 
ENDROOT
BRANCH   1   2
HETATM    2  C   UNK N   1      36.275  11.211  14.519  0.00  0.00     0.094 C 
HETATM    3  N   UNK N   1      36.538  10.678  13.176  0.00  0.00    -0.416 N 
HETATM    4  C   UNK N   1      36.889   9.262  13.261  0.00  0.00     0.114 C 
HETATM    5  H   UNK N   1      36.485  11.216  12.311  0.00  0.00     0.153 HD
HETATM    6  C   UNK N   1      35.704   8.462  13.793  0.00  0.00     0.019 C 
HETATM    7  C   UNK N   1      35.346   8.975  15.181  0.00  0.00     0.004 C 
HETATM    8  C   UNK N   1      35.073  10.473  15.120  0.00  0.00     0.026 C 
ENDBRANCH   1   2
BRANCH   1   9
HETATM    9  C   UNK N   1      36.213  13.660  15.644  0.00  0.00    -0.043 A 
HETATM   10  C   UNK N   1      37.106  14.744  15.570  0.00  0.00     0.008 A 
HETATM   11  C   UNK N   1      37.238  15.633  16.640  0.00  0.00     0.001 A 
HETATM   12  C   UNK N   1      36.467  15.460  17.792  0.00  0.00     0.000 A 
HETATM   13  C   UNK N   1      35.577  14.389  17.878  0.00  0.00     0.001 A 
HETATM   14  C   UNK N   1      35.452  13.494  16.811  0.00  0.00     0.008 A 
ENDBRANCH   1   9
BRANCH   1  15
HETATM   15  C   UNK N   1      35.971  13.378  13.079  0.00  0.00     0.269 C 
HETATM   16  O   UNK N   1      36.971  13.395  12.388  0.00  0.00    -0.264 OA
BRANCH  15  17
HETATM   17  O   UNK N   1      34.800  13.893  12.621  0.00  0.00    -0.326 OA
HETATM   18  C   UNK N   1      34.593  14.146  11.283  0.00  0.00     0.213 C 
ENDBRANCH  15  17
ENDBRANCH   1  15
TORSDOF 4
ENDMDL
MODEL 8
REMARK VINA RESULT:      -5.3     14.832     16.554
REMARK  4 active torsions:
REMARK  status: ('A' for Active; 'I' for Inactive)
REMARK    1  A    between atoms: O_1  and  C_11 
REMARK    2  A    between atoms: C_4  and  C_6 
REMARK    3  A    between atoms: C_6  and  C_10 
REMARK    4  A    between atoms: C_6  and  C_11 
ROOT
HETATM    1  C   UNK N   1      27.809  25.481  -4.092  0.00  0.00     0.140 C 
ENDROOT
BRANCH   1   2
HETATM    2  C   UNK N   1      29.178  24.920  -4.555  0.00  0.00     0.094 C 
HETATM    3  N   UNK N   1      29.217  23.464  -4.368  0.00  0.00    -0.416 N 
HETATM    4  C   UNK N   1      30.459  22.924  -4.917  0.00  0.00     0.114 C 
HETATM    5  H   UNK N   1      28.486  22.911  -3.921  0.00  0.00     0.153 HD
HETATM    6  C   UNK N   1      31.653  23.467  -4.141  0.00  0.00     0.019 C 
HETATM    7  C   UNK N   1      31.670  24.985  -4.261  0.00  0.00     0.004 C 
HETATM    8  C   UNK N   1      30.341  25.553  -3.780  0.00  0.00     0.026 C 
ENDBRANCH   1   2
BRANCH   1   9
HETATM    9  C   UNK N   1      27.394  26.926  -4.315  0.00  0.00    -0.043 A 
HETATM   10  C   UNK N   1      26.674  27.615  -3.322  0.00  0.00     0.008 A 
HETATM   11  C   UNK N   1      26.339  28.961  -3.488  0.00  0.00     0.001 A 
HETATM   12  C   UNK N   1      26.735  29.642  -4.642  0.00  0.00     0.000 A 
HETATM   13  C   UNK N   1      27.450  28.972  -5.635  0.00  0.00     0.001 A 
HETATM   14  C   UNK N   1      27.776  27.621  -5.473  0.00  0.00     0.008 A 
ENDBRANCH   1   9
BRANCH   1  15
HETATM   15  C   UNK N   1      26.724  24.487  -3.748  0.00  0.00     0.269 C 
HETATM   16  O   UNK N   1      26.769  23.902  -2.684  0.00  0.00    -0.264 OA
BRANCH  15  17
HETATM   17  O   UNK N   1      25.696  24.282  -4.612  0.00  0.00    -0.326 OA
HETATM   18  C   UNK N   1      25.908  23.849  -5.902  0.00  0.00     0.213 C 
ENDBRANCH  15  17
ENDBRANCH   1  15
TORSDOF 4
ENDMDL
MODEL 9
REMARK VINA RESULT:      -5.3      9.059     11.847
REMARK  4 active torsions:
REMARK  status: ('A' for Active; 'I' for Inactive)
REMARK    1  A    between atoms: O_1  and  C_11 
REMARK    2  A    between atoms: C_4  and  C_6 
REMARK    3  A    between atoms: C_6  and  C_10 
REMARK    4  A    between atoms: C_6  and  C_11 
ROOT
HETATM    1  C   UNK N   1      22.586  17.992   4.440  0.00  0.00     0.140 C 
ENDROOT
BRANCH   1   2
HETATM    2  C   UNK N   1      24.014  18.517   4.140  0.00  0.00     0.094 C 
HETATM    3  N   UNK N   1      24.763  18.687   5.391  0.00  0.00    -0.416 N 
HETATM    4  C   UNK N   1      26.144  19.065   5.097  0.00  0.00     0.114 C 
HETATM    5  H   UNK N   1      24.378  18.559   6.327  0.00  0.00     0.153 HD
HETATM    6  C   UNK N   1      26.179  20.427   4.413  0.00  0.00     0.019 C 
HETATM    7  C   UNK N   1      25.394  20.345   3.112  0.00  0.00     0.004 C 
HETATM    8  C   UNK N   1      23.978  19.858   3.395  0.00  0.00     0.026 C 
ENDBRANCH   1   2
BRANCH   1   9
HETATM    9  C   UNK N   1      21.687  17.395   3.369  0.00  0.00    -0.043 A 
HETATM   10  C   UNK N   1      20.723  18.195   2.731  0.00  0.00     0.008 A 
HETATM   11  C   UNK N   1      19.932  17.675   1.703  0.00  0.00     0.001 A 
HETATM   12  C   UNK N   1      20.107  16.353   1.287  0.00  0.00     0.000 A 
HETATM   13  C   UNK N   1      21.061  15.548   1.911  0.00  0.00     0.001 A 
HETATM   14  C   UNK N   1      21.845  16.066   2.947  0.00  0.00     0.008 A 
ENDBRANCH   1   9
BRANCH   1  15
HETATM   15  C   UNK N   1      22.225  17.727   5.883  0.00  0.00     0.269 C 
HETATM   16  O   UNK N   1      21.629  18.579   6.513  0.00  0.00    -0.264 OA
BRANCH  15  17
HETATM   17  O   UNK N   1      22.539  16.534   6.451  0.00  0.00    -0.326 OA
HETATM   18  C   UNK N   1      21.576  15.716   7.001  0.00  0.00     0.213 C 
ENDBRANCH  15  17
ENDBRANCH   1  15
TORSDOF 4
ENDMDL
