MODEL 1
REMARK VINA RESULT:      -7.1      0.000      0.000
REMARK  2 active torsions:
REMARK  status: ('A' for Active; 'I' for Inactive)
REMARK    1  A    between atoms: N_8  and  C_17 
REMARK    2  A    between atoms: C_11  and  C_16 
ROOT
HETATM    1  O   UNK N   1      33.397  15.605   3.384  0.00  0.00    -0.271 OA
HETATM    2  N   UNK N   1      32.412  15.706   5.397  0.00  0.00    -0.320 N 
HETATM    3  N   UNK N   1      30.689  17.512   3.617  0.00  0.00    -0.380 N 
ATOM      4  HN  UNK N   1      30.289  17.638   2.688  1.00  0.00     0.160 HD
HETATM    5  C   UNK N   1      30.367  17.105   6.009  0.00  0.00     0.021 A 
HETATM    6  C   UNK N   1      31.543  16.343   6.354  0.00  0.00     0.049 A 
HETATM    7  C   UNK N   1      29.868  17.370   4.603  0.00  0.00     0.054 C 
HETATM    8  C   UNK N   1      29.595  17.628   7.059  0.00  0.00     0.052 A 
HETATM    9  C   UNK N   1      32.116  17.508   3.724  0.00  0.00     0.223 C 
HETATM   10  C   UNK N   1      31.822  16.130   7.720  0.00  0.00     0.033 A 
HETATM   11  C   UNK N   1      32.646  16.196   4.148  0.00  0.00     0.241 C 
HETATM   12  C   UNK N   1      29.905  17.418   8.402  0.00  0.00     0.103 A 
HETATM   13  C   UNK N   1      31.026  16.662   8.727  0.00  0.00     0.038 A 
HETATM   14  C   UNK N   1      33.159  14.535   5.817  0.00  0.00     0.159 C 
ENDROOT
BRANCH   7  15
HETATM   15  C   UNK N   1      28.412  17.653   4.294  0.00  0.00     0.030 A 
HETATM   16  C   UNK N   1      27.821  18.947   4.228  0.00  0.00     0.128 A 
HETATM   17  F   UNK N   1      28.507  20.074   4.527  0.00  0.00    -0.205 F 
HETATM   18  C   UNK N   1      26.467  19.086   3.899  0.00  0.00     0.043 A 
HETATM   19  C   UNK N   1      25.678  17.965   3.639  0.00  0.00     0.003 A 
HETATM   20  C   UNK N   1      26.231  16.693   3.733  0.00  0.00     0.001 A 
HETATM   21  C   UNK N   1      27.579  16.540   4.061  0.00  0.00     0.017 A 
ENDBRANCH   7  15
BRANCH  12  22
HETATM   22  N   UNK N   1      29.074  17.949   9.426  0.00  0.00    -0.116 N 
HETATM   23  O   UNK N   1      27.823  17.556   9.538  0.00  0.00    -0.532 OA
HETATM   24  O   UNK N   1      29.500  18.772  10.181  0.00  0.00    -0.532 OA
ENDBRANCH  12  22
TORSDOF 2
ENDMDL
MODEL 2
REMARK VINA RESULT:      -7.0     11.225     13.666
REMARK  2 active torsions:
REMARK  status: ('A' for Active; 'I' for Inactive)
REMARK    1  A    between atoms: N_8  and  C_17 
REMARK    2  A    between atoms: C_11  and  C_16 
ROOT
HETATM    1  O   UNK N   1      30.786  22.927  -1.584  0.00  0.00    -0.271 OA
HETATM    2  N   UNK N   1      30.555  22.355  -3.741  0.00  0.00    -0.320 N 
HETATM    3  N   UNK N   1      28.126  24.133  -3.163  0.00  0.00    -0.380 N 
ATOM      4  HN  UNK N   1      27.789  24.958  -2.667  1.00  0.00     0.160 HD
HETATM    5  C   UNK N   1      28.626  23.008  -5.278  0.00  0.00     0.021 A 
HETATM    6  C   UNK N   1      29.760  22.187  -4.931  0.00  0.00     0.049 A 
HETATM    7  C   UNK N   1      28.081  24.157  -4.453  0.00  0.00     0.054 C 
HETATM    8  C   UNK N   1      27.979  22.749  -6.497  0.00  0.00     0.052 A 
HETATM    9  C   UNK N   1      28.608  23.042  -2.373  0.00  0.00     0.223 C 
HETATM   10  C   UNK N   1      30.180  21.205  -5.852  0.00  0.00     0.033 A 
HETATM   11  C   UNK N   1      30.055  22.809  -2.558  0.00  0.00     0.241 C 
HETATM   12  C   UNK N   1      28.403  21.758  -7.382  0.00  0.00     0.103 A 
HETATM   13  C   UNK N   1      29.512  20.987  -7.052  0.00  0.00     0.038 A 
HETATM   14  C   UNK N   1      31.940  21.924  -3.770  0.00  0.00     0.159 C 
ENDROOT
BRANCH   7  15
HETATM   15  C   UNK N   1      27.309  25.307  -5.066  0.00  0.00     0.030 A 
HETATM   16  C   UNK N   1      25.897  25.345  -5.248  0.00  0.00     0.128 A 
HETATM   17  F   UNK N   1      25.100  24.291  -4.961  0.00  0.00    -0.205 F 
HETATM   18  C   UNK N   1      25.290  26.481  -5.797  0.00  0.00     0.043 A 
HETATM   19  C   UNK N   1      26.053  27.584  -6.177  0.00  0.00     0.003 A 
HETATM   20  C   UNK N   1      27.436  27.550  -6.037  0.00  0.00     0.001 A 
HETATM   21  C   UNK N   1      28.054  26.424  -5.493  0.00  0.00     0.017 A 
ENDBRANCH   7  15
BRANCH  12  22
HETATM   22  N   UNK N   1      27.726  21.554  -8.615  0.00  0.00    -0.116 N 
HETATM   23  O   UNK N   1      26.554  20.957  -8.639  0.00  0.00    -0.532 OA
HETATM   24  O   UNK N   1      28.227  21.907  -9.642  0.00  0.00    -0.532 OA
ENDBRANCH  12  22
TORSDOF 2
ENDMDL
MODEL 3
REMARK VINA RESULT:      -7.0     12.123     14.578
REMARK  2 active torsions:
REMARK  status: ('A' for Active; 'I' for Inactive)
REMARK    1  A    between atoms: N_8  and  C_17 
REMARK    2  A    between atoms: C_11  and  C_16 
ROOT
HETATM    1  O   UNK N   1      26.089  22.959  -9.351  0.00  0.00    -0.271 OA
HETATM    2  N   UNK N   1      25.972  24.791  -8.063  0.00  0.00    -0.320 N 
HETATM    3  N   UNK N   1      27.370  22.711  -6.298  0.00  0.00    -0.380 N 
ATOM      4  HN  UNK N   1      28.038  21.941  -6.278  1.00  0.00     0.160 HD
HETATM    5  C   UNK N   1      26.769  24.992  -5.647  0.00  0.00     0.021 A 
HETATM    6  C   UNK N   1      25.994  25.442  -6.778  0.00  0.00     0.049 A 
HETATM    7  C   UNK N   1      27.664  23.769  -5.620  0.00  0.00     0.054 C 
HETATM    8  C   UNK N   1      26.721  25.761  -4.472  0.00  0.00     0.052 A 
HETATM    9  C   UNK N   1      26.181  22.531  -7.074  0.00  0.00     0.223 C 
HETATM   10  C   UNK N   1      25.271  26.647  -6.653  0.00  0.00     0.033 A 
HETATM   11  C   UNK N   1      26.119  23.448  -8.230  0.00  0.00     0.241 C 
HETATM   12  C   UNK N   1      25.983  26.939  -4.370  0.00  0.00     0.103 A 
HETATM   13  C   UNK N   1      25.257  27.380  -5.472  0.00  0.00     0.038 A 
HETATM   14  C   UNK N   1      25.679  25.592  -9.236  0.00  0.00     0.159 C 
ENDROOT
BRANCH   7  15
HETATM   15  C   UNK N   1      28.848  23.645  -4.683  0.00  0.00     0.030 A 
HETATM   16  C   UNK N   1      28.765  23.414  -3.280  0.00  0.00     0.128 A 
HETATM   17  F   UNK N   1      27.585  23.367  -2.621  0.00  0.00    -0.205 F 
HETATM   18  C   UNK N   1      29.933  23.282  -2.519  0.00  0.00     0.043 A 
HETATM   19  C   UNK N   1      31.188  23.382  -3.117  0.00  0.00     0.003 A 
HETATM   20  C   UNK N   1      31.287  23.641  -4.480  0.00  0.00     0.001 A 
HETATM   21  C   UNK N   1      30.131  23.775  -5.250  0.00  0.00     0.017 A 
ENDBRANCH   7  15
BRANCH  12  22
HETATM   22  N   UNK N   1      25.989  27.692  -3.165  0.00  0.00    -0.116 N 
HETATM   23  O   UNK N   1      26.069  29.005  -3.202  0.00  0.00    -0.532 OA
HETATM   24  O   UNK N   1      25.942  27.137  -2.107  0.00  0.00    -0.532 OA
ENDBRANCH  12  22
TORSDOF 2
ENDMDL
MODEL 4
REMARK VINA RESULT:      -7.0     11.733     13.686
REMARK  2 active torsions:
REMARK  status: ('A' for Active; 'I' for Inactive)
REMARK    1  A    between atoms: N_8  and  C_17 
REMARK    2  A    between atoms: C_11  and  C_16 
ROOT
HETATM    1  O   UNK N   1      28.651  20.591  -9.845  0.00  0.00    -0.271 OA
HETATM    2  N   UNK N   1      29.138  20.786  -7.664  0.00  0.00    -0.320 N 
HETATM    3  N   UNK N   1      28.170  23.579  -8.478  0.00  0.00    -0.380 N 
ATOM      4  HN  UNK N   1      27.507  24.103  -9.048  1.00  0.00     0.160 HD
HETATM    5  C   UNK N   1      28.978  22.914  -6.265  0.00  0.00     0.021 A 
HETATM    6  C   UNK N   1      29.457  21.574  -6.501  0.00  0.00     0.049 A 
HETATM    7  C   UNK N   1      28.084  23.709  -7.197  0.00  0.00     0.054 C 
HETATM    8  C   UNK N   1      29.340  23.537  -5.060  0.00  0.00     0.052 A 
HETATM    9  C   UNK N   1      29.121  22.757  -9.163  0.00  0.00     0.223 C 
HETATM   10  C   UNK N   1      30.221  20.952  -5.491  0.00  0.00     0.033 A 
HETATM   11  C   UNK N   1      28.917  21.318  -8.898  0.00  0.00     0.241 C 
HETATM   12  C   UNK N   1      30.113  22.905  -4.086  0.00  0.00     0.103 A 
HETATM   13  C   UNK N   1      30.550  21.605  -4.309  0.00  0.00     0.038 A 
HETATM   14  C   UNK N   1      29.150  19.340  -7.542  0.00  0.00     0.159 C 
ENDROOT
BRANCH   7  15
HETATM   15  C   UNK N   1      27.171  24.813  -6.706  0.00  0.00     0.030 A 
HETATM   16  C   UNK N   1      26.010  24.624  -5.903  0.00  0.00     0.128 A 
HETATM   17  F   UNK N   1      25.554  23.397  -5.564  0.00  0.00    -0.205 F 
HETATM   18  C   UNK N   1      25.261  25.729  -5.479  0.00  0.00     0.043 A 
HETATM   19  C   UNK N   1      25.633  27.023  -5.841  0.00  0.00     0.003 A 
HETATM   20  C   UNK N   1      26.744  27.223  -6.653  0.00  0.00     0.001 A 
HETATM   21  C   UNK N   1      27.499  26.131  -7.082  0.00  0.00     0.017 A 
ENDBRANCH   7  15
BRANCH  12  22
HETATM   22  N   UNK N   1      30.430  23.573  -2.872  0.00  0.00    -0.116 N 
HETATM   23  O   UNK N   1      30.594  22.888  -1.761  0.00  0.00    -0.532 OA
HETATM   24  O   UNK N   1      30.529  24.764  -2.848  0.00  0.00    -0.532 OA
ENDBRANCH  12  22
TORSDOF 2
ENDMDL
MODEL 5
REMARK VINA RESULT:      -6.9     11.914     14.288
REMARK  2 active torsions:
REMARK  status: ('A' for Active; 'I' for Inactive)
REMARK    1  A    between atoms: N_8  and  C_17 
REMARK    2  A    between atoms: C_11  and  C_16 
ROOT
HETATM    1  O   UNK N   1      31.533  22.583  -3.916  0.00  0.00    -0.271 OA
HETATM    2  N   UNK N   1      30.072  22.431  -5.612  0.00  0.00    -0.320 N 
HETATM    3  N   UNK N   1      28.755  24.382  -3.647  0.00  0.00    -0.380 N 
ATOM      4  HN  UNK N   1      28.913  25.143  -2.989  1.00  0.00     0.160 HD
HETATM    5  C   UNK N   1      27.802  23.588  -5.757  0.00  0.00     0.021 A 
HETATM    6  C   UNK N   1      28.750  22.579  -6.164  0.00  0.00     0.049 A 
HETATM    7  C   UNK N   1      28.033  24.636  -4.686  0.00  0.00     0.054 C 
HETATM    8  C   UNK N   1      26.566  23.632  -6.423  0.00  0.00     0.052 A 
HETATM    9  C   UNK N   1      29.350  23.116  -3.344  0.00  0.00     0.223 C 
HETATM   10  C   UNK N   1      28.399  21.727  -7.233  0.00  0.00     0.033 A 
HETATM   11  C   UNK N   1      30.389  22.733  -4.322  0.00  0.00     0.241 C 
HETATM   12  C   UNK N   1      26.238  22.765  -7.464  0.00  0.00     0.103 A 
HETATM   13  C   UNK N   1      27.165  21.811  -7.867  0.00  0.00     0.038 A 
HETATM   14  C   UNK N   1      31.103  21.836  -6.441  0.00  0.00     0.159 C 
ENDROOT
BRANCH   7  15
HETATM   15  C   UNK N   1      27.308  25.966  -4.677  0.00  0.00     0.030 A 
HETATM   16  C   UNK N   1      27.384  26.951  -5.702  0.00  0.00     0.128 A 
HETATM   17  F   UNK N   1      28.202  26.825  -6.771  0.00  0.00    -0.205 F 
HETATM   18  C   UNK N   1      26.638  28.132  -5.598  0.00  0.00     0.043 A 
HETATM   19  C   UNK N   1      25.819  28.363  -4.493  0.00  0.00     0.003 A 
HETATM   20  C   UNK N   1      25.759  27.426  -3.467  0.00  0.00     0.001 A 
HETATM   21  C   UNK N   1      26.498  26.246  -3.558  0.00  0.00     0.017 A 
ENDBRANCH   7  15
BRANCH  12  22
HETATM   22  N   UNK N   1      24.981  22.870  -8.121  0.00  0.00    -0.116 N 
HETATM   23  O   UNK N   1      24.731  23.886  -8.918  0.00  0.00    -0.532 OA
HETATM   24  O   UNK N   1      24.136  22.045  -7.938  0.00  0.00    -0.532 OA
ENDBRANCH  12  22
TORSDOF 2
ENDMDL
MODEL 6
REMARK VINA RESULT:      -6.8      2.601      5.014
REMARK  2 active torsions:
REMARK  status: ('A' for Active; 'I' for Inactive)
REMARK    1  A    between atoms: N_8  and  C_17 
REMARK    2  A    between atoms: C_11  and  C_16 
ROOT
HETATM    1  O   UNK N   1      26.388  20.227   3.332  0.00  0.00    -0.271 OA
HETATM    2  N   UNK N   1      27.340  19.890   5.336  0.00  0.00    -0.320 N 
HETATM    3  N   UNK N   1      28.466  17.648   3.573  0.00  0.00    -0.380 N 
ATOM      4  HN  UNK N   1      28.801  17.401   2.642  1.00  0.00     0.160 HD
HETATM    5  C   UNK N   1      28.928  17.989   5.953  0.00  0.00     0.021 A 
HETATM    6  C   UNK N   1      28.014  19.053   6.295  0.00  0.00     0.049 A 
HETATM    7  C   UNK N   1      29.311  17.573   4.546  0.00  0.00     0.054 C 
HETATM    8  C   UNK N   1      29.542  17.291   7.004  0.00  0.00     0.052 A 
HETATM    9  C   UNK N   1      27.098  18.049   3.696  0.00  0.00     0.223 C 
HETATM   10  C   UNK N   1      27.827  19.358   7.660  0.00  0.00     0.033 A 
HETATM   11  C   UNK N   1      26.959  19.464   4.099  0.00  0.00     0.241 C 
HETATM   12  C   UNK N   1      29.325  17.600   8.346  0.00  0.00     0.103 A 
HETATM   13  C   UNK N   1      28.462  18.642   8.668  0.00  0.00     0.038 A 
HETATM   14  C   UNK N   1      26.953  21.228   5.740  0.00  0.00     0.159 C 
ENDROOT
BRANCH   7  15
HETATM   15  C   UNK N   1      30.627  16.894   4.227  0.00  0.00     0.030 A 
HETATM   16  C   UNK N   1      30.791  15.505   3.959  0.00  0.00     0.128 A 
HETATM   17  F   UNK N   1      29.771  14.622   4.051  0.00  0.00    -0.205 F 
HETATM   18  C   UNK N   1      32.056  14.995   3.642  0.00  0.00     0.043 A 
HETATM   19  C   UNK N   1      33.170  15.833   3.590  0.00  0.00     0.003 A 
HETATM   20  C   UNK N   1      33.032  17.186   3.882  0.00  0.00     0.001 A 
HETATM   21  C   UNK N   1      31.778  17.707   4.201  0.00  0.00     0.017 A 
ENDBRANCH   7  15
BRANCH  12  22
HETATM   22  N   UNK N   1      29.993  16.877   9.371  0.00  0.00    -0.116 N 
HETATM   23  O   UNK N   1      29.429  16.720  10.549  0.00  0.00    -0.532 OA
HETATM   24  O   UNK N   1      31.082  16.422   9.175  0.00  0.00    -0.532 OA
ENDBRANCH  12  22
TORSDOF 2
ENDMDL
MODEL 7
REMARK VINA RESULT:      -6.7      6.018      9.287
REMARK  2 active torsions:
REMARK  status: ('A' for Active; 'I' for Inactive)
REMARK    1  A    between atoms: N_8  and  C_17 
REMARK    2  A    between atoms: C_11  and  C_16 
ROOT
HETATM    1  O   UNK N   1      20.556  14.328   6.657  0.00  0.00    -0.271 OA
HETATM    2  N   UNK N   1      20.357  15.811   4.985  0.00  0.00    -0.320 N 
HETATM    3  N   UNK N   1      23.162  16.315   6.117  0.00  0.00    -0.380 N 
ATOM      4  HN  UNK N   1      23.998  15.883   6.510  1.00  0.00     0.160 HD
HETATM    5  C   UNK N   1      22.091  17.553   4.298  0.00  0.00     0.021 A 
HETATM    6  C   UNK N   1      20.749  17.022   4.310  0.00  0.00     0.049 A 
HETATM    7  C   UNK N   1      23.289  16.942   4.996  0.00  0.00     0.054 C 
HETATM    8  C   UNK N   1      22.325  18.722   3.556  0.00  0.00     0.052 A 
HETATM    9  C   UNK N   1      21.942  16.177   6.853  0.00  0.00     0.223 C 
HETATM   10  C   UNK N   1      19.764  17.679   3.543  0.00  0.00     0.033 A 
HETATM   11  C   UNK N   1      20.938  15.366   6.134  0.00  0.00     0.241 C 
HETATM   12  C   UNK N   1      21.328  19.363   2.820  0.00  0.00     0.103 A 
HETATM   13  C   UNK N   1      20.043  18.831   2.817  0.00  0.00     0.038 A 
HETATM   14  C   UNK N   1      19.217  15.074   4.474  0.00  0.00     0.159 C 
ENDROOT
BRANCH   7  15
HETATM   15  C   UNK N   1      24.710  17.169   4.524  0.00  0.00     0.030 A 
HETATM   16  C   UNK N   1      25.500  18.318   4.815  0.00  0.00     0.128 A 
HETATM   17  F   UNK N   1      25.010  19.384   5.488  0.00  0.00    -0.205 F 
HETATM   18  C   UNK N   1      26.818  18.401   4.351  0.00  0.00     0.043 A 
HETATM   19  C   UNK N   1      27.374  17.369   3.596  0.00  0.00     0.003 A 
HETATM   20  C   UNK N   1      26.607  16.255   3.275  0.00  0.00     0.001 A 
HETATM   21  C   UNK N   1      25.291  16.160   3.730  0.00  0.00     0.017 A 
ENDBRANCH   7  15
BRANCH  12  22
HETATM   22  N   UNK N   1      21.626  20.530   2.066  0.00  0.00    -0.116 N 
HETATM   23  O   UNK N   1      21.381  20.566   0.774  0.00  0.00    -0.532 OA
HETATM   24  O   UNK N   1      22.119  21.481   2.597  0.00  0.00    -0.532 OA
ENDBRANCH  12  22
TORSDOF 2
ENDMDL
MODEL 8
REMARK VINA RESULT:      -6.6      7.196      9.303
REMARK  2 active torsions:
REMARK  status: ('A' for Active; 'I' for Inactive)
REMARK    1  A    between atoms: N_8  and  C_17 
REMARK    2  A    between atoms: C_11  and  C_16 
ROOT
HETATM    1  O   UNK N   1      25.165  14.731   3.919  0.00  0.00    -0.271 OA
HETATM    2  N   UNK N   1      23.736  15.902   5.191  0.00  0.00    -0.320 N 
HETATM    3  N   UNK N   1      23.753  13.105   6.446  0.00  0.00    -0.380 N 
ATOM      4  HN  UNK N   1      24.327  12.296   6.684  1.00  0.00     0.160 HD
HETATM    5  C   UNK N   1      22.396  15.008   7.171  0.00  0.00     0.021 A 
HETATM    6  C   UNK N   1      22.652  15.982   6.137  0.00  0.00     0.049 A 
HETATM    7  C   UNK N   1      23.206  13.751   7.419  0.00  0.00     0.054 C 
HETATM    8  C   UNK N   1      21.325  15.249   8.046  0.00  0.00     0.052 A 
HETATM    9  C   UNK N   1      23.620  13.432   5.059  0.00  0.00     0.223 C 
HETATM   10  C   UNK N   1      21.843  17.136   6.093  0.00  0.00     0.033 A 
HETATM   11  C   UNK N   1      24.244  14.728   4.723  0.00  0.00     0.241 C 
HETATM   12  C   UNK N   1      20.528  16.391   7.969  0.00  0.00     0.103 A 
HETATM   13  C   UNK N   1      20.796  17.336   6.985  0.00  0.00     0.038 A 
HETATM   14  C   UNK N   1      24.252  17.135   4.628  0.00  0.00     0.159 C 
ENDROOT
BRANCH   7  15
HETATM   15  C   UNK N   1      23.281  13.086   8.778  0.00  0.00     0.030 A 
HETATM   16  C   UNK N   1      22.206  12.411   9.424  0.00  0.00     0.128 A 
HETATM   17  F   UNK N   1      20.958  12.373   8.907  0.00  0.00    -0.205 F 
HETATM   18  C   UNK N   1      22.406  11.802  10.669  0.00  0.00     0.043 A 
HETATM   19  C   UNK N   1      23.651  11.852  11.296  0.00  0.00     0.003 A 
HETATM   20  C   UNK N   1      24.702  12.536  10.695  0.00  0.00     0.001 A 
HETATM   21  C   UNK N   1      24.516  13.148   9.455  0.00  0.00     0.017 A 
ENDBRANCH   7  15
BRANCH  12  22
HETATM   22  N   UNK N   1      19.472  16.597   8.897  0.00  0.00    -0.116 N 
HETATM   23  O   UNK N   1      19.170  17.812   9.301  0.00  0.00    -0.532 OA
HETATM   24  O   UNK N   1      18.862  15.665   9.332  0.00  0.00    -0.532 OA
ENDBRANCH  12  22
TORSDOF 2
ENDMDL
MODEL 9
REMARK VINA RESULT:      -6.5     11.474     14.117
REMARK  2 active torsions:
REMARK  status: ('A' for Active; 'I' for Inactive)
REMARK    1  A    between atoms: N_8  and  C_17 
REMARK    2  A    between atoms: C_11  and  C_16 
ROOT
HETATM    1  O   UNK N   1      28.543  29.271  -3.004  0.00  0.00    -0.271 OA
HETATM    2  N   UNK N   1      27.278  27.577  -3.755  0.00  0.00    -0.320 N 
HETATM    3  N   UNK N   1      30.153  26.532  -3.972  0.00  0.00    -0.380 N 
ATOM      4  HN  UNK N   1      31.074  26.515  -3.535  1.00  0.00     0.160 HD
HETATM    5  C   UNK N   1      28.125  25.343  -4.654  0.00  0.00     0.021 A 
HETATM    6  C   UNK N   1      27.106  26.354  -4.496  0.00  0.00     0.049 A 
HETATM    7  C   UNK N   1      29.528  25.408  -4.085  0.00  0.00     0.054 C 
HETATM    8  C   UNK N   1      27.790  24.183  -5.369  0.00  0.00     0.052 A 
HETATM    9  C   UNK N   1      29.656  27.801  -4.410  0.00  0.00     0.223 C 
HETATM   10  C   UNK N   1      25.826  26.098  -5.029  0.00  0.00     0.033 A 
HETATM   11  C   UNK N   1      28.466  28.235  -3.649  0.00  0.00     0.241 C 
HETATM   12  C   UNK N   1      26.521  23.964  -5.903  0.00  0.00     0.103 A 
HETATM   13  C   UNK N   1      25.537  24.931  -5.726  0.00  0.00     0.038 A 
HETATM   14  C   UNK N   1      26.106  28.199  -3.170  0.00  0.00     0.159 C 
ENDROOT
BRANCH   7  15
HETATM   15  C   UNK N   1      30.342  24.168  -3.779  0.00  0.00     0.030 A 
HETATM   16  C   UNK N   1      29.988  23.165  -2.832  0.00  0.00     0.128 A 
HETATM   17  F   UNK N   1      28.902  23.272  -2.033  0.00  0.00    -0.205 F 
HETATM   18  C   UNK N   1      30.805  22.041  -2.659  0.00  0.00     0.043 A 
HETATM   19  C   UNK N   1      31.976  21.890  -3.402  0.00  0.00     0.003 A 
HETATM   20  C   UNK N   1      32.354  22.877  -4.306  0.00  0.00     0.001 A 
HETATM   21  C   UNK N   1      31.549  24.002  -4.487  0.00  0.00     0.017 A 
ENDBRANCH   7  15
BRANCH  12  22
HETATM   22  N   UNK N   1      26.228  22.758  -6.598  0.00  0.00    -0.116 N 
HETATM   23  O   UNK N   1      25.001  22.285  -6.619  0.00  0.00    -0.532 OA
HETATM   24  O   UNK N   1      27.100  22.156  -7.151  0.00  0.00    -0.532 OA
ENDBRANCH  12  22
TORSDOF 2
ENDMDL
