REMARK  2 active torsions:
REMARK  status: ('A' for Active; 'I' for Inactive)
REMARK    1  A    between atoms: N_8  and  C_17 
REMARK    2  A    between atoms: C_11  and  C_16 
ROOT
HETATM    1  O   UNK N   1       2.508   4.426   0.402  0.00  0.00    -0.271 OA
HETATM    2  N   UNK N   1       1.729   2.329   0.568  0.00  0.00    -0.320 N 
HETATM    3  N   UNK N   1       4.565   1.999  -0.549  0.00  0.00    -0.380 N 
ATOM      4  HN  UNK N   1       5.524   2.343  -0.517  1.00  0.00     0.160 HD
HETATM    5  C   UNK N   1       2.959   0.202  -0.122  0.00  0.00     0.021 A 
HETATM    6  C   UNK N   1       1.761   0.932   0.217  0.00  0.00     0.049 A 
HETATM    7  C   UNK N   1       4.359   0.780  -0.178  0.00  0.00     0.054 C 
HETATM    8  C   UNK N   1       2.834  -1.169  -0.398  0.00  0.00     0.052 A 
HETATM    9  C   UNK N   1       3.555   2.906  -1.002  0.00  0.00     0.223 C 
HETATM   10  C   UNK N   1       0.546   0.220   0.295  0.00  0.00     0.033 A 
HETATM   11  C   UNK N   1       2.591   3.254   0.062  0.00  0.00     0.241 C 
HETATM   12  C   UNK N   1       1.616  -1.845  -0.332  0.00  0.00     0.103 A 
HETATM   13  C   UNK N   1       0.470  -1.140   0.019  0.00  0.00     0.038 A 
HETATM   14  C   UNK N   1       0.660   2.799   1.429  0.00  0.00     0.159 C 
ENDROOT
BRANCH   7  15
HETATM   15  C   UNK N   1       5.599  -0.066   0.026  0.00  0.00     0.030 A 
HETATM   16  C   UNK N   1       5.644  -1.303   0.730  0.00  0.00     0.128 A 
HETATM   17  F   UNK N   1       4.569  -1.811   1.374  0.00  0.00    -0.205 F 
HETATM   18  C   UNK N   1       6.846  -2.015   0.824  0.00  0.00     0.043 A 
HETATM   19  C   UNK N   1       8.013  -1.524   0.239  0.00  0.00     0.003 A 
HETATM   20  C   UNK N   1       7.994  -0.301  -0.423  0.00  0.00     0.001 A 
HETATM   21  C   UNK N   1       6.803   0.419  -0.523  0.00  0.00     0.017 A 
ENDBRANCH   7  15
BRANCH  12  22
HETATM   22  N   UNK N   1       1.550  -3.240  -0.597  0.00  0.00    -0.116 N 
HETATM   23  O   UNK N   1       0.399  -3.874  -0.536  0.00  0.00    -0.532 OA
HETATM   24  O   UNK N   1       2.544  -3.851  -0.858  0.00  0.00    -0.532 OA
ENDBRANCH  12  22
TORSDOF 2
