MODEL 1
REMARK VINA RESULT:      -7.2      0.000      0.000
REMARK  4 active torsions:
REMARK  status: ('A' for Active; 'I' for Inactive)
REMARK    1  A    between atoms: O_3  and  C_17 
REMARK    2  A    between atoms: O_3  and  C_25 
REMARK    3  A    between atoms: C_10  and  C_13 
REMARK    4  A    between atoms: C_11  and  C_17 
ROOT
HETATM    1 Cl   UNK N   1      27.178  28.424  -2.683  0.00  0.00    -0.084 Cl
HETATM    2  O   UNK N   1      24.813  23.399  -8.618  0.00  0.00    -0.270 OA
HETATM    3  N   UNK N   1      25.195  24.889  -7.053  0.00  0.00    -0.324 N 
HETATM    4  N   UNK N   1      27.530  23.092  -6.188  0.00  0.00    -0.367 N 
ATOM      5  HN  UNK N   1      28.179  22.312  -6.086  1.00  0.00     0.161 HD
HETATM    6  C   UNK N   1      26.890  25.237  -5.165  0.00  0.00     0.020 A 
HETATM    7  C   UNK N   1      27.710  23.956  -5.252  0.00  0.00     0.055 C 
HETATM    8  C   UNK N   1      26.688  22.899  -7.331  0.00  0.00     0.275 C 
HETATM    9  C   UNK N   1      25.764  25.618  -5.982  0.00  0.00     0.047 A 
HETATM   10  C   UNK N   1      25.518  23.750  -7.684  0.00  0.00     0.255 C 
HETATM   11  C   UNK N   1      27.276  26.158  -4.191  0.00  0.00     0.040 A 
HETATM   12  C   UNK N   1      25.120  26.842  -5.731  0.00  0.00     0.032 A 
HETATM   13  C   UNK N   1      26.626  27.362  -3.959  0.00  0.00     0.035 A 
HETATM   14  C   UNK N   1      25.534  27.705  -4.730  0.00  0.00     0.026 A 
HETATM   15  H   UNK N   1      24.382  25.310  -7.415  0.00  0.00     0.169 HD
ENDROOT
BRANCH   7  16
HETATM   16  C   UNK N   1      28.850  23.547  -4.291  0.00  0.00     0.030 A 
HETATM   17  C   UNK N   1      28.831  23.356  -2.865  0.00  0.00     0.128 A 
HETATM   18  F   UNK N   1      27.740  23.479  -2.090  0.00  0.00    -0.205 F 
HETATM   19  C   UNK N   1      29.996  22.968  -2.190  0.00  0.00     0.043 A 
HETATM   20  C   UNK N   1      31.189  22.751  -2.867  0.00  0.00     0.003 A 
HETATM   21  C   UNK N   1      31.235  22.908  -4.241  0.00  0.00     0.001 A 
HETATM   22  C   UNK N   1      30.091  23.297  -4.930  0.00  0.00     0.017 A 
ENDBRANCH   7  16
BRANCH   8  23
HETATM   23  C   UNK N   1      26.978  21.593  -8.027  0.00  0.00     0.291 C 
HETATM   24  O   UNK N   1      26.145  20.696  -8.053  0.00  0.00    -0.262 OA
BRANCH  23  25
HETATM   25  O   UNK N   1      28.187  21.430  -8.616  0.00  0.00    -0.320 OA
BRANCH  25  26
HETATM   26  C   UNK N   1      28.945  20.291  -8.495  0.00  0.00     0.174 C 
HETATM   27  C   UNK N   1      29.556  20.256  -7.109  0.00  0.00     0.034 C 
ENDBRANCH  25  26
ENDBRANCH  23  25
ENDBRANCH   8  23
TORSDOF 4
ENDMDL
MODEL 2
REMARK VINA RESULT:      -7.1     21.140     24.111
REMARK  4 active torsions:
REMARK  status: ('A' for Active; 'I' for Inactive)
REMARK    1  A    between atoms: O_3  and  C_17 
REMARK    2  A    between atoms: O_3  and  C_25 
REMARK    3  A    between atoms: C_10  and  C_13 
REMARK    4  A    between atoms: C_11  and  C_17 
ROOT
HETATM    1 Cl   UNK N   1      37.778   8.761  16.409  0.00  0.00    -0.084 Cl
HETATM    2  O   UNK N   1      36.903  13.120   9.606  0.00  0.00    -0.270 OA
HETATM    3  N   UNK N   1      37.290  11.754  11.279  0.00  0.00    -0.324 N 
HETATM    4  N   UNK N   1      36.350  14.040  13.102  0.00  0.00    -0.367 N 
ATOM      5  HN  UNK N   1      36.056  14.948  13.462  1.00  0.00     0.161 HD
HETATM    6  C   UNK N   1      37.072  11.802  13.831  0.00  0.00     0.020 A 
HETATM    7  C   UNK N   1      36.624  13.238  14.071  0.00  0.00     0.055 C 
HETATM    8  C   UNK N   1      36.337  14.036  11.670  0.00  0.00     0.275 C 
HETATM    9  C   UNK N   1      37.371  11.174  12.567  0.00  0.00     0.047 A 
HETATM   10  C   UNK N   1      36.865  12.939  10.813  0.00  0.00     0.255 C 
HETATM   11  C   UNK N   1      37.200  10.992  14.960  0.00  0.00     0.040 A 
HETATM   12  C   UNK N   1      37.795   9.834  12.552  0.00  0.00     0.032 A 
HETATM   13  C   UNK N   1      37.620   9.670  14.924  0.00  0.00     0.035 A 
HETATM   14  C   UNK N   1      37.927   9.087  13.711  0.00  0.00     0.026 A 
HETATM   15  H   UNK N   1      37.617  11.158  10.567  0.00  0.00     0.169 HD
ENDROOT
BRANCH   7  16
HETATM   16  C   UNK N   1      36.408  13.896  15.453  0.00  0.00     0.030 A 
HETATM   17  C   UNK N   1      35.517  13.528  16.521  0.00  0.00     0.128 A 
HETATM   18  F   UNK N   1      34.698  12.463  16.503  0.00  0.00    -0.205 F 
HETATM   19  C   UNK N   1      35.494  14.273  17.708  0.00  0.00     0.043 A 
HETATM   20  C   UNK N   1      36.325  15.370  17.893  0.00  0.00     0.003 A 
HETATM   21  C   UNK N   1      37.206  15.739  16.892  0.00  0.00     0.001 A 
HETATM   22  C   UNK N   1      37.242  15.016  15.704  0.00  0.00     0.017 A 
ENDBRANCH   7  16
BRANCH   8  23
HETATM   23  C   UNK N   1      35.929  15.375  11.110  0.00  0.00     0.291 C 
HETATM   24  O   UNK N   1      36.768  16.226  10.840  0.00  0.00    -0.262 OA
BRANCH  23  25
HETATM   25  O   UNK N   1      34.610  15.622  10.921  0.00  0.00    -0.320 OA
BRANCH  25  26
HETATM   26  C   UNK N   1      33.963  15.429   9.725  0.00  0.00     0.174 C 
HETATM   27  C   UNK N   1      33.816  16.765   9.027  0.00  0.00     0.034 C 
ENDBRANCH  25  26
ENDBRANCH  23  25
ENDBRANCH   8  23
TORSDOF 4
ENDMDL
MODEL 3
REMARK VINA RESULT:      -7.0      3.408      5.512
REMARK  4 active torsions:
REMARK  status: ('A' for Active; 'I' for Inactive)
REMARK    1  A    between atoms: O_3  and  C_17 
REMARK    2  A    between atoms: O_3  and  C_25 
REMARK    3  A    between atoms: C_10  and  C_13 
REMARK    4  A    between atoms: C_11  and  C_17 
ROOT
HETATM    1 Cl   UNK N   1      28.109  20.702  -8.393  0.00  0.00    -0.084 Cl
HETATM    2  O   UNK N   1      24.319  27.367  -5.697  0.00  0.00    -0.270 OA
HETATM    3  N   UNK N   1      25.207  25.617  -6.679  0.00  0.00    -0.324 N 
HETATM    4  N   UNK N   1      27.140  25.509  -4.295  0.00  0.00    -0.367 N 
ATOM      5  HN  UNK N   1      27.665  25.731  -3.449  1.00  0.00     0.161 HD
HETATM    6  C   UNK N   1      27.088  23.947  -6.197  0.00  0.00     0.020 A 
HETATM    7  C   UNK N   1      27.673  24.511  -4.908  0.00  0.00     0.055 C 
HETATM    8  C   UNK N   1      26.030  26.401  -4.448  0.00  0.00     0.275 C 
HETATM    9  C   UNK N   1      25.989  24.474  -6.968  0.00  0.00     0.047 A 
HETATM   10  C   UNK N   1      25.153  26.476  -5.649  0.00  0.00     0.255 C 
HETATM   11  C   UNK N   1      27.671  22.778  -6.686  0.00  0.00     0.040 A 
HETATM   12  C   UNK N   1      25.607  23.818  -8.151  0.00  0.00     0.032 A 
HETATM   13  C   UNK N   1      27.279  22.145  -7.857  0.00  0.00     0.035 A 
HETATM   14  C   UNK N   1      26.243  22.672  -8.600  0.00  0.00     0.026 A 
HETATM   15  H   UNK N   1      24.560  25.830  -7.390  0.00  0.00     0.169 HD
ENDROOT
BRANCH   7  16
HETATM   16  C   UNK N   1      28.915  23.966  -4.166  0.00  0.00     0.030 A 
HETATM   17  C   UNK N   1      30.290  23.914  -4.585  0.00  0.00     0.128 A 
HETATM   18  F   UNK N   1      30.755  24.392  -5.751  0.00  0.00    -0.205 F 
HETATM   19  C   UNK N   1      31.267  23.378  -3.734  0.00  0.00     0.043 A 
HETATM   20  C   UNK N   1      30.944  22.894  -2.473  0.00  0.00     0.003 A 
HETATM   21  C   UNK N   1      29.633  22.946  -2.034  0.00  0.00     0.001 A 
HETATM   22  C   UNK N   1      28.647  23.470  -2.864  0.00  0.00     0.017 A 
ENDBRANCH   7  16
BRANCH   8  23
HETATM   23  C   UNK N   1      25.977  27.425  -3.343  0.00  0.00     0.291 C 
HETATM   24  O   UNK N   1      25.954  27.081  -2.167  0.00  0.00    -0.262 OA
BRANCH  23  25
HETATM   25  O   UNK N   1      25.942  28.738  -3.679  0.00  0.00    -0.320 OA
BRANCH  25  26
HETATM   26  C   UNK N   1      27.036  29.566  -3.625  0.00  0.00     0.174 C 
HETATM   27  C   UNK N   1      27.490  29.870  -5.037  0.00  0.00     0.034 C 
ENDBRANCH  25  26
ENDBRANCH  23  25
ENDBRANCH   8  23
TORSDOF 4
ENDMDL
MODEL 4
REMARK VINA RESULT:      -6.6      3.341      5.568
REMARK  4 active torsions:
REMARK  status: ('A' for Active; 'I' for Inactive)
REMARK    1  A    between atoms: O_3  and  C_17 
REMARK    2  A    between atoms: O_3  and  C_25 
REMARK    3  A    between atoms: C_10  and  C_13 
REMARK    4  A    between atoms: C_11  and  C_17 
ROOT
HETATM    1 Cl   UNK N   1      30.003  19.075  -9.087  0.00  0.00    -0.084 Cl
HETATM    2  O   UNK N   1      25.217  24.773  -5.819  0.00  0.00    -0.270 OA
HETATM    3  N   UNK N   1      26.341  23.257  -6.939  0.00  0.00    -0.324 N 
HETATM    4  N   UNK N   1      28.493  23.535  -4.767  0.00  0.00    -0.367 N 
ATOM      5  HN  UNK N   1      29.046  23.855  -3.971  1.00  0.00     0.161 HD
HETATM    6  C   UNK N   1      28.567  22.014  -6.701  0.00  0.00     0.020 A 
HETATM    7  C   UNK N   1      29.154  22.677  -5.461  0.00  0.00     0.055 C 
HETATM    8  C   UNK N   1      27.212  24.176  -4.780  0.00  0.00     0.275 C 
HETATM    9  C   UNK N   1      27.308  22.306  -7.341  0.00  0.00     0.047 A 
HETATM   10  C   UNK N   1      26.218  24.077  -5.883  0.00  0.00     0.255 C 
HETATM   11  C   UNK N   1      29.326  20.997  -7.282  0.00  0.00     0.040 A 
HETATM   12  C   UNK N   1      26.948  21.595  -8.499  0.00  0.00     0.032 A 
HETATM   13  C   UNK N   1      28.953  20.307  -8.426  0.00  0.00     0.035 A 
HETATM   14  C   UNK N   1      27.758  20.612  -9.045  0.00  0.00     0.026 A 
HETATM   15  H   UNK N   1      25.593  23.337  -7.575  0.00  0.00     0.169 HD
ENDROOT
BRANCH   7  16
HETATM   16  C   UNK N   1      30.553  22.397  -4.865  0.00  0.00     0.030 A 
HETATM   17  C   UNK N   1      30.960  21.433  -3.878  0.00  0.00     0.128 A 
HETATM   18  F   UNK N   1      30.142  20.537  -3.300  0.00  0.00    -0.205 F 
HETATM   19  C   UNK N   1      32.303  21.346  -3.489  0.00  0.00     0.043 A 
HETATM   20  C   UNK N   1      33.274  22.172  -4.040  0.00  0.00     0.003 A 
HETATM   21  C   UNK N   1      32.918  23.097  -5.005  0.00  0.00     0.001 A 
HETATM   22  C   UNK N   1      31.590  23.203  -5.404  0.00  0.00     0.017 A 
ENDBRANCH   7  16
BRANCH   8  23
HETATM   23  C   UNK N   1      27.064  25.156  -3.644  0.00  0.00     0.291 C 
HETATM   24  O   UNK N   1      26.676  24.788  -2.542  0.00  0.00    -0.262 OA
BRANCH  23  25
HETATM   25  O   UNK N   1      27.358  26.460  -3.872  0.00  0.00    -0.320 OA
BRANCH  25  26
HETATM   26  C   UNK N   1      26.696  27.505  -3.276  0.00  0.00     0.174 C 
HETATM   27  C   UNK N   1      25.505  27.881  -4.133  0.00  0.00     0.034 C 
ENDBRANCH  25  26
ENDBRANCH  23  25
ENDBRANCH   8  23
TORSDOF 4
ENDMDL
MODEL 5
REMARK VINA RESULT:      -6.6      4.304      7.324
REMARK  4 active torsions:
REMARK  status: ('A' for Active; 'I' for Inactive)
REMARK    1  A    between atoms: O_3  and  C_17 
REMARK    2  A    between atoms: O_3  and  C_25 
REMARK    3  A    between atoms: C_10  and  C_13 
REMARK    4  A    between atoms: C_11  and  C_17 
ROOT
HETATM    1 Cl   UNK N   1      34.237  19.021  -7.243  0.00  0.00    -0.084 Cl
HETATM    2  O   UNK N   1      30.412  23.084  -1.334  0.00  0.00    -0.270 OA
HETATM    3  N   UNK N   1      31.618  21.883  -2.719  0.00  0.00    -0.324 N 
HETATM    4  N   UNK N   1      29.400  22.393  -4.780  0.00  0.00    -0.367 N 
ATOM      5  HN  UNK N   1      28.526  22.663  -5.231  1.00  0.00     0.161 HD
HETATM    6  C   UNK N   1      31.469  21.114  -5.158  0.00  0.00     0.020 A 
HETATM    7  C   UNK N   1      30.102  21.651  -5.563  0.00  0.00     0.055 C 
HETATM    8  C   UNK N   1      29.480  22.951  -3.464  0.00  0.00     0.275 C 
HETATM    9  C   UNK N   1      32.113  21.228  -3.872  0.00  0.00     0.047 A 
HETATM   10  C   UNK N   1      30.533  22.629  -2.461  0.00  0.00     0.255 C 
HETATM   11  C   UNK N   1      32.192  20.443  -6.144  0.00  0.00     0.040 A 
HETATM   12  C   UNK N   1      33.377  20.643  -3.685  0.00  0.00     0.032 A 
HETATM   13  C   UNK N   1      33.440  19.871  -5.940  0.00  0.00     0.035 A 
HETATM   14  C   UNK N   1      34.035  19.965  -4.698  0.00  0.00     0.026 A 
HETATM   15  H   UNK N   1      32.198  21.765  -1.932  0.00  0.00     0.169 HD
ENDROOT
BRANCH   7  16
HETATM   16  C   UNK N   1      29.410  21.421  -6.926  0.00  0.00     0.030 A 
HETATM   17  C   UNK N   1      29.100  20.193  -7.608  0.00  0.00     0.128 A 
HETATM   18  F   UNK N   1      29.349  18.964  -7.124  0.00  0.00    -0.205 F 
HETATM   19  C   UNK N   1      28.450  20.220  -8.849  0.00  0.00     0.043 A 
HETATM   20  C   UNK N   1      28.081  21.417  -9.450  0.00  0.00     0.003 A 
HETATM   21  C   UNK N   1      28.349  22.614  -8.810  0.00  0.00     0.001 A 
HETATM   22  C   UNK N   1      28.997  22.611  -7.580  0.00  0.00     0.017 A 
ENDBRANCH   7  16
BRANCH   8  23
HETATM   23  C   UNK N   1      28.245  23.742  -3.113  0.00  0.00     0.291 C 
HETATM   24  O   UNK N   1      27.632  23.524  -2.076  0.00  0.00    -0.262 OA
BRANCH  23  25
HETATM   25  O   UNK N   1      27.820  24.694  -3.979  0.00  0.00    -0.320 OA
BRANCH  25  26
HETATM   26  C   UNK N   1      26.500  24.896  -4.300  0.00  0.00     0.174 C 
HETATM   27  C   UNK N   1      26.239  24.325  -5.679  0.00  0.00     0.034 C 
ENDBRANCH  25  26
ENDBRANCH  23  25
ENDBRANCH   8  23
TORSDOF 4
ENDMDL
MODEL 6
REMARK VINA RESULT:      -6.4     17.105     18.802
REMARK  4 active torsions:
REMARK  status: ('A' for Active; 'I' for Inactive)
REMARK    1  A    between atoms: O_3  and  C_17 
REMARK    2  A    between atoms: O_3  and  C_25 
REMARK    3  A    between atoms: C_10  and  C_13 
REMARK    4  A    between atoms: C_11  and  C_17 
ROOT
HETATM    1 Cl   UNK N   1      23.630   9.322   5.563  0.00  0.00    -0.084 Cl
HETATM    2  O   UNK N   1      19.117  16.074   5.884  0.00  0.00    -0.270 OA
HETATM    3  N   UNK N   1      20.334  14.288   5.508  0.00  0.00    -0.324 N 
HETATM    4  N   UNK N   1      20.943  14.311   8.518  0.00  0.00    -0.367 N 
ATOM      5  HN  UNK N   1      21.020  14.579   9.499  1.00  0.00     0.161 HD
HETATM    6  C   UNK N   1      21.755  12.659   6.883  0.00  0.00     0.020 A 
HETATM    7  C   UNK N   1      21.685  13.290   8.268  0.00  0.00     0.055 C 
HETATM    8  C   UNK N   1      20.042  15.185   7.827  0.00  0.00     0.275 C 
HETATM    9  C   UNK N   1      21.145  13.139   5.667  0.00  0.00     0.047 A 
HETATM   10  C   UNK N   1      19.822  15.195   6.354  0.00  0.00     0.255 C 
HETATM   11  C   UNK N   1      22.482  11.473   6.775  0.00  0.00     0.040 A 
HETATM   12  C   UNK N   1      21.344  12.423   4.474  0.00  0.00     0.032 A 
HETATM   13  C   UNK N   1      22.667  10.782   5.586  0.00  0.00     0.035 A 
HETATM   14  C   UNK N   1      22.100  11.264   4.424  0.00  0.00     0.026 A 
HETATM   15  H   UNK N   1      20.093  14.461   4.569  0.00  0.00     0.169 HD
ENDROOT
BRANCH   7  16
HETATM   16  C   UNK N   1      22.435  12.792   9.525  0.00  0.00     0.030 A 
HETATM   17  C   UNK N   1      23.848  12.689   9.776  0.00  0.00     0.128 A 
HETATM   18  F   UNK N   1      24.808  13.064   8.915  0.00  0.00    -0.205 F 
HETATM   19  C   UNK N   1      24.312  12.213  11.010  0.00  0.00     0.043 A 
HETATM   20  C   UNK N   1      23.435  11.838  12.020  0.00  0.00     0.003 A 
HETATM   21  C   UNK N   1      22.071  11.943  11.816  0.00  0.00     0.001 A 
HETATM   22  C   UNK N   1      21.588  12.409  10.597  0.00  0.00     0.017 A 
ENDBRANCH   7  16
BRANCH   8  23
HETATM   23  C   UNK N   1      19.498  16.260   8.733  0.00  0.00     0.291 C 
HETATM   24  O   UNK N   1      18.362  16.186   9.186  0.00  0.00    -0.262 OA
BRANCH  23  25
HETATM   25  O   UNK N   1      20.291  17.320   9.027  0.00  0.00    -0.320 OA
BRANCH  25  26
HETATM   26  C   UNK N   1      19.918  18.627   8.832  0.00  0.00     0.174 C 
HETATM   27  C   UNK N   1      19.428  19.198  10.146  0.00  0.00     0.034 C 
ENDBRANCH  25  26
ENDBRANCH  23  25
ENDBRANCH   8  23
TORSDOF 4
ENDMDL
MODEL 7
REMARK VINA RESULT:      -6.4      3.226      6.218
REMARK  4 active torsions:
REMARK  status: ('A' for Active; 'I' for Inactive)
REMARK    1  A    between atoms: O_3  and  C_17 
REMARK    2  A    between atoms: O_3  and  C_25 
REMARK    3  A    between atoms: C_10  and  C_13 
REMARK    4  A    between atoms: C_11  and  C_17 
ROOT
HETATM    1 Cl   UNK N   1      33.481  20.271  -4.524  0.00  0.00    -0.084 Cl
HETATM    2  O   UNK N   1      26.868  24.766  -3.068  0.00  0.00    -0.270 OA
HETATM    3  N   UNK N   1      28.681  23.534  -3.171  0.00  0.00    -0.324 N 
HETATM    4  N   UNK N   1      27.998  23.129  -6.138  0.00  0.00    -0.367 N 
ATOM      5  HN  UNK N   1      27.523  23.118  -7.041  1.00  0.00     0.161 HD
HETATM    6  C   UNK N   1      29.957  22.216  -4.959  0.00  0.00     0.020 A 
HETATM    7  C   UNK N   1      29.041  22.377  -6.166  0.00  0.00     0.055 C 
HETATM    8  C   UNK N   1      27.305  23.978  -5.215  0.00  0.00     0.275 C 
HETATM    9  C   UNK N   1      29.759  22.741  -3.630  0.00  0.00     0.047 A 
HETATM   10  C   UNK N   1      27.617  24.098  -3.764  0.00  0.00     0.255 C 
HETATM   11  C   UNK N   1      31.130  21.489  -5.160  0.00  0.00     0.040 A 
HETATM   12  C   UNK N   1      30.714  22.464  -2.637  0.00  0.00     0.032 A 
HETATM   13  C   UNK N   1      32.061  21.227  -4.165  0.00  0.00     0.035 A 
HETATM   14  C   UNK N   1      31.849  21.712  -2.890  0.00  0.00     0.026 A 
HETATM   15  H   UNK N   1      28.718  23.711  -2.203  0.00  0.00     0.169 HD
ENDROOT
BRANCH   7  16
HETATM   16  C   UNK N   1      29.247  21.715  -7.548  0.00  0.00     0.030 A 
HETATM   17  C   UNK N   1      29.259  20.324  -7.913  0.00  0.00     0.128 A 
HETATM   18  F   UNK N   1      29.048  19.307  -7.060  0.00  0.00    -0.205 F 
HETATM   19  C   UNK N   1      29.455  19.946  -9.248  0.00  0.00     0.043 A 
HETATM   20  C   UNK N   1      29.634  20.889 -10.251  0.00  0.00     0.003 A 
HETATM   21  C   UNK N   1      29.608  22.237  -9.936  0.00  0.00     0.001 A 
HETATM   22  C   UNK N   1      29.419  22.634  -8.616  0.00  0.00     0.017 A 
ENDBRANCH   7  16
BRANCH   8  23
HETATM   23  C   UNK N   1      26.064  24.577  -5.827  0.00  0.00     0.291 C 
HETATM   24  O   UNK N   1      25.123  23.869  -6.163  0.00  0.00    -0.262 OA
BRANCH  23  25
HETATM   25  O   UNK N   1      26.017  25.919  -6.011  0.00  0.00    -0.320 OA
BRANCH  25  26
HETATM   26  C   UNK N   1      24.966  26.706  -5.608  0.00  0.00     0.174 C 
HETATM   27  C   UNK N   1      25.470  27.718  -4.601  0.00  0.00     0.034 C 
ENDBRANCH  25  26
ENDBRANCH  23  25
ENDBRANCH   8  23
TORSDOF 4
ENDMDL
MODEL 8
REMARK VINA RESULT:      -6.4     11.367     12.282
REMARK  4 active torsions:
REMARK  status: ('A' for Active; 'I' for Inactive)
REMARK    1  A    between atoms: O_3  and  C_17 
REMARK    2  A    between atoms: O_3  and  C_25 
REMARK    3  A    between atoms: C_10  and  C_13 
REMARK    4  A    between atoms: C_11  and  C_17 
ROOT
HETATM    1 Cl   UNK N   1      27.625  21.675   6.152  0.00  0.00    -0.084 Cl
HETATM    2  O   UNK N   1      26.023  14.933   1.904  0.00  0.00    -0.270 OA
HETATM    3  N   UNK N   1      26.168  16.800   3.047  0.00  0.00    -0.324 N 
HETATM    4  N   UNK N   1      29.046  15.949   3.694  0.00  0.00    -0.367 N 
ATOM      5  HN  UNK N   1      29.912  15.418   3.793  1.00  0.00     0.161 HD
HETATM    6  C   UNK N   1      27.946  18.028   4.421  0.00  0.00     0.020 A 
HETATM    7  C   UNK N   1      29.096  17.028   4.393  0.00  0.00     0.055 C 
HETATM    8  C   UNK N   1      28.137  15.272   2.819  0.00  0.00     0.275 C 
HETATM    9  C   UNK N   1      26.645  17.889   3.815  0.00  0.00     0.047 A 
HETATM   10  C   UNK N   1      26.723  15.671   2.580  0.00  0.00     0.255 C 
HETATM   11  C   UNK N   1      28.178  19.224   5.101  0.00  0.00     0.040 A 
HETATM   12  C   UNK N   1      25.703  18.920   3.972  0.00  0.00     0.032 A 
HETATM   13  C   UNK N   1      27.234  20.231   5.245  0.00  0.00     0.035 A 
HETATM   14  C   UNK N   1      25.984  20.076   4.682  0.00  0.00     0.026 A 
HETATM   15  H   UNK N   1      25.219  16.891   2.801  0.00  0.00     0.169 HD
ENDROOT
BRANCH   7  16
HETATM   16  C   UNK N   1      30.441  17.179   5.140  0.00  0.00     0.030 A 
HETATM   17  C   UNK N   1      30.732  17.085   6.545  0.00  0.00     0.128 A 
HETATM   18  F   UNK N   1      29.828  16.800   7.497  0.00  0.00    -0.205 F 
HETATM   19  C   UNK N   1      32.046  17.249   7.006  0.00  0.00     0.043 A 
HETATM   20  C   UNK N   1      33.097  17.496   6.132  0.00  0.00     0.003 A 
HETATM   21  C   UNK N   1      32.852  17.573   4.772  0.00  0.00     0.001 A 
HETATM   22  C   UNK N   1      31.555  17.418   4.293  0.00  0.00     0.017 A 
ENDBRANCH   7  16
BRANCH   8  23
HETATM   23  C   UNK N   1      28.702  13.963   2.327  0.00  0.00     0.291 C 
HETATM   24  O   UNK N   1      28.938  13.787   1.139  0.00  0.00    -0.262 OA
BRANCH  23  25
HETATM   25  O   UNK N   1      28.932  12.978   3.230  0.00  0.00    -0.320 OA
BRANCH  25  26
HETATM   26  C   UNK N   1      30.169  12.426   3.456  0.00  0.00     0.174 C 
HETATM   27  C   UNK N   1      30.822  13.149   4.615  0.00  0.00     0.034 C 
ENDBRANCH  25  26
ENDBRANCH  23  25
ENDBRANCH   8  23
TORSDOF 4
ENDMDL
MODEL 9
REMARK VINA RESULT:      -6.2     12.339     14.889
REMARK  4 active torsions:
REMARK  status: ('A' for Active; 'I' for Inactive)
REMARK    1  A    between atoms: O_3  and  C_17 
REMARK    2  A    between atoms: O_3  and  C_25 
REMARK    3  A    between atoms: C_10  and  C_13 
REMARK    4  A    between atoms: C_11  and  C_17 
ROOT
HETATM    1 Cl   UNK N   1      24.979  14.932   3.808  0.00  0.00    -0.084 Cl
HETATM    2  O   UNK N   1      32.706  14.422   6.277  0.00  0.00    -0.270 OA
HETATM    3  N   UNK N   1      30.615  14.268   5.631  0.00  0.00    -0.324 N 
HETATM    4  N   UNK N   1      30.454  17.298   6.103  0.00  0.00    -0.367 N 
ATOM      5  HN  UNK N   1      30.657  18.258   6.384  1.00  0.00     0.161 HD
HETATM    6  C   UNK N   1      28.637  15.857   5.278  0.00  0.00     0.020 A 
HETATM    7  C   UNK N   1      29.219  17.180   5.762  0.00  0.00     0.055 C 
HETATM    8  C   UNK N   1      31.628  16.484   6.207  0.00  0.00     0.275 C 
HETATM    9  C   UNK N   1      29.288  14.571   5.242  0.00  0.00     0.047 A 
HETATM   10  C   UNK N   1      31.659  15.005   6.041  0.00  0.00     0.255 C 
HETATM   11  C   UNK N   1      27.326  15.891   4.802  0.00  0.00     0.040 A 
HETATM   12  C   UNK N   1      28.571  13.454   4.778  0.00  0.00     0.032 A 
HETATM   13  C   UNK N   1      26.636  14.776   4.348  0.00  0.00     0.035 A 
HETATM   14  C   UNK N   1      27.260  13.546   4.342  0.00  0.00     0.026 A 
HETATM   15  H   UNK N   1      30.816  13.306   5.592  0.00  0.00     0.169 HD
ENDROOT
BRANCH   7  16
HETATM   16  C   UNK N   1      28.451  18.517   5.872  0.00  0.00     0.030 A 
HETATM   17  C   UNK N   1      27.964  19.208   7.035  0.00  0.00     0.128 A 
HETATM   18  F   UNK N   1      28.138  18.793   8.302  0.00  0.00    -0.205 F 
HETATM   19  C   UNK N   1      27.294  20.431   6.900  0.00  0.00     0.043 A 
HETATM   20  C   UNK N   1      27.088  21.013   5.656  0.00  0.00     0.003 A 
HETATM   21  C   UNK N   1      27.560  20.381   4.519  0.00  0.00     0.001 A 
HETATM   22  C   UNK N   1      28.225  19.164   4.630  0.00  0.00     0.017 A 
ENDBRANCH   7  16
BRANCH   8  23
HETATM   23  C   UNK N   1      32.807  17.264   6.731  0.00  0.00     0.291 C 
HETATM   24  O   UNK N   1      33.565  17.847   5.965  0.00  0.00    -0.262 OA
BRANCH  23  25
HETATM   25  O   UNK N   1      33.018  17.297   8.069  0.00  0.00    -0.320 OA
BRANCH  25  26
HETATM   26  C   UNK N   1      34.236  17.571   8.641  0.00  0.00     0.174 C 
HETATM   27  C   UNK N   1      34.573  16.470   9.626  0.00  0.00     0.034 C 
ENDBRANCH  25  26
ENDBRANCH  23  25
ENDBRANCH   8  23
TORSDOF 4
ENDMDL
