REMARK  4 active torsions:
REMARK  status: ('A' for Active; 'I' for Inactive)
REMARK    1  A    between atoms: O_3  and  C_17 
REMARK    2  A    between atoms: O_3  and  C_25 
REMARK    3  A    between atoms: C_10  and  C_13 
REMARK    4  A    between atoms: C_11  and  C_17 
ROOT
HETATM    1 Cl   UNK N   1       1.171  -4.698   0.280  0.00  0.00    -0.084 Cl
HETATM    2  O   UNK N   1       1.236   3.417  -0.172  0.00  0.00    -0.270 OA
HETATM    3  N   UNK N   1       0.939   1.243  -0.133  0.00  0.00    -0.324 N 
HETATM    4  N   UNK N   1       3.998   1.028   0.030  0.00  0.00    -0.367 N 
ATOM      5  HN  UNK N   1       4.996   1.238   0.023  1.00  0.00     0.161 HD
HETATM    6  C   UNK N   1       2.406  -0.850   0.032  0.00  0.00     0.020 A 
HETATM    7  C   UNK N   1       3.804  -0.244   0.009  0.00  0.00     0.055 C 
HETATM    8  C   UNK N   1       3.229   2.236   0.059  0.00  0.00     0.275 C 
HETATM    9  C   UNK N   1       1.145  -0.154  -0.043  0.00  0.00     0.047 A 
HETATM   10  C   UNK N   1       1.750   2.312  -0.093  0.00  0.00     0.255 C 
HETATM   11  C   UNK N   1       2.331  -2.238   0.151  0.00  0.00     0.040 A 
HETATM   12  C   UNK N   1      -0.048  -0.897  -0.029  0.00  0.00     0.032 A 
HETATM   13  C   UNK N   1       1.142  -2.953   0.163  0.00  0.00     0.035 A 
HETATM   14  C   UNK N   1      -0.058  -2.279   0.065  0.00  0.00     0.026 A 
HETATM   15  H   UNK N   1      -0.008   1.485  -0.251  0.00  0.00     0.169 HD
ENDROOT
BRANCH   7  16
HETATM   16  C   UNK N   1       5.131  -1.037  -0.005  0.00  0.00     0.030 A 
HETATM   17  C   UNK N   1       5.364  -2.442  -0.207  0.00  0.00     0.128 A 
HETATM   18  F   UNK N   1       4.406  -3.348  -0.466  0.00  0.00    -0.205 F 
HETATM   19  C   UNK N   1       6.670  -2.950  -0.189  0.00  0.00     0.043 A 
HETATM   20  C   UNK N   1       7.768  -2.124   0.014  0.00  0.00     0.003 A 
HETATM   21  C   UNK N   1       7.578  -0.765   0.193  0.00  0.00     0.001 A 
HETATM   22  C   UNK N   1       6.290  -0.240   0.183  0.00  0.00     0.017 A 
ENDBRANCH   7  16
BRANCH   8  23
HETATM   23  C   UNK N   1       4.108   3.461   0.036  0.00  0.00     0.291 C 
HETATM   24  O   UNK N   1       3.621   4.584  -0.005  0.00  0.00    -0.262 OA
BRANCH  23  25
HETATM   25  O   UNK N   1       5.453   3.292   0.050  0.00  0.00    -0.320 OA
BRANCH  25  26
HETATM   26  C   UNK N   1       6.351   4.330   0.004  0.00  0.00     0.174 C 
HETATM   27  C   UNK N   1       7.755   3.762   0.000  0.00  0.00     0.034 C 
ENDBRANCH  25  26
ENDBRANCH  23  25
ENDBRANCH   8  23
TORSDOF 4
