MODEL 1
REMARK VINA RESULT:      -5.0      0.000      0.000
REMARK  5 active torsions:
REMARK  status: ('A' for Active; 'I' for Inactive)
REMARK    1  A    between atoms: N_1  and  C_3 
REMARK    2  A    between atoms: N_1  and  C_7 
REMARK    3  A    between atoms: C_3  and  C_4 
REMARK    4  A    between atoms: C_4  and  C_5 
REMARK    5  A    between atoms: C_7  and  C_10 
ROOT
HETATM    1  N   UNK N   1      31.385  22.090  -2.224  0.00  0.00    -0.197 NA
HETATM    2  C   UNK N   1      31.176  24.060  -3.920  0.00  0.00     0.143 C 
HETATM    3  C   UNK N   1      31.313  22.958  -2.983  0.00  0.00     0.060 C 
ENDROOT
BRANCH   2   4
HETATM    4  C   UNK N   1      29.824  24.654  -3.666  0.00  0.00     0.128 C 
BRANCH   4   5
HETATM    5  N   UNK N   1      28.833  23.606  -3.828  0.00  0.00    -0.416 N 
HETATM    6  H   UNK N   1      28.768  22.767  -3.250  0.00  0.00     0.153 HD
BRANCH   5   7
HETATM    7  C   UNK N   1      27.950  23.925  -4.932  0.00  0.00     0.076 C 
HETATM    8  C   UNK N   1      28.254  23.072  -6.168  0.00  0.00     0.032 C 
BRANCH   7   9
HETATM    9  C   UNK N   1      26.472  24.001  -4.525  0.00  0.00     0.062 C 
BRANCH   9  10
HETATM   10  C   UNK N   1      26.038  25.417  -4.570  0.00  0.00    -0.056 A 
HETATM   11  C   UNK N   1      26.417  26.270  -3.530  0.00  0.00     0.007 A 
HETATM   12  C   UNK N   1      26.031  27.599  -3.525  0.00  0.00     0.001 A 
HETATM   13  C   UNK N   1      25.277  28.098  -4.585  0.00  0.00     0.000 A 
HETATM   14  C   UNK N   1      24.893  27.256  -5.636  0.00  0.00     0.001 A 
HETATM   15  C   UNK N   1      25.264  25.906  -5.627  0.00  0.00     0.007 A 
ENDBRANCH   9  10
ENDBRANCH   7   9
ENDBRANCH   5   7
ENDBRANCH   4   5
ENDBRANCH   2   4
TORSDOF 5
ENDMDL
MODEL 2
REMARK VINA RESULT:      -4.5     10.816     13.869
REMARK  5 active torsions:
REMARK  status: ('A' for Active; 'I' for Inactive)
REMARK    1  A    between atoms: N_1  and  C_3 
REMARK    2  A    between atoms: N_1  and  C_7 
REMARK    3  A    between atoms: C_3  and  C_4 
REMARK    4  A    between atoms: C_4  and  C_5 
REMARK    5  A    between atoms: C_7  and  C_10 
ROOT
HETATM    1  N   UNK N   1      27.132  21.195   6.434  0.00  0.00    -0.197 NA
HETATM    2  C   UNK N   1      27.611  19.835   4.260  0.00  0.00     0.143 C 
HETATM    3  C   UNK N   1      27.338  20.610   5.458  0.00  0.00     0.060 C 
ENDROOT
BRANCH   2   4
HETATM    4  C   UNK N   1      28.046  18.481   4.732  0.00  0.00     0.128 C 
BRANCH   4   5
HETATM    5  N   UNK N   1      28.643  18.632   6.047  0.00  0.00    -0.416 N 
HETATM    6  H   UNK N   1      28.913  19.522   6.468  0.00  0.00     0.153 HD
BRANCH   5   7
HETATM    7  C   UNK N   1      28.800  17.335   6.672  0.00  0.00     0.076 C 
HETATM    8  C   UNK N   1      27.451  16.639   6.885  0.00  0.00     0.032 C 
BRANCH   7   9
HETATM    9  C   UNK N   1      29.894  16.475   6.022  0.00  0.00     0.062 C 
BRANCH   9  10
HETATM   10  C   UNK N   1      31.218  16.978   6.460  0.00  0.00    -0.056 A 
HETATM   11  C   UNK N   1      31.391  17.336   7.800  0.00  0.00     0.007 A 
HETATM   12  C   UNK N   1      32.606  17.815   8.256  0.00  0.00     0.001 A 
HETATM   13  C   UNK N   1      33.678  17.918   7.371  0.00  0.00     0.000 A 
HETATM   14  C   UNK N   1      33.520  17.560   6.026  0.00  0.00     0.001 A 
HETATM   15  C   UNK N   1      32.283  17.097   5.562  0.00  0.00     0.007 A 
ENDBRANCH   9  10
ENDBRANCH   7   9
ENDBRANCH   5   7
ENDBRANCH   4   5
ENDBRANCH   2   4
TORSDOF 5
ENDMDL
MODEL 3
REMARK VINA RESULT:      -4.5      2.251      5.871
REMARK  5 active torsions:
REMARK  status: ('A' for Active; 'I' for Inactive)
REMARK    1  A    between atoms: N_1  and  C_3 
REMARK    2  A    between atoms: N_1  and  C_7 
REMARK    3  A    between atoms: C_3  and  C_4 
REMARK    4  A    between atoms: C_4  and  C_5 
REMARK    5  A    between atoms: C_7  and  C_10 
ROOT
HETATM    1  N   UNK N   1      27.065  28.883  -2.548  0.00  0.00    -0.197 NA
HETATM    2  C   UNK N   1      25.423  28.025  -4.384  0.00  0.00     0.143 C 
HETATM    3  C   UNK N   1      26.324  28.521  -3.358  0.00  0.00     0.060 C 
ENDROOT
BRANCH   2   4
HETATM    4  C   UNK N   1      26.025  26.747  -4.883  0.00  0.00     0.128 C 
BRANCH   4   5
HETATM    5  N   UNK N   1      26.557  26.024  -3.742  0.00  0.00    -0.416 N 
HETATM    6  H   UNK N   1      26.568  26.371  -2.782  0.00  0.00     0.153 HD
BRANCH   5   7
HETATM    7  C   UNK N   1      27.072  24.738  -4.167  0.00  0.00     0.076 C 
HETATM    8  C   UNK N   1      26.041  23.956  -4.988  0.00  0.00     0.032 C 
BRANCH   7   9
HETATM    9  C   UNK N   1      28.481  24.817  -4.773  0.00  0.00     0.062 C 
BRANCH   9  10
HETATM   10  C   UNK N   1      29.274  23.665  -4.284  0.00  0.00    -0.056 A 
HETATM   11  C   UNK N   1      29.527  22.603  -5.157  0.00  0.00     0.007 A 
HETATM   12  C   UNK N   1      30.259  21.503  -4.745  0.00  0.00     0.001 A 
HETATM   13  C   UNK N   1      30.771  21.467  -3.450  0.00  0.00     0.000 A 
HETATM   14  C   UNK N   1      30.529  22.526  -2.565  0.00  0.00     0.001 A 
HETATM   15  C   UNK N   1      29.770  23.626  -2.977  0.00  0.00     0.007 A 
ENDBRANCH   9  10
ENDBRANCH   7   9
ENDBRANCH   5   7
ENDBRANCH   4   5
ENDBRANCH   2   4
TORSDOF 5
ENDMDL
MODEL 4
REMARK VINA RESULT:      -4.4     10.327     11.770
REMARK  5 active torsions:
REMARK  status: ('A' for Active; 'I' for Inactive)
REMARK    1  A    between atoms: N_1  and  C_3 
REMARK    2  A    between atoms: N_1  and  C_7 
REMARK    3  A    between atoms: C_3  and  C_4 
REMARK    4  A    between atoms: C_4  and  C_5 
REMARK    5  A    between atoms: C_7  and  C_10 
ROOT
HETATM    1  N   UNK N   1      21.848  14.845   0.909  0.00  0.00    -0.197 NA
HETATM    2  C   UNK N   1      19.925  16.606   0.943  0.00  0.00     0.143 C 
HETATM    3  C   UNK N   1      20.990  15.618   0.904  0.00  0.00     0.060 C 
ENDROOT
BRANCH   2   4
HETATM    4  C   UNK N   1      20.080  17.331   2.245  0.00  0.00     0.128 C 
BRANCH   4   5
HETATM    5  N   UNK N   1      19.718  18.721   2.033  0.00  0.00    -0.416 N 
HETATM    6  H   UNK N   1      18.763  19.071   1.950  0.00  0.00     0.153 HD
BRANCH   5   7
HETATM    7  C   UNK N   1      20.913  19.537   1.955  0.00  0.00     0.076 C 
HETATM    8  C   UNK N   1      20.772  20.655   0.917  0.00  0.00     0.032 C 
BRANCH   7   9
HETATM    9  C   UNK N   1      21.442  19.972   3.330  0.00  0.00     0.062 C 
BRANCH   9  10
HETATM   10  C   UNK N   1      22.894  19.681   3.394  0.00  0.00    -0.056 A 
HETATM   11  C   UNK N   1      23.791  20.618   2.874  0.00  0.00     0.007 A 
HETATM   12  C   UNK N   1      25.156  20.389   2.907  0.00  0.00     0.001 A 
HETATM   13  C   UNK N   1      25.641  19.220   3.489  0.00  0.00     0.000 A 
HETATM   14  C   UNK N   1      24.753  18.274   4.019  0.00  0.00     0.001 A 
HETATM   15  C   UNK N   1      23.373  18.497   3.964  0.00  0.00     0.007 A 
ENDBRANCH   9  10
ENDBRANCH   7   9
ENDBRANCH   5   7
ENDBRANCH   4   5
ENDBRANCH   2   4
TORSDOF 5
ENDMDL
MODEL 5
REMARK VINA RESULT:      -4.4     26.243     28.954
REMARK  5 active torsions:
REMARK  status: ('A' for Active; 'I' for Inactive)
REMARK    1  A    between atoms: N_1  and  C_3 
REMARK    2  A    between atoms: N_1  and  C_7 
REMARK    3  A    between atoms: C_3  and  C_4 
REMARK    4  A    between atoms: C_4  and  C_5 
REMARK    5  A    between atoms: C_7  and  C_10 
ROOT
HETATM    1  N   UNK N   1      32.894   5.815  20.844  0.00  0.00    -0.197 NA
HETATM    2  C   UNK N   1      31.057   7.583  20.295  0.00  0.00     0.143 C 
HETATM    3  C   UNK N   1      32.065   6.581  20.599  0.00  0.00     0.060 C 
ENDROOT
BRANCH   2   4
HETATM    4  C   UNK N   1      31.769   8.901  20.294  0.00  0.00     0.128 C 
BRANCH   4   5
HETATM    5  N   UNK N   1      33.097   8.696  19.746  0.00  0.00    -0.416 N 
HETATM    6  H   UNK N   1      33.348   7.970  19.073  0.00  0.00     0.153 HD
BRANCH   5   7
HETATM    7  C   UNK N   1      34.016   9.674  20.293  0.00  0.00     0.076 C 
HETATM    8  C   UNK N   1      34.194   9.503  21.806  0.00  0.00     0.032 C 
BRANCH   7   9
HETATM    9  C   UNK N   1      35.314   9.809  19.484  0.00  0.00     0.062 C 
BRANCH   9  10
HETATM   10  C   UNK N   1      35.286  11.097  18.751  0.00  0.00    -0.056 A 
HETATM   11  C   UNK N   1      35.294  11.076  17.353  0.00  0.00     0.007 A 
HETATM   12  C   UNK N   1      35.275  12.252  16.625  0.00  0.00     0.001 A 
HETATM   13  C   UNK N   1      35.219  13.473  17.296  0.00  0.00     0.000 A 
HETATM   14  C   UNK N   1      35.205  13.509  18.696  0.00  0.00     0.001 A 
HETATM   15  C   UNK N   1      35.249  12.318  19.431  0.00  0.00     0.007 A 
ENDBRANCH   9  10
ENDBRANCH   7   9
ENDBRANCH   5   7
ENDBRANCH   4   5
ENDBRANCH   2   4
TORSDOF 5
ENDMDL
MODEL 6
REMARK VINA RESULT:      -4.3      2.694      4.948
REMARK  5 active torsions:
REMARK  status: ('A' for Active; 'I' for Inactive)
REMARK    1  A    between atoms: N_1  and  C_3 
REMARK    2  A    between atoms: N_1  and  C_7 
REMARK    3  A    between atoms: C_3  and  C_4 
REMARK    4  A    between atoms: C_4  and  C_5 
REMARK    5  A    between atoms: C_7  and  C_10 
ROOT
HETATM    1  N   UNK N   1      27.596  29.211  -2.007  0.00  0.00    -0.197 NA
HETATM    2  C   UNK N   1      26.064  28.800  -4.078  0.00  0.00     0.143 C 
HETATM    3  C   UNK N   1      26.918  29.051  -2.929  0.00  0.00     0.060 C 
ENDROOT
BRANCH   2   4
HETATM    4  C   UNK N   1      25.777  27.330  -4.067  0.00  0.00     0.128 C 
BRANCH   4   5
HETATM    5  N   UNK N   1      26.978  26.638  -3.635  0.00  0.00    -0.416 N 
HETATM    6  H   UNK N   1      27.571  26.926  -2.856  0.00  0.00     0.153 HD
BRANCH   5   7
HETATM    7  C   UNK N   1      27.210  25.479  -4.473  0.00  0.00     0.076 C 
HETATM    8  C   UNK N   1      28.516  24.765  -4.107  0.00  0.00     0.032 C 
BRANCH   7   9
HETATM    9  C   UNK N   1      25.977  24.575  -4.616  0.00  0.00     0.062 C 
BRANCH   9  10
HETATM   10  C   UNK N   1      25.837  24.183  -6.039  0.00  0.00    -0.056 A 
HETATM   11  C   UNK N   1      25.682  22.830  -6.352  0.00  0.00     0.007 A 
HETATM   12  C   UNK N   1      25.553  22.414  -7.665  0.00  0.00     0.001 A 
HETATM   13  C   UNK N   1      25.552  23.362  -8.687  0.00  0.00     0.000 A 
HETATM   14  C   UNK N   1      25.703  24.722  -8.388  0.00  0.00     0.001 A 
HETATM   15  C   UNK N   1      25.857  25.138  -7.060  0.00  0.00     0.007 A 
ENDBRANCH   9  10
ENDBRANCH   7   9
ENDBRANCH   5   7
ENDBRANCH   4   5
ENDBRANCH   2   4
TORSDOF 5
ENDMDL
MODEL 7
REMARK VINA RESULT:      -4.2      3.631      5.134
REMARK  5 active torsions:
REMARK  status: ('A' for Active; 'I' for Inactive)
REMARK    1  A    between atoms: N_1  and  C_3 
REMARK    2  A    between atoms: N_1  and  C_7 
REMARK    3  A    between atoms: C_3  and  C_4 
REMARK    4  A    between atoms: C_4  and  C_5 
REMARK    5  A    between atoms: C_7  and  C_10 
ROOT
HETATM    1  N   UNK N   1      28.616  27.687  -7.838  0.00  0.00    -0.197 NA
HETATM    2  C   UNK N   1      28.216  29.701  -6.230  0.00  0.00     0.143 C 
HETATM    3  C   UNK N   1      28.441  28.594  -7.143  0.00  0.00     0.060 C 
ENDROOT
BRANCH   2   4
HETATM    4  C   UNK N   1      28.044  29.092  -4.873  0.00  0.00     0.128 C 
BRANCH   4   5
HETATM    5  N   UNK N   1      27.685  27.696  -5.047  0.00  0.00    -0.416 N 
HETATM    6  H   UNK N   1      28.285  26.985  -5.466  0.00  0.00     0.153 HD
BRANCH   5   7
HETATM    7  C   UNK N   1      26.348  27.462  -4.540  0.00  0.00     0.076 C 
HETATM    8  C   UNK N   1      25.949  28.499  -3.485  0.00  0.00     0.032 C 
BRANCH   7   9
HETATM    9  C   UNK N   1      25.313  27.210  -5.646  0.00  0.00     0.062 C 
BRANCH   9  10
HETATM   10  C   UNK N   1      25.537  25.857  -6.208  0.00  0.00    -0.056 A 
HETATM   11  C   UNK N   1      25.608  24.768  -5.335  0.00  0.00     0.007 A 
HETATM   12  C   UNK N   1      25.821  23.487  -5.812  0.00  0.00     0.001 A 
HETATM   13  C   UNK N   1      25.941  23.278  -7.184  0.00  0.00     0.000 A 
HETATM   14  C   UNK N   1      25.868  24.359  -8.072  0.00  0.00     0.001 A 
HETATM   15  C   UNK N   1      25.675  25.657  -7.586  0.00  0.00     0.007 A 
ENDBRANCH   9  10
ENDBRANCH   7   9
ENDBRANCH   5   7
ENDBRANCH   4   5
ENDBRANCH   2   4
TORSDOF 5
ENDMDL
MODEL 8
REMARK VINA RESULT:      -4.1      3.241      5.012
REMARK  5 active torsions:
REMARK  status: ('A' for Active; 'I' for Inactive)
REMARK    1  A    between atoms: N_1  and  C_3 
REMARK    2  A    between atoms: N_1  and  C_7 
REMARK    3  A    between atoms: C_3  and  C_4 
REMARK    4  A    between atoms: C_4  and  C_5 
REMARK    5  A    between atoms: C_7  and  C_10 
ROOT
HETATM    1  N   UNK N   1      30.031  27.034  -6.502  0.00  0.00    -0.197 NA
HETATM    2  C   UNK N   1      28.135  28.737  -7.058  0.00  0.00     0.143 C 
HETATM    3  C   UNK N   1      29.185  27.776  -6.766  0.00  0.00     0.060 C 
ENDROOT
BRANCH   2   4
HETATM    4  C   UNK N   1      28.235  29.794  -6.002  0.00  0.00     0.128 C 
BRANCH   4   5
HETATM    5  N   UNK N   1      28.582  29.149  -4.749  0.00  0.00    -0.416 N 
HETATM    6  H   UNK N   1      29.324  28.458  -4.632  0.00  0.00     0.153 HD
BRANCH   5   7
HETATM    7  C   UNK N   1      27.718  29.629  -3.689  0.00  0.00     0.076 C 
HETATM    8  C   UNK N   1      26.841  30.796  -4.153  0.00  0.00     0.032 C 
BRANCH   7   9
HETATM    9  C   UNK N   1      26.984  28.502  -2.946  0.00  0.00     0.062 C 
BRANCH   9  10
HETATM   10  C   UNK N   1      26.443  27.549  -3.944  0.00  0.00    -0.056 A 
HETATM   11  C   UNK N   1      25.321  27.919  -4.689  0.00  0.00     0.007 A 
HETATM   12  C   UNK N   1      24.777  27.060  -5.628  0.00  0.00     0.001 A 
HETATM   13  C   UNK N   1      25.372  25.821  -5.850  0.00  0.00     0.000 A 
HETATM   14  C   UNK N   1      26.501  25.437  -5.113  0.00  0.00     0.001 A 
HETATM   15  C   UNK N   1      27.036  26.298  -4.148  0.00  0.00     0.007 A 
ENDBRANCH   9  10
ENDBRANCH   7   9
ENDBRANCH   5   7
ENDBRANCH   4   5
ENDBRANCH   2   4
TORSDOF 5
ENDMDL
MODEL 9
REMARK VINA RESULT:      -4.1      2.316      5.733
REMARK  5 active torsions:
REMARK  status: ('A' for Active; 'I' for Inactive)
REMARK    1  A    between atoms: N_1  and  C_3 
REMARK    2  A    between atoms: N_1  and  C_7 
REMARK    3  A    between atoms: C_3  and  C_4 
REMARK    4  A    between atoms: C_4  and  C_5 
REMARK    5  A    between atoms: C_7  and  C_10 
ROOT
HETATM    1  N   UNK N   1      26.634  24.156  -2.983  0.00  0.00    -0.197 NA
HETATM    2  C   UNK N   1      25.619  24.896  -5.269  0.00  0.00     0.143 C 
HETATM    3  C   UNK N   1      26.171  24.499  -3.985  0.00  0.00     0.060 C 
ENDROOT
BRANCH   2   4
HETATM    4  C   UNK N   1      26.271  24.015  -6.291  0.00  0.00     0.128 C 
BRANCH   4   5
HETATM    5  N   UNK N   1      27.423  23.384  -5.673  0.00  0.00    -0.416 N 
HETATM    6  H   UNK N   1      27.694  23.490  -4.695  0.00  0.00     0.153 HD
BRANCH   5   7
HETATM    7  C   UNK N   1      28.131  22.582  -6.650  0.00  0.00     0.076 C 
HETATM    8  C   UNK N   1      27.407  22.558  -8.000  0.00  0.00     0.032 C 
BRANCH   7   9
HETATM    9  C   UNK N   1      29.636  22.886  -6.710  0.00  0.00     0.062 C 
BRANCH   9  10
HETATM   10  C   UNK N   1      30.243  22.539  -5.403  0.00  0.00    -0.056 A 
HETATM   11  C   UNK N   1      30.237  21.204  -4.991  0.00  0.00     0.007 A 
HETATM   12  C   UNK N   1      30.788  20.833  -3.777  0.00  0.00     0.001 A 
HETATM   13  C   UNK N   1      31.379  21.800  -2.968  0.00  0.00     0.000 A 
HETATM   14  C   UNK N   1      31.396  23.143  -3.370  0.00  0.00     0.001 A 
HETATM   15  C   UNK N   1      30.818  23.519  -4.587  0.00  0.00     0.007 A 
ENDBRANCH   9  10
ENDBRANCH   7   9
ENDBRANCH   5   7
ENDBRANCH   4   5
ENDBRANCH   2   4
TORSDOF 5
ENDMDL
