MODEL 1
REMARK VINA RESULT:      -6.7      0.000      0.000
REMARK  2 active torsions:
REMARK  status: ('A' for Active; 'I' for Inactive)
REMARK    1  A    between atoms: C_12  and  O_2 
REMARK    2  A    between atoms: O_3  and  C_20 
ROOT
HETATM    1  O   UNK N   1      20.688  12.930   9.486  0.00  0.00    -0.339 OA
HETATM    2  N   UNK N   1      23.901  12.298   5.572  0.00  0.00     0.089 N 
HETATM    3  C   UNK N   1      22.544  12.465   8.162  0.00  0.00     0.026 C 
HETATM    4  C   UNK N   1      24.070  12.380   8.072  0.00  0.00     0.035 C 
HETATM    5  C   UNK N   1      21.828  12.109   9.504  0.00  0.00     0.171 C 
HETATM    6  C   UNK N   1      24.464  13.059   6.712  0.00  0.00     0.232 C 
HETATM    7  C   UNK N   1      21.954  11.631   7.009  0.00  0.00     0.048 C 
HETATM    8  C   UNK N   1      22.061  13.836   8.006  0.00  0.00    -0.004 A 
HETATM    9  C   UNK N   1      24.712  13.010   9.306  0.00  0.00     0.010 C 
HETATM   10  C   UNK N   1      22.696  12.564  10.706  0.00  0.00     0.148 C 
HETATM   11  C   UNK N   1      23.988  14.547   6.597  0.00  0.00     0.075 C 
HETATM   12  C   UNK N   1      24.188  12.274  10.546  0.00  0.00     0.035 C 
HETATM   13  C   UNK N   1      22.441  12.129   5.637  0.00  0.00     0.273 C 
HETATM   14  C   UNK N   1      22.637  14.817   7.221  0.00  0.00    -0.046 A 
HETATM   15  C   UNK N   1      20.929  14.008   8.713  0.00  0.00     0.110 A 
HETATM   16  C   UNK N   1      24.528  10.988   5.431  0.00  0.00     0.310 C 
HETATM   17  C   UNK N   1      21.967  16.047   7.118  0.00  0.00     0.011 A 
HETATM   18  C   UNK N   1      20.202  15.197   8.617  0.00  0.00     0.102 A 
HETATM   19  C   UNK N   1      20.731  16.227   7.791  0.00  0.00     0.040 A 
ENDROOT
BRANCH  10  20
HETATM   20  O   UNK N   1      22.214  12.013  11.895  0.00  0.00    -0.393 OA
HETATM   21  H   UNK N   1      22.828  11.752  12.599  0.00  0.00     0.210 HD
ENDBRANCH  10  20
BRANCH  18  22
HETATM   22  O   UNK N   1      19.041  15.343   9.296  0.00  0.00    -0.353 OA
HETATM   23  C   UNK N   1      18.300  16.503   9.269  0.00  0.00     0.210 C 
ENDBRANCH  18  22
TORSDOF 2
ENDMDL
MODEL 2
REMARK VINA RESULT:      -6.6     17.434     19.725
REMARK  2 active torsions:
REMARK  status: ('A' for Active; 'I' for Inactive)
REMARK    1  A    between atoms: C_12  and  O_2 
REMARK    2  A    between atoms: O_3  and  C_20 
ROOT
HETATM    1  O   UNK N   1      26.919  24.808  -3.972  0.00  0.00    -0.339 OA
HETATM    2  N   UNK N   1      27.626  29.859  -3.814  0.00  0.00     0.089 N 
HETATM    3  C   UNK N   1      26.916  27.087  -4.439  0.00  0.00     0.026 C 
HETATM    4  C   UNK N   1      26.856  28.179  -5.510  0.00  0.00     0.035 C 
HETATM    5  C   UNK N   1      26.132  25.752  -4.652  0.00  0.00     0.171 C 
HETATM    6  C   UNK N   1      27.952  29.233  -5.117  0.00  0.00     0.232 C 
HETATM    7  C   UNK N   1      26.526  27.722  -3.091  0.00  0.00     0.048 C 
HETATM    8  C   UNK N   1      28.263  26.535  -4.292  0.00  0.00    -0.004 A 
HETATM    9  C   UNK N   1      27.027  27.572  -6.900  0.00  0.00     0.010 C 
HETATM   10  C   UNK N   1      26.148  25.361  -6.151  0.00  0.00     0.148 C 
HETATM   11  C   UNK N   1      29.395  28.629  -5.028  0.00  0.00     0.075 C 
HETATM   12  C   UNK N   1      25.919  26.532  -7.107  0.00  0.00     0.035 C 
HETATM   13  C   UNK N   1      27.455  28.890  -2.719  0.00  0.00     0.273 C 
HETATM   14  C   UNK N   1      29.447  27.227  -4.462  0.00  0.00    -0.046 A 
HETATM   15  C   UNK N   1      28.193  25.245  -3.920  0.00  0.00     0.110 A 
HETATM   16  C   UNK N   1      26.437  30.701  -3.898  0.00  0.00     0.310 C 
HETATM   17  C   UNK N   1      30.644  26.550  -4.176  0.00  0.00     0.011 A 
HETATM   18  C   UNK N   1      29.348  24.535  -3.586  0.00  0.00     0.102 A 
HETATM   19  C   UNK N   1      30.595  25.212  -3.706  0.00  0.00     0.040 A 
ENDROOT
BRANCH  10  20
HETATM   20  O   UNK N   1      25.230  24.339  -6.401  0.00  0.00    -0.393 OA
HETATM   21  H   UNK N   1      24.827  24.244  -7.278  0.00  0.00     0.210 HD
ENDBRANCH  10  20
BRANCH  18  22
HETATM   22  O   UNK N   1      29.264  23.251  -3.168  0.00  0.00    -0.353 OA
HETATM   23  C   UNK N   1      29.527  22.868  -1.872  0.00  0.00     0.210 C 
ENDBRANCH  18  22
TORSDOF 2
ENDMDL
MODEL 3
REMARK VINA RESULT:      -6.6      8.783     10.557
REMARK  2 active torsions:
REMARK  status: ('A' for Active; 'I' for Inactive)
REMARK    1  A    between atoms: C_12  and  O_2 
REMARK    2  A    between atoms: O_3  and  C_20 
ROOT
HETATM    1  O   UNK N   1      29.525  16.298   6.017  0.00  0.00    -0.339 OA
HETATM    2  N   UNK N   1      33.992  15.776   8.428  0.00  0.00     0.089 N 
HETATM    3  C   UNK N   1      31.282  16.437   7.536  0.00  0.00     0.026 C 
HETATM    4  C   UNK N   1      31.981  17.261   8.621  0.00  0.00     0.035 C 
HETATM    5  C   UNK N   1      29.729  16.511   7.391  0.00  0.00     0.171 C 
HETATM    6  C   UNK N   1      33.518  17.175   8.310  0.00  0.00     0.232 C 
HETATM    7  C   UNK N   1      31.733  14.972   7.689  0.00  0.00     0.048 C 
HETATM    8  C   UNK N   1      31.654  16.874   6.191  0.00  0.00    -0.004 A 
HETATM    9  C   UNK N   1      31.418  18.680   8.657  0.00  0.00     0.010 C 
HETATM   10  C   UNK N   1      29.233  17.944   7.707  0.00  0.00     0.148 C 
HETATM   11  C   UNK N   1      33.897  17.707   6.885  0.00  0.00     0.075 C 
HETATM   12  C   UNK N   1      29.910  18.589   8.916  0.00  0.00     0.035 C 
HETATM   13  C   UNK N   1      33.260  14.829   7.573  0.00  0.00     0.273 C 
HETATM   14  C   UNK N   1      32.881  17.383   5.811  0.00  0.00    -0.046 A 
HETATM   15  C   UNK N   1      30.631  16.669   5.342  0.00  0.00     0.110 A 
HETATM   16  C   UNK N   1      33.953  15.304   9.808  0.00  0.00     0.310 C 
HETATM   17  C   UNK N   1      33.083  17.652   4.447  0.00  0.00     0.011 A 
HETATM   18  C   UNK N   1      30.788  16.882   3.970  0.00  0.00     0.102 A 
HETATM   19  C   UNK N   1      32.047  17.371   3.520  0.00  0.00     0.040 A 
ENDROOT
BRANCH  10  20
HETATM   20  O   UNK N   1      27.845  17.962   7.856  0.00  0.00    -0.393 OA
HETATM   21  H   UNK N   1      27.271  18.120   7.090  0.00  0.00     0.210 HD
ENDBRANCH  10  20
BRANCH  18  22
HETATM   22  O   UNK N   1      29.767  16.629   3.119  0.00  0.00    -0.353 OA
HETATM   23  C   UNK N   1      29.511  15.376   2.611  0.00  0.00     0.210 C 
ENDBRANCH  18  22
TORSDOF 2
ENDMDL
MODEL 4
REMARK VINA RESULT:      -6.6      9.186     11.369
REMARK  2 active torsions:
REMARK  status: ('A' for Active; 'I' for Inactive)
REMARK    1  A    between atoms: C_12  and  O_2 
REMARK    2  A    between atoms: O_3  and  C_20 
ROOT
HETATM    1  O   UNK N   1      32.947  17.350   9.070  0.00  0.00    -0.339 OA
HETATM    2  N   UNK N   1      32.690  15.988   4.158  0.00  0.00     0.089 N 
HETATM    3  C   UNK N   1      32.256  16.986   6.878  0.00  0.00     0.026 C 
HETATM    4  C   UNK N   1      31.083  16.765   5.920  0.00  0.00     0.035 C 
HETATM    5  C   UNK N   1      32.074  17.912   8.123  0.00  0.00     0.171 C 
HETATM    6  C   UNK N   1      31.513  15.593   4.968  0.00  0.00     0.232 C 
HETATM    7  C   UNK N   1      33.468  17.448   6.046  0.00  0.00     0.048 C 
HETATM    8  C   UNK N   1      32.640  15.755   7.568  0.00  0.00    -0.004 A 
HETATM    9  C   UNK N   1      29.798  16.510   6.703  0.00  0.00     0.010 C 
HETATM   10  C   UNK N   1      30.638  17.766   8.687  0.00  0.00     0.148 C 
HETATM   11  C   UNK N   1      31.859  14.267   5.729  0.00  0.00     0.075 C 
HETATM   12  C   UNK N   1      29.547  17.715   7.617  0.00  0.00     0.035 C 
HETATM   13  C   UNK N   1      33.843  16.421   4.963  0.00  0.00     0.273 C 
HETATM   14  C   UNK N   1      32.565  14.476   7.050  0.00  0.00    -0.046 A 
HETATM   15  C   UNK N   1      33.128  16.044   8.787  0.00  0.00     0.110 A 
HETATM   16  C   UNK N   1      32.359  17.033   3.194  0.00  0.00     0.310 C 
HETATM   17  C   UNK N   1      33.079  13.426   7.829  0.00  0.00     0.011 A 
HETATM   18  C   UNK N   1      33.686  15.045   9.588  0.00  0.00     0.102 A 
HETATM   19  C   UNK N   1      33.669  13.713   9.086  0.00  0.00     0.040 A 
ENDROOT
BRANCH  10  20
HETATM   20  O   UNK N   1      30.370  18.777   9.612  0.00  0.00    -0.393 OA
HETATM   21  H   UNK N   1      30.623  18.670  10.543  0.00  0.00     0.210 HD
ENDBRANCH  10  20
BRANCH  18  22
HETATM   22  O   UNK N   1      34.216  15.354  10.794  0.00  0.00    -0.353 OA
HETATM   23  C   UNK N   1      35.451  15.944  10.939  0.00  0.00     0.210 C 
ENDBRANCH  18  22
TORSDOF 2
ENDMDL
MODEL 5
REMARK VINA RESULT:      -6.5      9.962     12.146
REMARK  2 active torsions:
REMARK  status: ('A' for Active; 'I' for Inactive)
REMARK    1  A    between atoms: C_12  and  O_2 
REMARK    2  A    between atoms: O_3  and  C_20 
ROOT
HETATM    1  O   UNK N   1      34.632  17.190   5.992  0.00  0.00    -0.339 OA
HETATM    2  N   UNK N   1      29.958  16.180   4.212  0.00  0.00     0.089 N 
HETATM    3  C   UNK N   1      32.329  17.021   5.712  0.00  0.00     0.026 C 
HETATM    4  C   UNK N   1      30.955  16.943   6.383  0.00  0.00     0.035 C 
HETATM    5  C   UNK N   1      33.462  17.871   6.370  0.00  0.00     0.171 C 
HETATM    6  C   UNK N   1      30.168  15.811   5.632  0.00  0.00     0.232 C 
HETATM    7  C   UNK N   1      32.118  17.456   4.250  0.00  0.00     0.048 C 
HETATM    8  C   UNK N   1      33.004  15.723   5.693  0.00  0.00    -0.004 A 
HETATM    9  C   UNK N   1      31.108  16.721   7.886  0.00  0.00     0.010 C 
HETATM   10  C   UNK N   1      33.365  17.784   7.914  0.00  0.00     0.148 C 
HETATM   11  C   UNK N   1      30.883  14.417   5.680  0.00  0.00     0.075 C 
HETATM   12  C   UNK N   1      31.939  17.876   8.457  0.00  0.00     0.035 C 
HETATM   13  C   UNK N   1      31.203  16.481   3.489  0.00  0.00     0.273 C 
HETATM   14  C   UNK N   1      32.391  14.490   5.586  0.00  0.00    -0.046 A 
HETATM   15  C   UNK N   1      34.336  15.898   5.752  0.00  0.00     0.110 A 
HETATM   16  C   UNK N   1      29.040  17.306   4.075  0.00  0.00     0.310 C 
HETATM   17  C   UNK N   1      33.217  13.358   5.479  0.00  0.00     0.011 A 
HETATM   18  C   UNK N   1      35.205  14.813   5.613  0.00  0.00     0.102 A 
HETATM   19  C   UNK N   1      34.625  13.521   5.461  0.00  0.00     0.040 A 
ENDROOT
BRANCH  10  20
HETATM   20  O   UNK N   1      34.181  18.745   8.512  0.00  0.00    -0.393 OA
HETATM   21  H   UNK N   1      33.845  19.640   8.678  0.00  0.00     0.210 HD
ENDBRANCH  10  20
BRANCH  18  22
HETATM   22  O   UNK N   1      36.544  15.004   5.627  0.00  0.00    -0.353 OA
HETATM   23  C   UNK N   1      37.428  14.060   6.100  0.00  0.00     0.210 C 
ENDBRANCH  18  22
TORSDOF 2
ENDMDL
MODEL 6
REMARK VINA RESULT:      -6.4      8.582      9.997
REMARK  2 active torsions:
REMARK  status: ('A' for Active; 'I' for Inactive)
REMARK    1  A    between atoms: C_12  and  O_2 
REMARK    2  A    between atoms: O_3  and  C_20 
ROOT
HETATM    1  O   UNK N   1      30.861  16.115   8.122  0.00  0.00    -0.339 OA
HETATM    2  N   UNK N   1      32.400  14.914   3.407  0.00  0.00     0.089 N 
HETATM    3  C   UNK N   1      32.111  15.790   6.187  0.00  0.00     0.026 C 
HETATM    4  C   UNK N   1      33.302  16.240   5.336  0.00  0.00     0.035 C 
HETATM    5  C   UNK N   1      32.194  15.887   7.744  0.00  0.00     0.171 C 
HETATM    6  C   UNK N   1      32.787  16.274   3.852  0.00  0.00     0.232 C 
HETATM    7  C   UNK N   1      31.738  14.357   5.763  0.00  0.00     0.048 C 
HETATM    8  C   UNK N   1      30.935  16.633   5.973  0.00  0.00    -0.004 A 
HETATM    9  C   UNK N   1      33.852  17.568   5.849  0.00  0.00     0.010 C 
HETATM   10  C   UNK N   1      33.004  17.143   8.156  0.00  0.00     0.148 C 
HETATM   11  C   UNK N   1      31.566  17.232   3.638  0.00  0.00     0.075 C 
HETATM   12  C   UNK N   1      34.258  17.382   7.315  0.00  0.00     0.035 C 
HETATM   13  C   UNK N   1      31.391  14.276   4.267  0.00  0.00     0.273 C 
HETATM   14  C   UNK N   1      30.582  17.250   4.788  0.00  0.00    -0.046 A 
HETATM   15  C   UNK N   1      30.201  16.693   7.098  0.00  0.00     0.110 A 
HETATM   16  C   UNK N   1      33.556  14.032   3.289  0.00  0.00     0.310 C 
HETATM   17  C   UNK N   1      29.357  17.937   4.749  0.00  0.00     0.011 A 
HETATM   18  C   UNK N   1      28.958  17.329   7.106  0.00  0.00     0.102 A 
HETATM   19  C   UNK N   1      28.528  17.950   5.899  0.00  0.00     0.040 A 
ENDROOT
BRANCH  10  20
HETATM   20  O   UNK N   1      33.325  17.096   9.514  0.00  0.00    -0.393 OA
HETATM   21  H   UNK N   1      34.216  17.333   9.816  0.00  0.00     0.210 HD
ENDBRANCH  10  20
BRANCH  18  22
HETATM   22  O   UNK N   1      28.207  17.345   8.231  0.00  0.00    -0.353 OA
HETATM   23  C   UNK N   1      28.362  18.291   9.220  0.00  0.00     0.210 C 
ENDBRANCH  18  22
TORSDOF 2
ENDMDL
MODEL 7
REMARK VINA RESULT:      -6.4      8.096      9.729
REMARK  2 active torsions:
REMARK  status: ('A' for Active; 'I' for Inactive)
REMARK    1  A    between atoms: C_12  and  O_2 
REMARK    2  A    between atoms: O_3  and  C_20 
ROOT
HETATM    1  O   UNK N   1      31.665  16.721   7.567  0.00  0.00    -0.339 OA
HETATM    2  N   UNK N   1      29.571  14.573   3.439  0.00  0.00     0.089 N 
HETATM    3  C   UNK N   1      31.237  15.953   5.412  0.00  0.00     0.026 C 
HETATM    4  C   UNK N   1      31.467  16.144   3.911  0.00  0.00     0.035 C 
HETATM    5  C   UNK N   1      32.372  16.321   6.421  0.00  0.00     0.171 C 
HETATM    6  C   UNK N   1      30.066  15.954   3.229  0.00  0.00     0.232 C 
HETATM    7  C   UNK N   1      30.773  14.503   5.641  0.00  0.00     0.048 C 
HETATM    8  C   UNK N   1      30.189  16.837   5.923  0.00  0.00    -0.004 A 
HETATM    9  C   UNK N   1      32.128  17.493   3.641  0.00  0.00     0.010 C 
HETATM   10  C   UNK N   1      33.153  17.559   5.913  0.00  0.00     0.148 C 
HETATM   11  C   UNK N   1      28.977  16.954   3.749  0.00  0.00     0.075 C 
HETATM   12  C   UNK N   1      33.451  17.541   4.414  0.00  0.00     0.035 C 
HETATM   13  C   UNK N   1      29.489  14.183   4.855  0.00  0.00     0.273 C 
HETATM   14  C   UNK N   1      29.072  17.258   5.229  0.00  0.00    -0.046 A 
HETATM   15  C   UNK N   1      30.443  17.157   7.204  0.00  0.00     0.110 A 
HETATM   16  C   UNK N   1      30.376  13.592   2.718  0.00  0.00     0.310 C 
HETATM   17  C   UNK N   1      28.121  18.024   5.924  0.00  0.00     0.011 A 
HETATM   18  C   UNK N   1      29.515  17.884   7.955  0.00  0.00     0.102 A 
HETATM   19  C   UNK N   1      28.327  18.311   7.298  0.00  0.00     0.040 A 
ENDROOT
BRANCH  10  20
HETATM   20  O   UNK N   1      34.330  17.731   6.645  0.00  0.00    -0.393 OA
HETATM   21  H   UNK N   1      34.566  18.603   6.999  0.00  0.00     0.210 HD
ENDBRANCH  10  20
BRANCH  18  22
HETATM   22  O   UNK N   1      29.758  18.162   9.256  0.00  0.00    -0.353 OA
HETATM   23  C   UNK N   1      29.249  17.408  10.290  0.00  0.00     0.210 C 
ENDBRANCH  18  22
TORSDOF 2
ENDMDL
MODEL 8
REMARK VINA RESULT:      -6.2     12.873     14.362
REMARK  2 active torsions:
REMARK  status: ('A' for Active; 'I' for Inactive)
REMARK    1  A    between atoms: C_12  and  O_2 
REMARK    2  A    between atoms: O_3  and  C_20 
ROOT
HETATM    1  O   UNK N   1      35.732  14.049  13.465  0.00  0.00    -0.339 OA
HETATM    2  N   UNK N   1      37.120  10.238  10.369  0.00  0.00     0.089 N 
HETATM    3  C   UNK N   1      36.175  12.717  11.610  0.00  0.00     0.026 C 
HETATM    4  C   UNK N   1      35.822  12.373  10.160  0.00  0.00     0.035 C 
HETATM    5  C   UNK N   1      36.055  14.193  12.105  0.00  0.00     0.171 C 
HETATM    6  C   UNK N   1      35.781  10.805  10.083  0.00  0.00     0.232 C 
HETATM    7  C   UNK N   1      37.588  12.174  11.895  0.00  0.00     0.048 C 
HETATM    8  C   UNK N   1      35.261  12.086  12.562  0.00  0.00    -0.004 A 
HETATM    9  C   UNK N   1      34.523  13.064   9.751  0.00  0.00     0.010 C 
HETATM   10  C   UNK N   1      34.848  14.886  11.423  0.00  0.00     0.148 C 
HETATM   11  C   UNK N   1      34.749  10.158  11.068  0.00  0.00     0.075 C 
HETATM   12  C   UNK N   1      34.707  14.575   9.933  0.00  0.00     0.035 C 
HETATM   13  C   UNK N   1      37.674  10.655  11.666  0.00  0.00     0.273 C 
HETATM   14  C   UNK N   1      34.644  10.859  12.405  0.00  0.00    -0.046 A 
HETATM   15  C   UNK N   1      35.131  12.858  13.655  0.00  0.00     0.110 A 
HETATM   16  C   UNK N   1      38.079  10.552   9.315  0.00  0.00     0.310 C 
HETATM   17  C   UNK N   1      33.879  10.372  13.478  0.00  0.00     0.011 A 
HETATM   18  C   UNK N   1      34.414  12.407  14.766  0.00  0.00     0.102 A 
HETATM   19  C   UNK N   1      33.789  11.131  14.672  0.00  0.00     0.040 A 
ENDROOT
BRANCH  10  20
HETATM   20  O   UNK N   1      34.890  16.265  11.634  0.00  0.00    -0.393 OA
HETATM   21  H   UNK N   1      35.591  16.658  12.177  0.00  0.00     0.210 HD
ENDBRANCH  10  20
BRANCH  18  22
HETATM   22  O   UNK N   1      34.327  13.171  15.878  0.00  0.00    -0.353 OA
HETATM   23  C   UNK N   1      35.187  13.038  16.946  0.00  0.00     0.210 C 
ENDBRANCH  18  22
TORSDOF 2
ENDMDL
MODEL 9
REMARK VINA RESULT:      -6.1     16.381     18.411
REMARK  2 active torsions:
REMARK  status: ('A' for Active; 'I' for Inactive)
REMARK    1  A    between atoms: C_12  and  O_2 
REMARK    2  A    between atoms: O_3  and  C_20 
ROOT
HETATM    1  O   UNK N   1      29.907  22.717  -5.897  0.00  0.00    -0.339 OA
HETATM    2  N   UNK N   1      26.992  26.722  -4.673  0.00  0.00     0.089 N 
HETATM    3  C   UNK N   1      28.734  24.369  -4.754  0.00  0.00     0.026 C 
HETATM    4  C   UNK N   1      28.014  24.776  -3.466  0.00  0.00     0.035 C 
HETATM    5  C   UNK N   1      29.970  23.417  -4.681  0.00  0.00     0.171 C 
HETATM    6  C   UNK N   1      26.688  25.486  -3.914  0.00  0.00     0.232 C 
HETATM    7  C   UNK N   1      29.099  25.655  -5.520  0.00  0.00     0.048 C 
HETATM    8  C   UNK N   1      27.882  23.564  -5.628  0.00  0.00    -0.004 A 
HETATM    9  C   UNK N   1      27.813  23.562  -2.562  0.00  0.00     0.010 C 
HETATM   10  C   UNK N   1      29.773  22.377  -3.548  0.00  0.00     0.148 C 
HETATM   11  C   UNK N   1      25.763  24.579  -4.798  0.00  0.00     0.075 C 
HETATM   12  C   UNK N   1      29.188  22.957  -2.261  0.00  0.00     0.035 C 
HETATM   13  C   UNK N   1      27.856  26.500  -5.843  0.00  0.00     0.273 C 
HETATM   14  C   UNK N   1      26.511  23.680  -5.758  0.00  0.00    -0.046 A 
HETATM   15  C   UNK N   1      28.633  22.702  -6.336  0.00  0.00     0.110 A 
HETATM   16  C   UNK N   1      27.591  27.747  -3.823  0.00  0.00     0.310 C 
HETATM   17  C   UNK N   1      25.878  22.885  -6.727  0.00  0.00     0.011 A 
HETATM   18  C   UNK N   1      28.062  21.915  -7.339  0.00  0.00     0.102 A 
HETATM   19  C   UNK N   1      26.657  22.024  -7.542  0.00  0.00     0.040 A 
ENDROOT
BRANCH  10  20
HETATM   20  O   UNK N   1      30.968  21.705  -3.285  0.00  0.00    -0.393 OA
HETATM   21  H   UNK N   1      31.522  21.966  -2.533  0.00  0.00     0.210 HD
ENDBRANCH  10  20
BRANCH  18  22
HETATM   22  O   UNK N   1      28.834  21.085  -8.078  0.00  0.00    -0.353 OA
HETATM   23  C   UNK N   1      28.949  19.739  -7.813  0.00  0.00     0.210 C 
ENDBRANCH  18  22
TORSDOF 2
ENDMDL
