REMARK  2 active torsions:
REMARK  status: ('A' for Active; 'I' for Inactive)
REMARK    1  A    between atoms: C_12  and  O_2 
REMARK    2  A    between atoms: O_3  and  C_20 
ROOT
HETATM    1  O   UNK N   1       1.021  -0.174  -0.828  0.00  0.00    -0.339 OA
HETATM    2  N   UNK N   1       6.048  -1.050  -0.787  0.00  0.00     0.089 N 
HETATM    3  C   UNK N   1       3.137  -1.072  -0.467  0.00  0.00     0.026 C 
HETATM    4  C   UNK N   1       4.039  -1.911   0.442  0.00  0.00     0.035 C 
HETATM    5  C   UNK N   1       1.619  -1.422  -0.585  0.00  0.00     0.171 C 
HETATM    6  C   UNK N   1       5.399  -1.133   0.543  0.00  0.00     0.232 C 
HETATM    7  C   UNK N   1       3.782  -1.027  -1.865  0.00  0.00     0.048 C 
HETATM    8  C   UNK N   1       3.013   0.307   0.005  0.00  0.00    -0.004 A 
HETATM    9  C   UNK N   1       3.353  -2.169   1.781  0.00  0.00     0.010 C 
HETATM   10  C   UNK N   1       1.082  -1.925   0.779  0.00  0.00     0.148 C 
HETATM   11  C   UNK N   1       5.246   0.320   1.110  0.00  0.00     0.075 C 
HETATM   12  C   UNK N   1       2.024  -2.883   1.508  0.00  0.00     0.035 C 
HETATM   13  C   UNK N   1       5.201  -0.435  -1.821  0.00  0.00     0.273 C 
HETATM   14  C   UNK N   1       3.990   1.033   0.659  0.00  0.00    -0.046 A 
HETATM   15  C   UNK N   1       1.807   0.800  -0.328  0.00  0.00     0.110 A 
HETATM   16  C   UNK N   1       6.500  -2.357  -1.253  0.00  0.00     0.310 C 
HETATM   17  C   UNK N   1       3.720   2.382   0.943  0.00  0.00     0.011 A 
HETATM   18  C   UNK N   1       1.499   2.144  -0.104  0.00  0.00     0.102 A 
HETATM   19  C   UNK N   1       2.486   2.948   0.533  0.00  0.00     0.040 A 
ENDROOT
BRANCH  10  20
HETATM   20  O   UNK N   1      -0.181  -2.500   0.627  0.00  0.00    -0.393 OA
HETATM   21  H   UNK N   1      -0.966  -1.940   0.521  0.00  0.00     0.210 HD
ENDBRANCH  10  20
BRANCH  18  22
HETATM   22  O   UNK N   1       0.300   2.642  -0.484  0.00  0.00    -0.353 OA
HETATM   23  C   UNK N   1      -0.023   3.976  -0.376  0.00  0.00     0.210 C 
ENDBRANCH  18  22
TORSDOF 2
