MODEL 1
REMARK VINA RESULT:      -7.1      0.000      0.000
REMARK  1 active torsions:
REMARK  status: ('A' for Active; 'I' for Inactive)
REMARK    1  A    between atoms: C_7  and  C_12 
ROOT
HETATM    1 Cl   UNK N   1      27.589  17.168   6.545  0.00  0.00    -0.084 Cl
HETATM    2  O   UNK N   1      32.462  14.487   7.898  0.00  0.00    -0.343 OA
HETATM    3  O   UNK N   1      35.142  17.935   9.247  0.00  0.00    -0.271 OA
HETATM    4  N   UNK N   1      33.951  15.976   6.873  0.00  0.00     0.144 N 
HETATM    5  N   UNK N   1      32.929  17.799   9.153  0.00  0.00    -0.325 N 
HETATM    6  C   UNK N   1      32.541  15.549   6.970  0.00  0.00     0.322 C 
HETATM    7  C   UNK N   1      34.723  15.069   7.694  0.00  0.00     0.304 C 
HETATM    8  C   UNK N   1      31.506  16.613   7.441  0.00  0.00     0.041 A 
HETATM    9  C   UNK N   1      33.761  13.996   8.092  0.00  0.00     0.202 C 
HETATM   10  C   UNK N   1      34.290  17.370   7.138  0.00  0.00     0.380 C 
HETATM   11  C   UNK N   1      31.701  17.583   8.480  0.00  0.00     0.046 A 
HETATM   12  C   UNK N   1      34.147  17.702   8.585  0.00  0.00     0.250 C 
HETATM   13  C   UNK N   1      30.208  16.516   6.886  0.00  0.00     0.038 A 
HETATM   14  C   UNK N   1      30.627  18.393   8.875  0.00  0.00     0.032 A 
HETATM   15  C   UNK N   1      29.165  17.340   7.285  0.00  0.00     0.034 A 
HETATM   16  C   UNK N   1      29.372  18.282   8.281  0.00  0.00     0.026 A 
HETATM   17  H   UNK N   1      32.889  18.038  10.107  0.00  0.00     0.169 HD
ENDROOT
BRANCH   6  18
HETATM   18  C   UNK N   1      32.157  15.112   5.539  0.00  0.00     0.034 A 
HETATM   19  C   UNK N   1      32.184  15.939   4.376  0.00  0.00     0.045 A 
HETATM   20 Cl   UNK N   1      32.623  17.641   4.378  0.00  0.00    -0.084 Cl
HETATM   21  C   UNK N   1      31.855  15.388   3.131  0.00  0.00     0.024 A 
HETATM   22  C   UNK N   1      31.504  14.045   3.008  0.00  0.00     0.002 A 
HETATM   23  C   UNK N   1      31.463  13.232   4.135  0.00  0.00     0.001 A 
HETATM   24  C   UNK N   1      31.783  13.761   5.383  0.00  0.00     0.014 A 
ENDBRANCH   6  18
TORSDOF 1
ENDMDL
MODEL 2
REMARK VINA RESULT:      -6.9     12.849     14.882
REMARK  1 active torsions:
REMARK  status: ('A' for Active; 'I' for Inactive)
REMARK    1  A    between atoms: C_7  and  C_12 
ROOT
HETATM    1 Cl   UNK N   1      27.677  20.938  -8.963  0.00  0.00    -0.084 Cl
HETATM    2  O   UNK N   1      30.546  24.593  -5.620  0.00  0.00    -0.343 OA
HETATM    3  O   UNK N   1      31.913  21.914  -2.178  0.00  0.00    -0.271 OA
HETATM    4  N   UNK N   1      29.673  23.906  -3.559  0.00  0.00     0.144 N 
HETATM    5  N   UNK N   1      31.327  21.386  -4.252  0.00  0.00    -0.325 N 
HETATM    6  C   UNK N   1      29.505  23.848  -5.024  0.00  0.00     0.322 C 
HETATM    7  C   UNK N   1      30.787  24.792  -3.298  0.00  0.00     0.304 C 
HETATM    8  C   UNK N   1      29.543  22.440  -5.690  0.00  0.00     0.041 A 
HETATM    9  C   UNK N   1      31.116  25.399  -4.623  0.00  0.00     0.202 C 
HETATM   10  C   UNK N   1      29.783  22.660  -2.807  0.00  0.00     0.380 C 
HETATM   11  C   UNK N   1      30.429  21.365  -5.348  0.00  0.00     0.046 A 
HETATM   12  C   UNK N   1      31.083  21.978  -3.066  0.00  0.00     0.250 C 
HETATM   13  C   UNK N   1      28.723  22.262  -6.829  0.00  0.00     0.038 A 
HETATM   14  C   UNK N   1      30.426  20.198  -6.125  0.00  0.00     0.032 A 
HETATM   15  C   UNK N   1      28.728  21.089  -7.573  0.00  0.00     0.034 A 
HETATM   16  C   UNK N   1      29.581  20.054  -7.222  0.00  0.00     0.026 A 
HETATM   17  H   UNK N   1      32.195  20.934  -4.366  0.00  0.00     0.169 HD
ENDROOT
BRANCH   6  18
HETATM   18  C   UNK N   1      28.113  24.463  -5.290  0.00  0.00     0.034 A 
HETATM   19  C   UNK N   1      27.750  25.257  -6.419  0.00  0.00     0.045 A 
HETATM   20 Cl   UNK N   1      28.857  25.719  -7.703  0.00  0.00    -0.084 Cl
HETATM   21  C   UNK N   1      26.430  25.706  -6.550  0.00  0.00     0.024 A 
HETATM   22  C   UNK N   1      25.463  25.389  -5.598  0.00  0.00     0.002 A 
HETATM   23  C   UNK N   1      25.807  24.625  -4.488  0.00  0.00     0.001 A 
HETATM   24  C   UNK N   1      27.114  24.172  -4.336  0.00  0.00     0.014 A 
ENDBRANCH   6  18
TORSDOF 1
ENDMDL
MODEL 3
REMARK VINA RESULT:      -6.8     14.154     16.029
REMARK  1 active torsions:
REMARK  status: ('A' for Active; 'I' for Inactive)
REMARK    1  A    between atoms: C_7  and  C_12 
ROOT
HETATM    1 Cl   UNK N   1      30.764  20.435  -5.948  0.00  0.00    -0.084 Cl
HETATM    2  O   UNK N   1      27.821  25.188  -7.179  0.00  0.00    -0.343 OA
HETATM    3  O   UNK N   1      26.230  26.450  -3.084  0.00  0.00    -0.271 OA
HETATM    4  N   UNK N   1      25.919  24.739  -5.889  0.00  0.00     0.144 N 
HETATM    5  N   UNK N   1      27.964  25.169  -3.609  0.00  0.00    -0.325 N 
HETATM    6  C   UNK N   1      27.140  24.162  -6.487  0.00  0.00     0.322 C 
HETATM    7  C   UNK N   1      25.844  26.115  -6.331  0.00  0.00     0.304 C 
HETATM    8  C   UNK N   1      28.179  23.530  -5.515  0.00  0.00     0.041 A 
HETATM    9  C   UNK N   1      26.924  26.251  -7.355  0.00  0.00     0.202 C 
HETATM   10  C   UNK N   1      25.709  24.619  -4.451  0.00  0.00     0.380 C 
HETATM   11  C   UNK N   1      28.570  24.052  -4.237  0.00  0.00     0.046 A 
HETATM   12  C   UNK N   1      26.655  25.480  -3.686  0.00  0.00     0.250 C 
HETATM   13  C   UNK N   1      28.902  22.418  -6.005  0.00  0.00     0.038 A 
HETATM   14  C   UNK N   1      29.612  23.434  -3.532  0.00  0.00     0.032 A 
HETATM   15  C   UNK N   1      29.922  21.815  -5.280  0.00  0.00     0.034 A 
HETATM   16  C   UNK N   1      30.279  22.323  -4.040  0.00  0.00     0.026 A 
HETATM   17  H   UNK N   1      28.543  25.761  -3.077  0.00  0.00     0.169 HD
ENDROOT
BRANCH   6  18
HETATM   18  C   UNK N   1      26.633  23.050  -7.432  0.00  0.00     0.034 A 
HETATM   19  C   UNK N   1      27.203  22.699  -8.693  0.00  0.00     0.045 A 
HETATM   20 Cl   UNK N   1      28.578  23.515  -9.422  0.00  0.00    -0.084 Cl
HETATM   21  C   UNK N   1      26.664  21.629  -9.419  0.00  0.00     0.024 A 
HETATM   22  C   UNK N   1      25.581  20.901  -8.931  0.00  0.00     0.002 A 
HETATM   23  C   UNK N   1      25.009  21.241  -7.709  0.00  0.00     0.001 A 
HETATM   24  C   UNK N   1      25.528  22.303  -6.973  0.00  0.00     0.014 A 
ENDBRANCH   6  18
TORSDOF 1
ENDMDL
MODEL 4
REMARK VINA RESULT:      -6.7      9.720     11.665
REMARK  1 active torsions:
REMARK  status: ('A' for Active; 'I' for Inactive)
REMARK    1  A    between atoms: C_7  and  C_12 
ROOT
HETATM    1 Cl   UNK N   1      22.608   9.061   6.232  0.00  0.00    -0.084 Cl
HETATM    2  O   UNK N   1      20.174  13.562   8.798  0.00  0.00    -0.343 OA
HETATM    3  O   UNK N   1      20.622  16.850   5.654  0.00  0.00    -0.271 OA
HETATM    4  N   UNK N   1      21.786  15.167   8.244  0.00  0.00     0.144 N 
HETATM    5  N   UNK N   1      20.630  14.642   5.423  0.00  0.00    -0.325 N 
HETATM    6  C   UNK N   1      21.493  13.722   8.319  0.00  0.00     0.322 C 
HETATM    7  C   UNK N   1      20.638  15.859   8.788  0.00  0.00     0.304 C 
HETATM    8  C   UNK N   1      21.575  12.909   6.993  0.00  0.00     0.041 A 
HETATM    9  C   UNK N   1      19.777  14.782   9.365  0.00  0.00     0.202 C 
HETATM   10  C   UNK N   1      22.211  15.740   6.971  0.00  0.00     0.380 C 
HETATM   11  C   UNK N   1      21.116  13.342   5.704  0.00  0.00     0.046 A 
HETATM   12  C   UNK N   1      21.091  15.776   5.987  0.00  0.00     0.250 C 
HETATM   13  C   UNK N   1      22.012  11.568   7.105  0.00  0.00     0.038 A 
HETATM   14  C   UNK N   1      21.145  12.444   4.627  0.00  0.00     0.032 A 
HETATM   15  C   UNK N   1      22.044  10.703   6.019  0.00  0.00     0.034 A 
HETATM   16  C   UNK N   1      21.611  11.141   4.776  0.00  0.00     0.026 A 
HETATM   17  H   UNK N   1      19.901  14.724   4.767  0.00  0.00     0.169 HD
ENDROOT
BRANCH   6  18
HETATM   18  C   UNK N   1      22.547  13.152   9.293  0.00  0.00     0.034 A 
HETATM   19  C   UNK N   1      23.962  13.184   9.108  0.00  0.00     0.045 A 
HETATM   20 Cl   UNK N   1      24.762  13.851   7.693  0.00  0.00    -0.084 Cl
HETATM   21  C   UNK N   1      24.800  12.669  10.106  0.00  0.00     0.024 A 
HETATM   22  C   UNK N   1      24.275  12.127  11.278  0.00  0.00     0.002 A 
HETATM   23  C   UNK N   1      22.898  12.079  11.465  0.00  0.00     0.001 A 
HETATM   24  C   UNK N   1      22.048  12.582  10.483  0.00  0.00     0.014 A 
ENDBRANCH   6  18
TORSDOF 1
ENDMDL
MODEL 5
REMARK VINA RESULT:      -6.5      2.548      4.949
REMARK  1 active torsions:
REMARK  status: ('A' for Active; 'I' for Inactive)
REMARK    1  A    between atoms: C_7  and  C_12 
ROOT
HETATM    1 Cl   UNK N   1      37.078  13.515   3.719  0.00  0.00    -0.084 Cl
HETATM    2  O   UNK N   1      34.688  17.506   7.055  0.00  0.00    -0.343 OA
HETATM    3  O   UNK N   1      33.974  15.233  10.955  0.00  0.00    -0.271 OA
HETATM    4  N   UNK N   1      32.974  16.194   7.960  0.00  0.00     0.144 N 
HETATM    5  N   UNK N   1      35.400  14.823   9.304  0.00  0.00    -0.325 N 
HETATM    6  C   UNK N   1      33.987  16.291   6.890  0.00  0.00     0.322 C 
HETATM    7  C   UNK N   1      33.027  17.433   8.705  0.00  0.00     0.304 C 
HETATM    8  C   UNK N   1      35.067  15.172   6.828  0.00  0.00     0.041 A 
HETATM    9  C   UNK N   1      33.936  18.318   7.916  0.00  0.00     0.202 C 
HETATM   10  C   UNK N   1      32.983  15.030   8.841  0.00  0.00     0.380 C 
HETATM   11  C   UNK N   1      35.730  14.570   7.949  0.00  0.00     0.046 A 
HETATM   12  C   UNK N   1      34.154  15.052   9.764  0.00  0.00     0.250 C 
HETATM   13  C   UNK N   1      35.535  14.821   5.540  0.00  0.00     0.038 A 
HETATM   14  C   UNK N   1      36.773  13.660   7.725  0.00  0.00     0.032 A 
HETATM   15  C   UNK N   1      36.561  13.906   5.344  0.00  0.00     0.034 A 
HETATM   16  C   UNK N   1      37.182  13.323   6.438  0.00  0.00     0.026 A 
HETATM   17  H   UNK N   1      36.135  14.832   9.958  0.00  0.00     0.169 HD
ENDROOT
BRANCH   6  18
HETATM   18  C   UNK N   1      33.181  16.249   5.573  0.00  0.00     0.034 A 
HETATM   19  C   UNK N   1      32.379  15.160   5.117  0.00  0.00     0.045 A 
HETATM   20 Cl   UNK N   1      32.202  13.634   5.969  0.00  0.00    -0.084 Cl
HETATM   21  C   UNK N   1      31.662  15.287   3.921  0.00  0.00     0.024 A 
HETATM   22  C   UNK N   1      31.716  16.458   3.168  0.00  0.00     0.002 A 
HETATM   23  C   UNK N   1      32.504  17.522   3.596  0.00  0.00     0.001 A 
HETATM   24  C   UNK N   1      33.227  17.416   4.781  0.00  0.00     0.014 A 
ENDBRANCH   6  18
TORSDOF 1
ENDMDL
MODEL 6
REMARK VINA RESULT:      -6.3      4.048      5.948
REMARK  1 active torsions:
REMARK  status: ('A' for Active; 'I' for Inactive)
REMARK    1  A    between atoms: C_7  and  C_12 
ROOT
HETATM    1 Cl   UNK N   1      29.526  12.487   4.611  0.00  0.00    -0.084 Cl
HETATM    2  O   UNK N   1      28.568  17.298   7.561  0.00  0.00    -0.343 OA
HETATM    3  O   UNK N   1      25.177  19.246   5.195  0.00  0.00    -0.271 OA
HETATM    4  N   UNK N   1      28.395  18.767   5.746  0.00  0.00     0.144 N 
HETATM    5  N   UNK N   1      25.816  17.123   5.290  0.00  0.00    -0.325 N 
HETATM    6  C   UNK N   1      28.831  17.425   6.179  0.00  0.00     0.322 C 
HETATM    7  C   UNK N   1      27.958  19.471   6.932  0.00  0.00     0.304 C 
HETATM    8  C   UNK N   1      28.155  16.201   5.495  0.00  0.00     0.041 A 
HETATM    9  C   UNK N   1      28.347  18.586   8.071  0.00  0.00     0.202 C 
HETATM   10  C   UNK N   1      27.429  18.883   4.659  0.00  0.00     0.380 C 
HETATM   11  C   UNK N   1      26.765  16.079   5.159  0.00  0.00     0.046 A 
HETATM   12  C   UNK N   1      26.073  18.429   5.082  0.00  0.00     0.250 C 
HETATM   13  C   UNK N   1      28.962  15.053   5.320  0.00  0.00     0.038 A 
HETATM   14  C   UNK N   1      26.283  14.861   4.658  0.00  0.00     0.032 A 
HETATM   15  C   UNK N   1      28.463  13.862   4.809  0.00  0.00     0.034 A 
HETATM   16  C   UNK N   1      27.120  13.764   4.476  0.00  0.00     0.026 A 
HETATM   17  H   UNK N   1      24.899  16.875   5.551  0.00  0.00     0.169 HD
ENDROOT
BRANCH   6  18
HETATM   18  C   UNK N   1      30.342  17.374   5.860  0.00  0.00     0.034 A 
HETATM   19  C   UNK N   1      31.375  16.973   6.760  0.00  0.00     0.045 A 
HETATM   20 Cl   UNK N   1      31.106  16.501   8.431  0.00  0.00    -0.084 Cl
HETATM   21  C   UNK N   1      32.701  16.929   6.311  0.00  0.00     0.024 A 
HETATM   22  C   UNK N   1      33.030  17.269   5.000  0.00  0.00     0.002 A 
HETATM   23  C   UNK N   1      32.034  17.673   4.117  0.00  0.00     0.001 A 
HETATM   24  C   UNK N   1      30.710  17.727   4.544  0.00  0.00     0.014 A 
ENDBRANCH   6  18
TORSDOF 1
ENDMDL
MODEL 7
REMARK VINA RESULT:      -6.3      6.195      8.043
REMARK  1 active torsions:
REMARK  status: ('A' for Active; 'I' for Inactive)
REMARK    1  A    between atoms: C_7  and  C_12 
ROOT
HETATM    1 Cl   UNK N   1      37.028  10.628  15.480  0.00  0.00    -0.084 Cl
HETATM    2  O   UNK N   1      37.550  13.073  10.331  0.00  0.00    -0.343 OA
HETATM    3  O   UNK N   1      35.233  16.978  10.855  0.00  0.00    -0.271 OA
HETATM    4  N   UNK N   1      35.331  13.773  10.074  0.00  0.00     0.144 N 
HETATM    5  N   UNK N   1      36.174  15.661  12.374  0.00  0.00    -0.325 N 
HETATM    6  C   UNK N   1      36.243  12.901  10.839  0.00  0.00     0.322 C 
HETATM    7  C   UNK N   1      36.117  14.392   9.029  0.00  0.00     0.304 C 
HETATM    8  C   UNK N   1      36.340  13.144  12.374  0.00  0.00     0.041 A 
HETATM    9  C   UNK N   1      37.441  13.701   9.081  0.00  0.00     0.202 C 
HETATM   10  C   UNK N   1      34.514  14.748  10.789  0.00  0.00     0.380 C 
HETATM   11  C   UNK N   1      36.365  14.420  13.030  0.00  0.00     0.046 A 
HETATM   12  C   UNK N   1      35.345  15.862  11.331  0.00  0.00     0.250 C 
HETATM   13  C   UNK N   1      36.567  12.003  13.178  0.00  0.00     0.038 A 
HETATM   14  C   UNK N   1      36.582  14.478  14.414  0.00  0.00     0.032 A 
HETATM   15  C   UNK N   1      36.765  12.086  14.550  0.00  0.00     0.034 A 
HETATM   16  C   UNK N   1      36.772  13.325  15.171  0.00  0.00     0.026 A 
HETATM   17  H   UNK N   1      36.687  16.435  12.703  0.00  0.00     0.169 HD
ENDROOT
BRANCH   6  18
HETATM   18  C   UNK N   1      35.707  11.470  10.617  0.00  0.00     0.034 A 
HETATM   19  C   UNK N   1      36.499  10.308  10.367  0.00  0.00     0.045 A 
HETATM   20 Cl   UNK N   1      38.250  10.315  10.223  0.00  0.00    -0.084 Cl
HETATM   21  C   UNK N   1      35.873   9.063  10.235  0.00  0.00     0.024 A 
HETATM   22  C   UNK N   1      34.490   8.937  10.344  0.00  0.00     0.002 A 
HETATM   23  C   UNK N   1      33.706  10.062  10.575  0.00  0.00     0.001 A 
HETATM   24  C   UNK N   1      34.308  11.310  10.707  0.00  0.00     0.014 A 
ENDBRANCH   6  18
TORSDOF 1
ENDMDL
MODEL 8
REMARK VINA RESULT:      -6.2     15.933     17.772
REMARK  1 active torsions:
REMARK  status: ('A' for Active; 'I' for Inactive)
REMARK    1  A    between atoms: C_7  and  C_12 
ROOT
HETATM    1 Cl   UNK N   1      29.667  29.898  -8.394  0.00  0.00    -0.084 Cl
HETATM    2  O   UNK N   1      28.774  25.634  -4.681  0.00  0.00    -0.343 OA
HETATM    3  O   UNK N   1      25.247  23.414  -6.559  0.00  0.00    -0.271 OA
HETATM    4  N   UNK N   1      26.439  25.771  -4.579  0.00  0.00     0.144 N 
HETATM    5  N   UNK N   1      26.742  24.765  -7.489  0.00  0.00    -0.325 N 
HETATM    6  C   UNK N   1      27.675  26.464  -4.994  0.00  0.00     0.322 C 
HETATM    7  C   UNK N   1      26.842  24.549  -3.919  0.00  0.00     0.304 C 
HETATM    8  C   UNK N   1      27.818  26.823  -6.502  0.00  0.00     0.041 A 
HETATM    9  C   UNK N   1      28.326  24.658  -3.778  0.00  0.00     0.202 C 
HETATM   10  C   UNK N   1      25.393  25.533  -5.568  0.00  0.00     0.380 C 
HETATM   11  C   UNK N   1      27.435  25.995  -7.610  0.00  0.00     0.046 A 
HETATM   12  C   UNK N   1      25.803  24.498  -6.560  0.00  0.00     0.250 C 
HETATM   13  C   UNK N   1      28.521  28.013  -6.801  0.00  0.00     0.038 A 
HETATM   14  C   UNK N   1      27.743  26.407  -8.915  0.00  0.00     0.032 A 
HETATM   15  C   UNK N   1      28.802  28.405  -8.103  0.00  0.00     0.034 A 
HETATM   16  C   UNK N   1      28.413  27.602  -9.164  0.00  0.00     0.026 A 
HETATM   17  H   UNK N   1      26.964  24.052  -8.130  0.00  0.00     0.169 HD
ENDROOT
BRANCH   6  18
HETATM   18  C   UNK N   1      27.682  27.782  -4.188  0.00  0.00     0.034 A 
HETATM   19  C   UNK N   1      28.802  28.332  -3.494  0.00  0.00     0.045 A 
HETATM   20 Cl   UNK N   1      30.382  27.569  -3.398  0.00  0.00    -0.084 Cl
HETATM   21  C   UNK N   1      28.672  29.566  -2.846  0.00  0.00     0.024 A 
HETATM   22  C   UNK N   1      27.468  30.268  -2.867  0.00  0.00     0.002 A 
HETATM   23  C   UNK N   1      26.366  29.737  -3.530  0.00  0.00     0.001 A 
HETATM   24  C   UNK N   1      26.474  28.509  -4.178  0.00  0.00     0.014 A 
ENDBRANCH   6  18
TORSDOF 1
ENDMDL
MODEL 9
REMARK VINA RESULT:      -6.2     14.615     16.836
REMARK  1 active torsions:
REMARK  status: ('A' for Active; 'I' for Inactive)
REMARK    1  A    between atoms: C_7  and  C_12 
ROOT
HETATM    1 Cl   UNK N   1      30.034  23.934  -2.937  0.00  0.00    -0.084 Cl
HETATM    2  O   UNK N   1      25.873  22.437  -6.571  0.00  0.00    -0.343 OA
HETATM    3  O   UNK N   1      28.213  20.651 -10.067  0.00  0.00    -0.271 OA
HETATM    4  N   UNK N   1      26.852  23.241  -8.540  0.00  0.00     0.144 N 
HETATM    5  N   UNK N   1      28.798  20.913  -7.942  0.00  0.00    -0.325 N 
HETATM    6  C   UNK N   1      26.896  23.277  -7.065  0.00  0.00     0.322 C 
HETATM    7  C   UNK N   1      25.708  22.436  -8.908  0.00  0.00     0.304 C 
HETATM    8  C   UNK N   1      28.212  22.804  -6.380  0.00  0.00     0.041 A 
HETATM    9  C   UNK N   1      24.982  22.187  -7.625  0.00  0.00     0.202 C 
HETATM   10  C   UNK N   1      28.050  22.852  -9.276  0.00  0.00     0.380 C 
HETATM   11  C   UNK N   1      29.019  21.685  -6.775  0.00  0.00     0.046 A 
HETATM   12  C   UNK N   1      28.342  21.398  -9.114  0.00  0.00     0.250 C 
HETATM   13  C   UNK N   1      28.562  23.455  -5.174  0.00  0.00     0.038 A 
HETATM   14  C   UNK N   1      30.111  21.310  -5.981  0.00  0.00     0.032 A 
HETATM   15  C   UNK N   1      29.658  23.073  -4.412  0.00  0.00     0.034 A 
HETATM   16  C   UNK N   1      30.436  21.999  -4.815  0.00  0.00     0.026 A 
HETATM   17  H   UNK N   1      28.992  19.949  -7.894  0.00  0.00     0.169 HD
ENDROOT
BRANCH   6  18
HETATM   18  C   UNK N   1      26.672  24.760  -6.695  0.00  0.00     0.034 A 
HETATM   19  C   UNK N   1      27.494  25.856  -7.095  0.00  0.00     0.045 A 
HETATM   20 Cl   UNK N   1      28.955  25.699  -8.060  0.00  0.00    -0.084 Cl
HETATM   21  C   UNK N   1      27.137  27.157  -6.723  0.00  0.00     0.024 A 
HETATM   22  C   UNK N   1      25.990  27.402  -5.969  0.00  0.00     0.002 A 
HETATM   23  C   UNK N   1      25.187  26.341  -5.562  0.00  0.00     0.001 A 
HETATM   24  C   UNK N   1      25.527  25.039  -5.919  0.00  0.00     0.014 A 
ENDBRANCH   6  18
TORSDOF 1
ENDMDL
