REMARK  1 active torsions:
REMARK  status: ('A' for Active; 'I' for Inactive)
REMARK    1  A    between atoms: C_10  and  C_13 
ROOT
HETATM    1 Br   UNK N   1       1.644  -4.244   0.674  0.00  0.00    -0.051 Br
HETATM    2  O   UNK N   1       2.043   3.881  -0.685  0.00  0.00    -0.271 OA
HETATM    3  N   UNK N   1       1.440   1.750  -0.577  0.00  0.00    -0.325 N 
HETATM    4  N   UNK N   1       4.298   1.707   0.457  0.00  0.00    -0.379 N 
ATOM      5  HN  UNK N   1       5.235   2.101   0.376  1.00  0.00     0.160 HD
HETATM    6  C   UNK N   1       2.811  -0.244   0.159  0.00  0.00     0.021 A 
HETATM    7  C   UNK N   1       1.566   0.395  -0.171  0.00  0.00     0.047 A 
HETATM    8  C   UNK N   1       4.169   0.448   0.198  0.00  0.00     0.068 C 
HETATM    9  C   UNK N   1       2.779  -1.627   0.409  0.00  0.00     0.035 A 
HETATM   10  C   UNK N   1       3.247   2.605   0.846  0.00  0.00     0.223 C 
HETATM   11  C   UNK N   1       0.393  -0.373  -0.221  0.00  0.00     0.032 A 
HETATM   12  C   UNK N   1       2.233   2.774  -0.211  0.00  0.00     0.239 C 
HETATM   13  C   UNK N   1       1.601  -2.366   0.360  0.00  0.00     0.011 A 
HETATM   14  C   UNK N   1       0.404  -1.737   0.052  0.00  0.00     0.021 A 
HETATM   15  H   UNK N   1       0.698   1.962  -1.189  0.00  0.00     0.169 HD
ENDROOT
BRANCH   8  16
HETATM   16  C   UNK N   1       5.454  -0.320   0.046  0.00  0.00     0.059 A 
HETATM   17  N   UNK N   1       6.638   0.347   0.190  0.00  0.00    -0.364 N 
HETATM   18  C   UNK N   1       7.841  -0.285   0.105  0.00  0.00     0.088 A 
ATOM     19  HN  UNK N   1       6.620   1.351   0.368  1.00  0.00     0.165 HD
HETATM   20  C   UNK N   1       7.897  -1.657  -0.134  0.00  0.00     0.017 A 
HETATM   21  C   UNK N   1       6.709  -2.367  -0.297  0.00  0.00     0.004 A 
HETATM   22  C   UNK N   1       5.487  -1.700  -0.210  0.00  0.00     0.032 A 
ENDBRANCH   8  16
TORSDOF 1
