MODEL 1
REMARK VINA RESULT:      -6.6      0.000      0.000
REMARK  1 active torsions:
REMARK  status: ('A' for Active; 'I' for Inactive)
REMARK    1  A    between atoms: C_10  and  C_13 
ROOT
HETATM    1 Br   UNK N   1      28.559  17.930   9.407  0.00  0.00    -0.051 Br
HETATM    2  O   UNK N   1      32.864  16.533   2.513  0.00  0.00    -0.271 OA
HETATM    3  N   UNK N   1      32.217  16.996   4.582  0.00  0.00    -0.325 N 
HETATM    4  N   UNK N   1      29.589  16.812   3.068  0.00  0.00    -0.379 N 
ATOM      5  HN  UNK N   1      29.100  16.995   2.191  1.00  0.00     0.160 HD
HETATM    6  C   UNK N   1      29.873  17.353   5.462  0.00  0.00     0.021 A 
HETATM    7  C   UNK N   1      31.280  17.116   5.642  0.00  0.00     0.047 A 
HETATM    8  C   UNK N   1      29.163  17.436   4.115  0.00  0.00     0.068 C 
HETATM    9  C   UNK N   1      29.105  17.584   6.617  0.00  0.00     0.035 A 
HETATM   10  C   UNK N   1      30.686  15.886   3.019  0.00  0.00     0.223 C 
HETATM   11  C   UNK N   1      31.814  17.117   6.939  0.00  0.00     0.032 A 
HETATM   12  C   UNK N   1      31.974  16.525   3.345  0.00  0.00     0.239 C 
HETATM   13  C   UNK N   1      29.658  17.572   7.893  0.00  0.00     0.011 A 
HETATM   14  C   UNK N   1      31.014  17.331   8.056  0.00  0.00     0.021 A 
HETATM   15  H   UNK N   1      33.139  17.288   4.771  0.00  0.00     0.169 HD
ENDROOT
BRANCH   8  16
HETATM   16  C   UNK N   1      27.856  18.164   3.952  0.00  0.00     0.059 A 
HETATM   17  N   UNK N   1      27.873  19.525   3.834  0.00  0.00    -0.364 N 
HETATM   18  C   UNK N   1      26.736  20.251   3.646  0.00  0.00     0.088 A 
ATOM     19  HN  UNK N   1      28.766  20.014   3.888  1.00  0.00     0.165 HD
HETATM   20  C   UNK N   1      25.501  19.610   3.565  0.00  0.00     0.017 A 
HETATM   21  C   UNK N   1      25.445  18.224   3.692  0.00  0.00     0.004 A 
HETATM   22  C   UNK N   1      26.621  17.499   3.888  0.00  0.00     0.032 A 
ENDBRANCH   8  16
TORSDOF 1
ENDMDL
MODEL 2
REMARK VINA RESULT:      -6.5      9.272     10.862
REMARK  1 active torsions:
REMARK  status: ('A' for Active; 'I' for Inactive)
REMARK    1  A    between atoms: C_10  and  C_13 
ROOT
HETATM    1 Br   UNK N   1      20.449  10.786   4.935  0.00  0.00    -0.051 Br
HETATM    2  O   UNK N   1      20.944  18.702   7.198  0.00  0.00    -0.271 OA
HETATM    3  N   UNK N   1      20.922  16.786   6.082  0.00  0.00    -0.325 N 
HETATM    4  N   UNK N   1      20.684  15.895   8.979  0.00  0.00    -0.379 N 
ATOM      5  HN  UNK N   1      20.963  16.067   9.944  1.00  0.00     0.160 HD
HETATM    6  C   UNK N   1      20.799  14.429   6.993  0.00  0.00     0.021 A 
HETATM    7  C   UNK N   1      20.718  15.389   5.925  0.00  0.00     0.047 A 
HETATM    8  C   UNK N   1      21.040  14.767   8.460  0.00  0.00     0.068 C 
HETATM    9  C   UNK N   1      20.706  13.070   6.645  0.00  0.00     0.035 A 
HETATM   10  C   UNK N   1      19.935  16.931   8.324  0.00  0.00     0.223 C 
HETATM   11  C   UNK N   1      20.544  14.938   4.609  0.00  0.00     0.032 A 
HETATM   12  C   UNK N   1      20.664  17.516   7.184  0.00  0.00     0.239 C 
HETATM   13  C   UNK N   1      20.528  12.648   5.332  0.00  0.00     0.011 A 
HETATM   14  C   UNK N   1      20.439  13.583   4.312  0.00  0.00     0.021 A 
HETATM   15  H   UNK N   1      21.290  17.270   5.308  0.00  0.00     0.169 HD
ENDROOT
BRANCH   8  16
HETATM   16  C   UNK N   1      21.609  13.759   9.422  0.00  0.00     0.059 A 
HETATM   17  N   UNK N   1      22.954  13.522   9.404  0.00  0.00    -0.364 N 
HETATM   18  C   UNK N   1      23.549  12.653  10.268  0.00  0.00     0.088 A 
ATOM     19  HN  UNK N   1      23.533  14.011   8.721  1.00  0.00     0.165 HD
HETATM   20  C   UNK N   1      22.785  11.972  11.214  0.00  0.00     0.017 A 
HETATM   21  C   UNK N   1      21.407  12.181  11.253  0.00  0.00     0.004 A 
HETATM   22  C   UNK N   1      20.817  13.072  10.356  0.00  0.00     0.032 A 
ENDBRANCH   8  16
TORSDOF 1
ENDMDL
MODEL 3
REMARK VINA RESULT:      -6.4     10.880     12.589
REMARK  1 active torsions:
REMARK  status: ('A' for Active; 'I' for Inactive)
REMARK    1  A    between atoms: C_10  and  C_13 
ROOT
HETATM    1 Br   UNK N   1      28.383  21.694  -9.371  0.00  0.00    -0.051 Br
HETATM    2  O   UNK N   1      30.677  22.938  -1.547  0.00  0.00    -0.271 OA
HETATM    3  N   UNK N   1      30.172  22.068  -3.523  0.00  0.00    -0.325 N 
HETATM    4  N   UNK N   1      29.321  24.972  -3.814  0.00  0.00    -0.379 N 
ATOM      5  HN  UNK N   1      28.917  25.787  -3.354  1.00  0.00     0.160 HD
HETATM    6  C   UNK N   1      29.089  23.193  -5.513  0.00  0.00     0.021 A 
HETATM    7  C   UNK N   1      29.812  22.114  -4.896  0.00  0.00     0.047 A 
HETATM    8  C   UNK N   1      28.666  24.479  -4.813  0.00  0.00     0.068 C 
HETATM    9  C   UNK N   1      28.692  23.020  -6.851  0.00  0.00     0.035 A 
HETATM   10  C   UNK N   1      30.563  24.479  -3.289  0.00  0.00     0.223 C 
HETATM   11  C   UNK N   1      30.092  20.960  -5.644  0.00  0.00     0.032 A 
HETATM   12  C   UNK N   1      30.437  23.121  -2.728  0.00  0.00     0.239 C 
HETATM   13  C   UNK N   1      28.988  21.869  -7.573  0.00  0.00     0.011 A 
HETATM   14  C   UNK N   1      29.696  20.839  -6.972  0.00  0.00     0.021 A 
HETATM   15  H   UNK N   1      30.233  21.176  -3.111  0.00  0.00     0.169 HD
ENDROOT
BRANCH   8  16
HETATM   16  C   UNK N   1      27.521  25.315  -5.316  0.00  0.00     0.059 A 
HETATM   17  N   UNK N   1      27.794  26.388  -6.117  0.00  0.00    -0.364 N 
HETATM   18  C   UNK N   1      26.810  27.169  -6.642  0.00  0.00     0.088 A 
ATOM     19  HN  UNK N   1      28.766  26.610  -6.330  1.00  0.00     0.165 HD
HETATM   20  C   UNK N   1      25.472  26.888  -6.372  0.00  0.00     0.017 A 
HETATM   21  C   UNK N   1      25.157  25.808  -5.549  0.00  0.00     0.004 A 
HETATM   22  C   UNK N   1      26.180  25.023  -5.018  0.00  0.00     0.032 A 
ENDBRANCH   8  16
TORSDOF 1
ENDMDL
MODEL 4
REMARK VINA RESULT:      -6.1     14.208     15.696
REMARK  1 active torsions:
REMARK  status: ('A' for Active; 'I' for Inactive)
REMARK    1  A    between atoms: C_10  and  C_13 
ROOT
HETATM    1 Br   UNK N   1      29.390  27.367 -10.438  0.00  0.00    -0.051 Br
HETATM    2  O   UNK N   1      25.373  28.100  -3.272  0.00  0.00    -0.271 OA
HETATM    3  N   UNK N   1      26.777  28.304  -4.976  0.00  0.00    -0.325 N 
HETATM    4  N   UNK N   1      25.076  25.913  -5.770  0.00  0.00    -0.379 N 
ATOM      5  HN  UNK N   1      24.579  25.082  -5.450  1.00  0.00     0.160 HD
HETATM    6  C   UNK N   1      26.969  26.862  -7.045  0.00  0.00     0.021 A 
HETATM    7  C   UNK N   1      27.251  28.053  -6.291  0.00  0.00     0.047 A 
HETATM    8  C   UNK N   1      26.062  25.726  -6.584  0.00  0.00     0.068 C 
HETATM    9  C   UNK N   1      27.627  26.708  -8.278  0.00  0.00     0.035 A 
HETATM   10  C   UNK N   1      24.616  27.178  -5.272  0.00  0.00     0.223 C 
HETATM   11  C   UNK N   1      28.148  28.997  -6.811  0.00  0.00     0.032 A 
HETATM   12  C   UNK N   1      25.628  27.855  -4.438  0.00  0.00     0.239 C 
HETATM   13  C   UNK N   1      28.507  27.664  -8.776  0.00  0.00     0.011 A 
HETATM   14  C   UNK N   1      28.763  28.814  -8.045  0.00  0.00     0.021 A 
HETATM   15  H   UNK N   1      27.347  28.862  -4.398  0.00  0.00     0.169 HD
ENDROOT
BRANCH   8  16
HETATM   16  C   UNK N   1      26.192  24.333  -7.139  0.00  0.00     0.059 A 
HETATM   17  N   UNK N   1      25.258  23.893  -8.034  0.00  0.00    -0.364 N 
HETATM   18  C   UNK N   1      25.328  22.661  -8.609  0.00  0.00     0.088 A 
ATOM     19  HN  UNK N   1      24.482  24.508  -8.280  1.00  0.00     0.165 HD
HETATM   20  C   UNK N   1      26.378  21.800  -8.295  0.00  0.00     0.017 A 
HETATM   21  C   UNK N   1      27.343  22.212  -7.378  0.00  0.00     0.004 A 
HETATM   22  C   UNK N   1      27.251  23.477  -6.797  0.00  0.00     0.032 A 
ENDBRANCH   8  16
TORSDOF 1
ENDMDL
MODEL 5
REMARK VINA RESULT:      -6.1      9.651     12.070
REMARK  1 active torsions:
REMARK  status: ('A' for Active; 'I' for Inactive)
REMARK    1  A    between atoms: C_10  and  C_13 
ROOT
HETATM    1 Br   UNK N   1      38.578   8.977  10.786  0.00  0.00    -0.051 Br
HETATM    2  O   UNK N   1      36.202  16.874  10.657  0.00  0.00    -0.271 OA
HETATM    3  N   UNK N   1      37.305  14.961  10.456  0.00  0.00    -0.325 N 
HETATM    4  N   UNK N   1      34.840  14.168  12.048  0.00  0.00    -0.379 N 
ATOM      5  HN  UNK N   1      34.167  14.444  12.763  1.00  0.00     0.160 HD
HETATM    6  C   UNK N   1      36.701  12.686  11.381  0.00  0.00     0.021 A 
HETATM    7  C   UNK N   1      37.458  13.551  10.517  0.00  0.00     0.047 A 
HETATM    8  C   UNK N   1      35.573  13.135  12.303  0.00  0.00     0.068 C 
HETATM    9  C   UNK N   1      37.071  11.330  11.420  0.00  0.00     0.035 A 
HETATM   10  C   UNK N   1      34.883  14.965  10.854  0.00  0.00     0.223 C 
HETATM   11  C   UNK N   1      38.508  13.013   9.758  0.00  0.00     0.032 A 
HETATM   12  C   UNK N   1      36.175  15.656  10.688  0.00  0.00     0.239 C 
HETATM   13  C   UNK N   1      38.112  10.819  10.651  0.00  0.00     0.011 A 
HETATM   14  C   UNK N   1      38.828  11.661   9.812  0.00  0.00     0.021 A 
HETATM   15  H   UNK N   1      38.105  15.484  10.221  0.00  0.00     0.169 HD
ENDROOT
BRANCH   8  16
HETATM   16  C   UNK N   1      35.172  12.335  13.513  0.00  0.00     0.059 A 
HETATM   17  N   UNK N   1      34.131  11.457  13.403  0.00  0.00    -0.364 N 
HETATM   18  C   UNK N   1      33.734  10.670  14.441  0.00  0.00     0.088 A 
ATOM     19  HN  UNK N   1      33.636  11.387  12.514  1.00  0.00     0.165 HD
HETATM   20  C   UNK N   1      34.394  10.741  15.667  0.00  0.00     0.017 A 
HETATM   21  C   UNK N   1      35.453  11.634  15.817  0.00  0.00     0.004 A 
HETATM   22  C   UNK N   1      35.842  12.433  14.743  0.00  0.00     0.032 A 
ENDBRANCH   8  16
TORSDOF 1
ENDMDL
MODEL 6
REMARK VINA RESULT:      -6.0      7.959      9.876
REMARK  1 active torsions:
REMARK  status: ('A' for Active; 'I' for Inactive)
REMARK    1  A    between atoms: C_10  and  C_13 
ROOT
HETATM    1 Br   UNK N   1      23.969  11.931   8.984  0.00  0.00    -0.051 Br
HETATM    2  O   UNK N   1      17.647  17.227   9.033  0.00  0.00    -0.271 OA
HETATM    3  N   UNK N   1      18.988  15.482   9.308  0.00  0.00    -0.325 N 
HETATM    4  N   UNK N   1      20.579  17.282   7.445  0.00  0.00    -0.379 N 
ATOM      5  HN  UNK N   1      20.543  17.942   6.669  1.00  0.00     0.160 HD
HETATM    6  C   UNK N   1      21.256  15.055   8.274  0.00  0.00     0.021 A 
HETATM    7  C   UNK N   1      20.220  14.781   9.232  0.00  0.00     0.047 A 
HETATM    8  C   UNK N   1      21.226  16.182   7.247  0.00  0.00     0.068 C 
HETATM    9  C   UNK N   1      22.356  14.180   8.245  0.00  0.00     0.035 A 
HETATM   10  C   UNK N   1      19.903  17.663   8.654  0.00  0.00     0.223 C 
HETATM   11  C   UNK N   1      20.352  13.676  10.087  0.00  0.00     0.032 A 
HETATM   12  C   UNK N   1      18.775  16.768   8.973  0.00  0.00     0.239 C 
HETATM   13  C   UNK N   1      22.467  13.094   9.109  0.00  0.00     0.011 A 
HETATM   14  C   UNK N   1      21.467  12.846  10.037  0.00  0.00     0.021 A 
HETATM   15  H   UNK N   1      18.210  14.977   9.638  0.00  0.00     0.169 HD
ENDROOT
BRANCH   8  16
HETATM   16  C   UNK N   1      22.042  16.125   5.984  0.00  0.00     0.059 A 
HETATM   17  N   UNK N   1      23.243  16.777   5.949  0.00  0.00    -0.364 N 
HETATM   18  C   UNK N   1      24.055  16.740   4.857  0.00  0.00     0.088 A 
ATOM     19  HN  UNK N   1      23.540  17.306   6.768  1.00  0.00     0.165 HD
HETATM   20  C   UNK N   1      23.676  16.021   3.725  0.00  0.00     0.017 A 
HETATM   21  C   UNK N   1      22.453  15.354   3.722  0.00  0.00     0.004 A 
HETATM   22  C   UNK N   1      21.633  15.407   4.849  0.00  0.00     0.032 A 
ENDBRANCH   8  16
TORSDOF 1
ENDMDL
MODEL 7
REMARK VINA RESULT:      -5.7      6.321      8.390
REMARK  1 active torsions:
REMARK  status: ('A' for Active; 'I' for Inactive)
REMARK    1  A    between atoms: C_10  and  C_13 
ROOT
HETATM    1 Br   UNK N   1      26.782  17.834   5.271  0.00  0.00    -0.051 Br
HETATM    2  O   UNK N   1      20.209  21.215   1.612  0.00  0.00    -0.271 OA
HETATM    3  N   UNK N   1      22.203  20.809   2.493  0.00  0.00    -0.325 N 
HETATM    4  N   UNK N   1      20.611  18.325   3.224  0.00  0.00    -0.379 N 
ATOM      5  HN  UNK N   1      19.704  17.950   3.500  1.00  0.00     0.160 HD
HETATM    6  C   UNK N   1      22.956  18.804   3.838  0.00  0.00     0.021 A 
HETATM    7  C   UNK N   1      23.211  19.998   3.079  0.00  0.00     0.047 A 
HETATM    8  C   UNK N   1      21.582  18.185   4.065  0.00  0.00     0.068 C 
HETATM    9  C   UNK N   1      24.056  18.193   4.466  0.00  0.00     0.035 A 
HETATM   10  C   UNK N   1      20.688  18.960   1.939  0.00  0.00     0.223 C 
HETATM   11  C   UNK N   1      24.522  20.490   2.993  0.00  0.00     0.032 A 
HETATM   12  C   UNK N   1      21.004  20.396   2.040  0.00  0.00     0.239 C 
HETATM   13  C   UNK N   1      25.349  18.697   4.359  0.00  0.00     0.011 A 
HETATM   14  C   UNK N   1      25.584  19.843   3.615  0.00  0.00     0.021 A 
HETATM   15  H   UNK N   1      22.400  21.770   2.410  0.00  0.00     0.169 HD
ENDROOT
BRANCH   8  16
HETATM   16  C   UNK N   1      21.305  17.278   5.234  0.00  0.00     0.059 A 
HETATM   17  N   UNK N   1      21.340  15.926   5.038  0.00  0.00    -0.364 N 
HETATM   18  C   UNK N   1      21.138  15.041   6.052  0.00  0.00     0.088 A 
ATOM     19  HN  UNK N   1      21.524  15.568   4.100  1.00  0.00     0.165 HD
HETATM   20  C   UNK N   1      20.888  15.500   7.344  0.00  0.00     0.017 A 
HETATM   21  C   UNK N   1      20.834  16.873   7.578  0.00  0.00     0.004 A 
HETATM   22  C   UNK N   1      21.039  17.763   6.524  0.00  0.00     0.032 A 
ENDBRANCH   8  16
TORSDOF 1
ENDMDL
MODEL 8
REMARK VINA RESULT:      -5.7      6.426      8.842
REMARK  1 active torsions:
REMARK  status: ('A' for Active; 'I' for Inactive)
REMARK    1  A    between atoms: C_10  and  C_13 
ROOT
HETATM    1 Br   UNK N   1      33.700  11.677   6.301  0.00  0.00    -0.051 Br
HETATM    2  O   UNK N   1      35.189  13.634  14.174  0.00  0.00    -0.271 OA
HETATM    3  N   UNK N   1      34.639  12.616  12.282  0.00  0.00    -0.325 N 
HETATM    4  N   UNK N   1      35.180  15.472  11.392  0.00  0.00    -0.379 N 
ATOM      5  HN  UNK N   1      35.108  16.461  11.628  1.00  0.00     0.160 HD
HETATM    6  C   UNK N   1      34.439  13.599   9.960  0.00  0.00     0.021 A 
HETATM    7  C   UNK N   1      34.529  12.491  10.872  0.00  0.00     0.047 A 
HETATM    8  C   UNK N   1      34.523  15.069  10.355  0.00  0.00     0.068 C 
HETATM    9  C   UNK N   1      34.198  13.302   8.607  0.00  0.00     0.035 A 
HETATM   10  C   UNK N   1      35.999  14.658  12.246  0.00  0.00     0.223 C 
HETATM   11  C   UNK N   1      34.383  11.185  10.381  0.00  0.00     0.032 A 
HETATM   12  C   UNK N   1      35.220  13.627  12.955  0.00  0.00     0.239 C 
HETATM   13  C   UNK N   1      34.063  11.998   8.143  0.00  0.00     0.011 A 
HETATM   14  C   UNK N   1      34.164  10.936   9.030  0.00  0.00     0.021 A 
HETATM   15  H   UNK N   1      34.249  11.891  12.823  0.00  0.00     0.169 HD
ENDROOT
BRANCH   8  16
HETATM   16  C   UNK N   1      33.935  16.155   9.495  0.00  0.00     0.059 A 
HETATM   17  N   UNK N   1      32.577  16.214   9.350  0.00  0.00    -0.364 N 
HETATM   18  C   UNK N   1      31.968  17.189   8.620  0.00  0.00     0.088 A 
ATOM     19  HN  UNK N   1      32.001  15.505   9.803  1.00  0.00     0.165 HD
HETATM   20  C   UNK N   1      32.729  18.173   7.991  0.00  0.00     0.017 A 
HETATM   21  C   UNK N   1      34.117  18.137   8.110  0.00  0.00     0.004 A 
HETATM   22  C   UNK N   1      34.722  17.128   8.859  0.00  0.00     0.032 A 
ENDBRANCH   8  16
TORSDOF 1
ENDMDL
MODEL 9
REMARK VINA RESULT:      -5.6      6.789      8.387
REMARK  1 active torsions:
REMARK  status: ('A' for Active; 'I' for Inactive)
REMARK    1  A    between atoms: C_10  and  C_13 
ROOT
HETATM    1 Br   UNK N   1      26.348  16.840   4.211  0.00  0.00    -0.051 Br
HETATM    2  O   UNK N   1      19.993  14.222   8.770  0.00  0.00    -0.271 OA
HETATM    3  N   UNK N   1      21.916  14.427   7.685  0.00  0.00    -0.325 N 
HETATM    4  N   UNK N   1      20.368  16.891   6.807  0.00  0.00    -0.379 N 
ATOM      5  HN  UNK N   1      19.455  17.278   6.566  1.00  0.00     0.160 HD
HETATM    6  C   UNK N   1      22.628  16.229   6.059  0.00  0.00     0.021 A 
HETATM    7  C   UNK N   1      22.900  15.116   6.927  0.00  0.00     0.047 A 
HETATM    8  C   UNK N   1      21.265  16.887   5.877  0.00  0.00     0.068 C 
HETATM    9  C   UNK N   1      23.692  16.710   5.276  0.00  0.00     0.035 A 
HETATM   10  C   UNK N   1      20.532  16.400   8.146  0.00  0.00     0.223 C 
HETATM   11  C   UNK N   1      24.193  14.571   6.960  0.00  0.00     0.032 A 
HETATM   12  C   UNK N   1      20.780  14.947   8.185  0.00  0.00     0.239 C 
HETATM   13  C   UNK N   1      24.967  16.158   5.331  0.00  0.00     0.011 A 
HETATM   14  C   UNK N   1      25.221  15.091   6.181  0.00  0.00     0.021 A 
HETATM   15  H   UNK N   1      22.081  13.472   7.861  0.00  0.00     0.169 HD
ENDROOT
BRANCH   8  16
HETATM   16  C   UNK N   1      20.923  17.671   4.639  0.00  0.00     0.059 A 
HETATM   17  N   UNK N   1      21.095  19.027   4.653  0.00  0.00    -0.364 N 
HETATM   18  C   UNK N   1      20.844  19.800   3.560  0.00  0.00     0.088 A 
ATOM     19  HN  UNK N   1      21.423  19.474   5.508  1.00  0.00     0.165 HD
HETATM   20  C   UNK N   1      20.398  19.217   2.376  0.00  0.00     0.017 A 
HETATM   21  C   UNK N   1      20.201  17.838   2.330  0.00  0.00     0.004 A 
HETATM   22  C   UNK N   1      20.460  17.064   3.461  0.00  0.00     0.032 A 
ENDBRANCH   8  16
TORSDOF 1
ENDMDL
