MODEL 1
REMARK VINA RESULT:      -6.9      0.000      0.000
REMARK  2 active torsions:
REMARK  status: ('A' for Active; 'I' for Inactive)
REMARK    1  A    between atoms: C_9  and  C_15 
REMARK    2  A    between atoms: C_10  and  C_12 
ROOT
HETATM    1  S   UNK N   1      31.228  17.120   7.268  0.00  0.00    -0.076 SA
HETATM    2  O   UNK N   1      32.524  16.690   2.519  0.00  0.00    -0.271 OA
HETATM    3  N   UNK N   1      31.899  17.099   4.631  0.00  0.00    -0.314 N 
HETATM    4  N   UNK N   1      29.227  17.029   3.105  0.00  0.00    -0.380 N 
ATOM      5  HN  UNK N   1      28.775  17.297   2.231  1.00  0.00     0.160 HD
HETATM    6  C   UNK N   1      29.482  17.334   5.502  0.00  0.00     0.026 A 
HETATM    7  C   UNK N   1      30.892  17.144   5.642  0.00  0.00     0.091 A 
HETATM    8  C   UNK N   1      28.750  17.557   4.190  0.00  0.00     0.053 C 
HETATM    9  C   UNK N   1      29.697  17.277   7.860  0.00  0.00    -0.015 A 
HETATM   10  C   UNK N   1      28.837  17.377   6.767  0.00  0.00     0.031 A 
HETATM   11  C   UNK N   1      30.324  16.108   3.004  0.00  0.00     0.223 C 
HETATM   12  C   UNK N   1      31.640  16.694   3.361  0.00  0.00     0.242 C 
HETATM   13  C   UNK N   1      33.263  17.425   4.994  0.00  0.00     0.160 C 
ENDROOT
BRANCH   8  14
HETATM   14  C   UNK N   1      27.430  18.330   3.990  0.00  0.00     0.013 A 
HETATM   15  C   UNK N   1      26.099  17.863   3.668  0.00  0.00     0.046 A 
HETATM   16 Cl   UNK N   1      25.555  16.216   3.441  0.00  0.00    -0.083 Cl
HETATM   17  C   UNK N   1      25.052  18.787   3.535  0.00  0.00     0.025 A 
HETATM   18  C   UNK N   1      25.246  20.149   3.716  0.00  0.00     0.002 A 
HETATM   19  C   UNK N   1      26.503  20.620   4.045  0.00  0.00     0.001 A 
HETATM   20  C   UNK N   1      27.564  19.729   4.173  0.00  0.00     0.015 A 
ENDBRANCH   8  14
BRANCH   9  21
HETATM   21  C   UNK N   1      29.270  17.372   9.293  0.00  0.00     0.042 C 
HETATM   22  C   UNK N   1      29.700  18.672   9.950  0.00  0.00     0.010 C 
ENDBRANCH   9  21
TORSDOF 2
ENDMDL
MODEL 2
REMARK VINA RESULT:      -6.8      5.276      7.880
REMARK  2 active torsions:
REMARK  status: ('A' for Active; 'I' for Inactive)
REMARK    1  A    between atoms: C_9  and  C_15 
REMARK    2  A    between atoms: C_10  and  C_12 
ROOT
HETATM    1  S   UNK N   1      20.652  17.018   4.592  0.00  0.00    -0.076 SA
HETATM    2  O   UNK N   1      20.817  20.116   0.746  0.00  0.00    -0.271 OA
HETATM    3  N   UNK N   1      20.903  18.597   2.390  0.00  0.00    -0.314 N 
HETATM    4  N   UNK N   1      23.383  20.343   2.911  0.00  0.00    -0.380 N 
ATOM      5  HN  UNK N   1      24.143  20.846   2.453  1.00  0.00     0.160 HD
HETATM    6  C   UNK N   1      22.646  18.482   4.288  0.00  0.00     0.026 A 
HETATM    7  C   UNK N   1      21.408  18.159   3.652  0.00  0.00     0.091 A 
HETATM    8  C   UNK N   1      23.727  19.378   3.709  0.00  0.00     0.053 C 
HETATM    9  C   UNK N   1      21.749  16.913   5.819  0.00  0.00    -0.015 A 
HETATM   10  C   UNK N   1      22.794  17.784   5.517  0.00  0.00     0.031 A 
HETATM   11  C   UNK N   1      22.049  20.776   2.605  0.00  0.00     0.223 C 
HETATM   12  C   UNK N   1      21.253  19.787   1.837  0.00  0.00     0.242 C 
HETATM   13  C   UNK N   1      19.923  17.774   1.711  0.00  0.00     0.160 C 
ENDROOT
BRANCH   8  14
HETATM   14  C   UNK N   1      25.240  19.305   3.998  0.00  0.00     0.013 A 
HETATM   15  C   UNK N   1      26.204  18.256   3.741  0.00  0.00     0.046 A 
HETATM   16 Cl   UNK N   1      25.941  16.714   2.958  0.00  0.00    -0.083 Cl
HETATM   17  C   UNK N   1      27.544  18.439   4.110  0.00  0.00     0.025 A 
HETATM   18  C   UNK N   1      27.989  19.609   4.709  0.00  0.00     0.002 A 
HETATM   19  C   UNK N   1      27.094  20.635   4.948  0.00  0.00     0.001 A 
HETATM   20  C   UNK N   1      25.755  20.479   4.603  0.00  0.00     0.015 A 
ENDBRANCH   8  14
BRANCH   9  21
HETATM   21  C   UNK N   1      21.707  16.012   7.015  0.00  0.00     0.042 C 
HETATM   22  C   UNK N   1      20.673  16.444   8.041  0.00  0.00     0.010 C 
ENDBRANCH   9  21
TORSDOF 2
ENDMDL
MODEL 3
REMARK VINA RESULT:      -6.8      7.796     10.004
REMARK  2 active torsions:
REMARK  status: ('A' for Active; 'I' for Inactive)
REMARK    1  A    between atoms: C_9  and  C_15 
REMARK    2  A    between atoms: C_10  and  C_12 
ROOT
HETATM    1  S   UNK N   1      22.655  15.279   4.505  0.00  0.00    -0.076 SA
HETATM    2  O   UNK N   1      20.750  18.761   7.447  0.00  0.00    -0.271 OA
HETATM    3  N   UNK N   1      21.790  17.181   6.247  0.00  0.00    -0.314 N 
HETATM    4  N   UNK N   1      20.747  15.636   8.696  0.00  0.00    -0.380 N 
ATOM      5  HN  UNK N   1      20.605  15.697   9.704  1.00  0.00     0.160 HD
HETATM    6  C   UNK N   1      21.935  14.668   6.811  0.00  0.00     0.026 A 
HETATM    7  C   UNK N   1      22.036  15.806   5.952  0.00  0.00     0.091 A 
HETATM    8  C   UNK N   1      21.548  14.704   8.279  0.00  0.00     0.053 C 
HETATM    9  C   UNK N   1      22.770  13.667   4.833  0.00  0.00    -0.015 A 
HETATM   10  C   UNK N   1      22.329  13.478   6.142  0.00  0.00     0.031 A 
HETATM   11  C   UNK N   1      20.039  16.591   7.890  0.00  0.00     0.223 C 
HETATM   12  C   UNK N   1      20.917  17.576   7.210  0.00  0.00     0.242 C 
HETATM   13  C   UNK N   1      22.438  18.192   5.437  0.00  0.00     0.160 C 
ENDROOT
BRANCH   8  14
HETATM   14  C   UNK N   1      21.976  13.702   9.371  0.00  0.00     0.013 A 
HETATM   15  C   UNK N   1      23.276  13.161   9.702  0.00  0.00     0.046 A 
HETATM   16 Cl   UNK N   1      24.819  13.523   8.963  0.00  0.00    -0.083 Cl
HETATM   17  C   UNK N   1      23.400  12.246  10.758  0.00  0.00     0.025 A 
HETATM   18  C   UNK N   1      22.307  11.847  11.516  0.00  0.00     0.002 A 
HETATM   19  C   UNK N   1      21.057  12.364  11.234  0.00  0.00     0.001 A 
HETATM   20  C   UNK N   1      20.901  13.265  10.186  0.00  0.00     0.015 A 
ENDBRANCH   8  14
BRANCH   9  21
HETATM   21  C   UNK N   1      23.307  12.584   3.948  0.00  0.00     0.042 C 
HETATM   22  C   UNK N   1      22.995  11.191   4.468  0.00  0.00     0.010 C 
ENDBRANCH   9  21
TORSDOF 2
ENDMDL
MODEL 4
REMARK VINA RESULT:      -6.6     11.616     13.347
REMARK  2 active torsions:
REMARK  status: ('A' for Active; 'I' for Inactive)
REMARK    1  A    between atoms: C_9  and  C_15 
REMARK    2  A    between atoms: C_10  and  C_12 
ROOT
HETATM    1  S   UNK N   1      29.500  21.409  -7.303  0.00  0.00    -0.076 SA
HETATM    2  O   UNK N   1      25.313  21.454  -9.925  0.00  0.00    -0.271 OA
HETATM    3  N   UNK N   1      27.239  21.644  -8.797  0.00  0.00    -0.314 N 
HETATM    4  N   UNK N   1      25.222  23.126  -7.006  0.00  0.00    -0.380 N 
ATOM      5  HN  UNK N   1      24.415  23.750  -7.022  1.00  0.00     0.160 HD
HETATM    6  C   UNK N   1      27.570  22.765  -6.498  0.00  0.00     0.026 A 
HETATM    7  C   UNK N   1      27.951  21.929  -7.593  0.00  0.00     0.091 A 
HETATM    8  C   UNK N   1      26.286  23.571  -6.409  0.00  0.00     0.053 C 
HETATM    9  C   UNK N   1      29.750  22.118  -5.835  0.00  0.00    -0.015 A 
HETATM   10  C   UNK N   1      28.594  22.829  -5.515  0.00  0.00     0.031 A 
HETATM   11  C   UNK N   1      25.061  21.852  -7.647  0.00  0.00     0.223 C 
HETATM   12  C   UNK N   1      25.884  21.682  -8.871  0.00  0.00     0.242 C 
HETATM   13  C   UNK N   1      27.989  21.227  -9.965  0.00  0.00     0.160 C 
ENDROOT
BRANCH   8  14
HETATM   14  C   UNK N   1      26.071  24.883  -5.629  0.00  0.00     0.013 A 
HETATM   15  C   UNK N   1      26.350  25.221  -4.249  0.00  0.00     0.046 A 
HETATM   16 Cl   UNK N   1      27.078  24.217  -3.016  0.00  0.00    -0.083 Cl
HETATM   17  C   UNK N   1      26.054  26.507  -3.775  0.00  0.00     0.025 A 
HETATM   18  C   UNK N   1      25.508  27.485  -4.595  0.00  0.00     0.002 A 
HETATM   19  C   UNK N   1      25.251  27.196  -5.922  0.00  0.00     0.001 A 
HETATM   20  C   UNK N   1      25.524  25.926  -6.419  0.00  0.00     0.015 A 
ENDBRANCH   8  14
BRANCH   9  21
HETATM   21  C   UNK N   1      30.994  22.091  -5.000  0.00  0.00     0.042 C 
HETATM   22  C   UNK N   1      30.793  21.389  -3.668  0.00  0.00     0.010 C 
ENDBRANCH   9  21
TORSDOF 2
ENDMDL
MODEL 5
REMARK VINA RESULT:      -6.5      8.430     10.287
REMARK  2 active torsions:
REMARK  status: ('A' for Active; 'I' for Inactive)
REMARK    1  A    between atoms: C_9  and  C_15 
REMARK    2  A    between atoms: C_10  and  C_12 
ROOT
HETATM    1  S   UNK N   1      19.487  16.236   6.648  0.00  0.00    -0.076 SA
HETATM    2  O   UNK N   1      21.598  12.823   3.764  0.00  0.00    -0.271 OA
HETATM    3  N   UNK N   1      20.553  14.203   5.187  0.00  0.00    -0.314 N 
HETATM    4  N   UNK N   1      22.956  13.191   6.822  0.00  0.00    -0.380 N 
ATOM      5  HN  UNK N   1      23.527  12.368   7.017  1.00  0.00     0.160 HD
HETATM    6  C   UNK N   1      21.317  14.819   7.573  0.00  0.00     0.026 A 
HETATM    7  C   UNK N   1      20.550  14.990   6.379  0.00  0.00     0.091 A 
HETATM    8  C   UNK N   1      22.314  13.702   7.827  0.00  0.00     0.053 C 
HETATM    9  C   UNK N   1      19.944  16.652   8.177  0.00  0.00    -0.015 A 
HETATM   10  C   UNK N   1      20.969  15.786   8.554  0.00  0.00     0.031 A 
HETATM   11  C   UNK N   1      22.949  13.659   5.464  0.00  0.00     0.223 C 
HETATM   12  C   UNK N   1      21.642  13.502   4.778  0.00  0.00     0.242 C 
HETATM   13  C   UNK N   1      19.375  14.215   4.344  0.00  0.00     0.160 C 
ENDROOT
BRANCH   8  14
HETATM   14  C   UNK N   1      22.704  13.107   9.195  0.00  0.00     0.013 A 
HETATM   15  C   UNK N   1      21.901  12.811  10.363  0.00  0.00     0.046 A 
HETATM   16 Cl   UNK N   1      20.175  13.010  10.567  0.00  0.00    -0.083 Cl
HETATM   17  C   UNK N   1      22.508  12.266  11.504  0.00  0.00     0.025 A 
HETATM   18  C   UNK N   1      23.866  11.983  11.550  0.00  0.00     0.002 A 
HETATM   19  C   UNK N   1      24.652  12.236  10.441  0.00  0.00     0.001 A 
HETATM   20  C   UNK N   1      24.081  12.787   9.299  0.00  0.00     0.015 A 
ENDBRANCH   8  14
BRANCH   9  21
HETATM   21  C   UNK N   1      19.348  17.706   9.060  0.00  0.00     0.042 C 
HETATM   22  C   UNK N   1      17.914  17.400   9.456  0.00  0.00     0.010 C 
ENDBRANCH   9  21
TORSDOF 2
ENDMDL
MODEL 6
REMARK VINA RESULT:      -6.3      3.951      5.822
REMARK  2 active torsions:
REMARK  status: ('A' for Active; 'I' for Inactive)
REMARK    1  A    between atoms: C_9  and  C_15 
REMARK    2  A    between atoms: C_10  and  C_12 
ROOT
HETATM    1  S   UNK N   1      34.117  13.827   7.287  0.00  0.00    -0.076 SA
HETATM    2  O   UNK N   1      35.635  17.584  10.115  0.00  0.00    -0.271 OA
HETATM    3  N   UNK N   1      34.787  15.847   8.982  0.00  0.00    -0.314 N 
HETATM    4  N   UNK N   1      32.811  18.124   8.365  0.00  0.00    -0.380 N 
ATOM      5  HN  UNK N   1      32.333  18.929   8.772  1.00  0.00     0.160 HD
HETATM    6  C   UNK N   1      32.703  15.872   7.461  0.00  0.00     0.026 A 
HETATM    7  C   UNK N   1      33.919  15.324   7.976  0.00  0.00     0.091 A 
HETATM    8  C   UNK N   1      32.056  17.166   7.922  0.00  0.00     0.053 C 
HETATM    9  C   UNK N   1      32.790  13.804   6.308  0.00  0.00    -0.015 A 
HETATM   10  C   UNK N   1      32.108  15.004   6.506  0.00  0.00     0.031 A 
HETATM   11  C   UNK N   1      34.246  18.173   8.344  0.00  0.00     0.223 C 
HETATM   12  C   UNK N   1      34.897  17.178   9.231  0.00  0.00     0.242 C 
HETATM   13  C   UNK N   1      35.637  14.929   9.712  0.00  0.00     0.160 C 
ENDROOT
BRANCH   8  14
HETATM   14  C   UNK N   1      30.553  17.511   7.885  0.00  0.00     0.013 A 
HETATM   15  C   UNK N   1      29.648  17.681   6.768  0.00  0.00     0.046 A 
HETATM   16 Cl   UNK N   1      29.988  17.502   5.062  0.00  0.00    -0.083 Cl
HETATM   17  C   UNK N   1      28.303  18.002   7.007  0.00  0.00     0.025 A 
HETATM   18  C   UNK N   1      27.800  18.150   8.292  0.00  0.00     0.002 A 
HETATM   19  C   UNK N   1      28.638  17.972   9.377  0.00  0.00     0.001 A 
HETATM   20  C   UNK N   1      29.978  17.664   9.172  0.00  0.00     0.015 A 
ENDBRANCH   8  14
BRANCH   9  21
HETATM   21  C   UNK N   1      32.326  12.697   5.413  0.00  0.00     0.042 C 
HETATM   22  C   UNK N   1      32.785  12.870   3.976  0.00  0.00     0.010 C 
ENDBRANCH   9  21
TORSDOF 2
ENDMDL
MODEL 7
REMARK VINA RESULT:      -6.3     10.931     12.981
REMARK  2 active torsions:
REMARK  status: ('A' for Active; 'I' for Inactive)
REMARK    1  A    between atoms: C_9  and  C_15 
REMARK    2  A    between atoms: C_10  and  C_12 
ROOT
HETATM    1  S   UNK N   1      28.775  27.955  -3.701  0.00  0.00    -0.076 SA
HETATM    2  O   UNK N   1      24.767  25.741  -5.558  0.00  0.00    -0.271 OA
HETATM    3  N   UNK N   1      26.572  26.603  -4.547  0.00  0.00    -0.314 N 
HETATM    4  N   UNK N   1      27.636  23.998  -5.793  0.00  0.00    -0.380 N 
ATOM      5  HN  UNK N   1      27.402  23.023  -5.982  1.00  0.00     0.160 HD
HETATM    6  C   UNK N   1      28.959  25.626  -4.568  0.00  0.00     0.026 A 
HETATM    7  C   UNK N   1      27.986  26.652  -4.361  0.00  0.00     0.091 A 
HETATM    8  C   UNK N   1      28.660  24.208  -5.024  0.00  0.00     0.053 C 
HETATM    9  C   UNK N   1      30.313  27.360  -3.691  0.00  0.00    -0.015 A 
HETATM   10  C   UNK N   1      30.260  26.065  -4.206  0.00  0.00     0.031 A 
HETATM   11  C   UNK N   1      26.799  24.990  -6.407  0.00  0.00     0.223 C 
HETATM   12  C   UNK N   1      25.982  25.770  -5.444  0.00  0.00     0.242 C 
HETATM   13  C   UNK N   1      25.740  27.528  -3.805  0.00  0.00     0.160 C 
ENDROOT
BRANCH   8  14
HETATM   14  C   UNK N   1      29.484  22.943  -4.707  0.00  0.00     0.013 A 
HETATM   15  C   UNK N   1      29.957  22.414  -3.446  0.00  0.00     0.046 A 
HETATM   16 Cl   UNK N   1      29.694  23.049  -1.838  0.00  0.00    -0.083 Cl
HETATM   17  C   UNK N   1      30.703  21.226  -3.428  0.00  0.00     0.025 A 
HETATM   18  C   UNK N   1      30.995  20.524  -4.589  0.00  0.00     0.002 A 
HETATM   19  C   UNK N   1      30.538  20.996  -5.805  0.00  0.00     0.001 A 
HETATM   20  C   UNK N   1      29.805  22.178  -5.856  0.00  0.00     0.015 A 
ENDBRANCH   8  14
BRANCH   9  21
HETATM   21  C   UNK N   1      31.552  28.022  -3.170  0.00  0.00     0.042 C 
HETATM   22  C   UNK N   1      31.292  28.870  -1.937  0.00  0.00     0.010 C 
ENDBRANCH   9  21
TORSDOF 2
ENDMDL
MODEL 8
REMARK VINA RESULT:      -6.2     15.593     18.436
REMARK  2 active torsions:
REMARK  status: ('A' for Active; 'I' for Inactive)
REMARK    1  A    between atoms: C_9  and  C_15 
REMARK    2  A    between atoms: C_10  and  C_12 
ROOT
HETATM    1  S   UNK N   1      33.093   8.272  22.115  0.00  0.00    -0.076 SA
HETATM    2  O   UNK N   1      37.522   9.902  23.578  0.00  0.00    -0.271 OA
HETATM    3  N   UNK N   1      35.450   9.375  22.907  0.00  0.00    -0.314 N 
HETATM    4  N   UNK N   1      36.793  10.381  20.328  0.00  0.00    -0.380 N 
ATOM      5  HN  UNK N   1      37.437  11.081  19.957  1.00  0.00     0.160 HD
HETATM    6  C   UNK N   1      34.532   9.511  20.500  0.00  0.00     0.026 A 
HETATM    7  C   UNK N   1      34.517   9.088  21.866  0.00  0.00     0.091 A 
HETATM    8  C   UNK N   1      35.580  10.411  19.869  0.00  0.00     0.053 C 
HETATM    9  C   UNK N   1      32.471   8.347  20.590  0.00  0.00    -0.015 A 
HETATM   10  C   UNK N   1      33.380   9.055  19.805  0.00  0.00     0.031 A 
HETATM   11  C   UNK N   1      37.327   9.470  21.301  0.00  0.00     0.223 C 
HETATM   12  C   UNK N   1      36.760   9.640  22.662  0.00  0.00     0.242 C 
HETATM   13  C   UNK N   1      34.999   9.307  24.283  0.00  0.00     0.160 C 
ENDROOT
BRANCH   8  14
HETATM   14  C   UNK N   1      35.379  11.362  18.671  0.00  0.00     0.013 A 
HETATM   15  C   UNK N   1      35.196  11.084  17.262  0.00  0.00     0.046 A 
HETATM   16 Cl   UNK N   1      35.104   9.529  16.469  0.00  0.00    -0.083 Cl
HETATM   17  C   UNK N   1      35.035  12.147  16.361  0.00  0.00     0.025 A 
HETATM   18  C   UNK N   1      35.031  13.470  16.777  0.00  0.00     0.002 A 
HETATM   19  C   UNK N   1      35.183  13.763  18.120  0.00  0.00     0.001 A 
HETATM   20  C   UNK N   1      35.356  12.731  19.037  0.00  0.00     0.015 A 
ENDBRANCH   8  14
BRANCH   9  21
HETATM   21  C   UNK N   1      31.150   7.829  20.109  0.00  0.00     0.042 C 
HETATM   22  C   UNK N   1      30.816   6.457  20.669  0.00  0.00     0.010 C 
ENDBRANCH   9  21
TORSDOF 2
ENDMDL
MODEL 9
REMARK VINA RESULT:      -6.2      3.973      6.223
REMARK  2 active torsions:
REMARK  status: ('A' for Active; 'I' for Inactive)
REMARK    1  A    between atoms: C_9  and  C_15 
REMARK    2  A    between atoms: C_10  and  C_12 
ROOT
HETATM    1  S   UNK N   1      35.823  14.344   6.557  0.00  0.00    -0.076 SA
HETATM    2  O   UNK N   1      35.041  17.294  10.442  0.00  0.00    -0.271 OA
HETATM    3  N   UNK N   1      35.203  15.859   8.730  0.00  0.00    -0.314 N 
HETATM    4  N   UNK N   1      33.137  17.912   7.737  0.00  0.00    -0.380 N 
ATOM      5  HN  UNK N   1      32.346  18.487   8.028  1.00  0.00     0.160 HD
HETATM    6  C   UNK N   1      33.987  16.027   6.461  0.00  0.00     0.026 A 
HETATM    7  C   UNK N   1      34.985  15.532   7.357  0.00  0.00     0.091 A 
HETATM    8  C   UNK N   1      32.901  17.026   6.818  0.00  0.00     0.053 C 
HETATM    9  C   UNK N   1      35.062  14.418   5.095  0.00  0.00    -0.015 A 
HETATM   10  C   UNK N   1      34.076  15.399   5.190  0.00  0.00     0.031 A 
HETATM   11  C   UNK N   1      34.391  18.168   8.386  0.00  0.00     0.223 C 
HETATM   12  C   UNK N   1      34.858  17.061   9.258  0.00  0.00     0.242 C 
HETATM   13  C   UNK N   1      35.887  14.898   9.572  0.00  0.00     0.160 C 
ENDROOT
BRANCH   8  14
HETATM   14  C   UNK N   1      31.509  17.149   6.164  0.00  0.00     0.013 A 
HETATM   15  C   UNK N   1      31.127  17.349   4.782  0.00  0.00     0.046 A 
HETATM   16 Cl   UNK N   1      32.164  17.476   3.380  0.00  0.00    -0.083 Cl
HETATM   17  C   UNK N   1      29.768  17.431   4.442  0.00  0.00     0.025 A 
HETATM   18  C   UNK N   1      28.764  17.312   5.393  0.00  0.00     0.002 A 
HETATM   19  C   UNK N   1      29.101  17.099   6.717  0.00  0.00     0.001 A 
HETATM   20  C   UNK N   1      30.440  17.025   7.086  0.00  0.00     0.015 A 
ENDBRANCH   8  14
BRANCH   9  21
HETATM   21  C   UNK N   1      35.303  13.563   3.889  0.00  0.00     0.042 C 
HETATM   22  C   UNK N   1      34.392  13.916   2.726  0.00  0.00     0.010 C 
ENDBRANCH   9  21
TORSDOF 2
ENDMDL
