MODEL 1
REMARK VINA RESULT:      -4.1      0.000      0.000
REMARK  3 active torsions:
REMARK  status: ('A' for Active; 'I' for Inactive)
REMARK    1  A    between atoms: O_4  and  C_6 
REMARK    2  A    between atoms: O_5  and  C_6 
REMARK    3  A    between atoms: C_6  and  C_7 
ROOT
HETATM    1  C   UNK N   1      20.710  20.924   1.044  0.00  0.00     0.163 C 
ENDROOT
BRANCH   1   2
HETATM    2  O   UNK N   1      20.594  20.249  -0.120  0.00  0.00    -0.775 OA
HETATM    3  H   UNK N   1      20.504  19.318  -0.115  0.00  0.00     0.167 HD
ENDBRANCH   1   2
BRANCH   1   4
HETATM    4  O   UNK N   1      20.551  22.266   1.006  0.00  0.00    -0.775 OA
HETATM    5  H   UNK N   1      21.284  22.819   0.822  0.00  0.00     0.167 HD
ENDBRANCH   1   4
BRANCH   1   6
HETATM    6  C   UNK N   1      21.016  20.181   2.366  0.00  0.00     0.270 A 
HETATM    7 Cl   UNK N   1      21.240  19.281   3.880  0.00  0.00    -0.072 Cl
HETATM    8 Cl   UNK N   1      19.442  19.388   2.685  0.00  0.00    -0.072 Cl
HETATM    9 Cl   UNK N   1      22.731  20.605   2.693  0.00  0.00    -0.072 Cl
ENDBRANCH   1   6
TORSDOF 3
ENDMDL
MODEL 2
REMARK VINA RESULT:      -4.0      0.188      2.252
REMARK  3 active torsions:
REMARK  status: ('A' for Active; 'I' for Inactive)
REMARK    1  A    between atoms: O_4  and  C_6 
REMARK    2  A    between atoms: O_5  and  C_6 
REMARK    3  A    between atoms: C_6  and  C_7 
ROOT
HETATM    1  C   UNK N   1      20.720  20.730   1.059  0.00  0.00     0.163 C 
ENDROOT
BRANCH   1   2
HETATM    2  O   UNK N   1      20.606  22.073   0.966  0.00  0.00    -0.775 OA
HETATM    3  H   UNK N   1      21.332  22.586   0.670  0.00  0.00     0.167 HD
ENDBRANCH   1   2
BRANCH   1   4
HETATM    4  O   UNK N   1      20.629  20.016  -0.086  0.00  0.00    -0.775 OA
HETATM    5  H   UNK N   1      20.548  20.458  -0.908  0.00  0.00     0.167 HD
ENDBRANCH   1   4
BRANCH   1   6
HETATM    6  C   UNK N   1      20.944  20.044   2.426  0.00  0.00     0.270 A 
HETATM    7 Cl   UNK N   1      21.326  19.311   3.998  0.00  0.00    -0.072 Cl
HETATM    8 Cl   UNK N   1      22.627  20.542   2.787  0.00  0.00    -0.072 Cl
HETATM    9 Cl   UNK N   1      19.380  19.217   2.737  0.00  0.00    -0.072 Cl
ENDBRANCH   1   6
TORSDOF 3
ENDMDL
MODEL 3
REMARK VINA RESULT:      -3.9     12.278     12.877
REMARK  3 active torsions:
REMARK  status: ('A' for Active; 'I' for Inactive)
REMARK    1  A    between atoms: O_4  and  C_6 
REMARK    2  A    between atoms: O_5  and  C_6 
REMARK    3  A    between atoms: C_6  and  C_7 
ROOT
HETATM    1  C   UNK N   1      23.062  11.966  12.150  0.00  0.00     0.163 C 
ENDROOT
BRANCH   1   2
HETATM    2  O   UNK N   1      24.378  12.259  12.228  0.00  0.00    -0.775 OA
HETATM    3  H   UNK N   1      25.000  11.580  12.397  0.00  0.00     0.167 HD
ENDBRANCH   1   2
BRANCH   1   4
HETATM    4  O   UNK N   1      22.537  11.190  13.125  0.00  0.00    -0.775 OA
HETATM    5  H   UNK N   1      21.989  11.570  13.782  0.00  0.00     0.167 HD
ENDBRANCH   1   4
BRANCH   1   6
HETATM    6  C   UNK N   1      22.196  12.502  10.986  0.00  0.00     0.270 A 
HETATM    7 Cl   UNK N   1      21.092  13.082   9.722  0.00  0.00    -0.072 Cl
HETATM    8 Cl   UNK N   1      20.548  12.151  11.596  0.00  0.00    -0.072 Cl
HETATM    9 Cl   UNK N   1      23.410  13.116   9.813  0.00  0.00    -0.072 Cl
ENDBRANCH   1   6
TORSDOF 3
ENDMDL
MODEL 4
REMARK VINA RESULT:      -3.8     12.329     13.038
REMARK  3 active torsions:
REMARK  status: ('A' for Active; 'I' for Inactive)
REMARK    1  A    between atoms: O_4  and  C_6 
REMARK    2  A    between atoms: O_5  and  C_6 
REMARK    3  A    between atoms: C_6  and  C_7 
ROOT
HETATM    1  C   UNK N   1      23.098  11.926  12.128  0.00  0.00     0.163 C 
ENDROOT
BRANCH   1   2
HETATM    2  O   UNK N   1      24.394  12.302  12.194  0.00  0.00    -0.775 OA
HETATM    3  H   UNK N   1      24.889  12.419  11.408  0.00  0.00     0.167 HD
ENDBRANCH   1   2
BRANCH   1   4
HETATM    4  O   UNK N   1      22.588  11.257  13.186  0.00  0.00    -0.775 OA
HETATM    5  H   UNK N   1      21.967  11.674  13.749  0.00  0.00     0.167 HD
ENDBRANCH   1   4
BRANCH   1   6
HETATM    6  C   UNK N   1      22.238  12.254  10.885  0.00  0.00     0.270 A 
HETATM    7 Cl   UNK N   1      21.366  12.639   9.387  0.00  0.00    -0.072 Cl
HETATM    8 Cl   UNK N   1      23.507  12.479   9.641  0.00  0.00    -0.072 Cl
HETATM    9 Cl   UNK N   1      20.557  12.187  11.514  0.00  0.00    -0.072 Cl
ENDBRANCH   1   6
TORSDOF 3
ENDMDL
MODEL 5
REMARK VINA RESULT:      -3.6     11.905     12.589
REMARK  3 active torsions:
REMARK  status: ('A' for Active; 'I' for Inactive)
REMARK    1  A    between atoms: O_4  and  C_6 
REMARK    2  A    between atoms: O_5  and  C_6 
REMARK    3  A    between atoms: C_6  and  C_7 
ROOT
HETATM    1  C   UNK N   1      21.246  12.283  11.030  0.00  0.00     0.163 C 
ENDROOT
BRANCH   1   2
HETATM    2  O   UNK N   1      20.666  12.883   9.968  0.00  0.00    -0.775 OA
HETATM    3  H   UNK N   1      20.235  13.707  10.073  0.00  0.00     0.167 HD
ENDBRANCH   1   2
BRANCH   1   4
HETATM    4  O   UNK N   1      20.431  11.767  11.978  0.00  0.00    -0.775 OA
HETATM    5  H   UNK N   1      20.163  10.871  11.927  0.00  0.00     0.167 HD
ENDBRANCH   1   4
BRANCH   1   6
HETATM    6  C   UNK N   1      22.785  12.195  11.150  0.00  0.00     0.270 A 
HETATM    7 Cl   UNK N   1      24.560  12.123  11.155  0.00  0.00    -0.072 Cl
HETATM    8 Cl   UNK N   1      23.280  12.516   9.458  0.00  0.00    -0.072 Cl
HETATM    9 Cl   UNK N   1      23.047  11.836  12.891  0.00  0.00    -0.072 Cl
ENDBRANCH   1   6
TORSDOF 3
ENDMDL
MODEL 6
REMARK VINA RESULT:      -3.6     11.919     12.581
REMARK  3 active torsions:
REMARK  status: ('A' for Active; 'I' for Inactive)
REMARK    1  A    between atoms: O_4  and  C_6 
REMARK    2  A    between atoms: O_5  and  C_6 
REMARK    3  A    between atoms: C_6  and  C_7 
ROOT
HETATM    1  C   UNK N   1      21.079  12.299  11.113  0.00  0.00     0.163 C 
ENDROOT
BRANCH   1   2
HETATM    2  O   UNK N   1      20.360  11.678  12.073  0.00  0.00    -0.775 OA
HETATM    3  H   UNK N   1      20.469  10.760  12.220  0.00  0.00     0.167 HD
ENDBRANCH   1   2
BRANCH   1   4
HETATM    4  O   UNK N   1      20.398  13.003  10.181  0.00  0.00    -0.775 OA
HETATM    5  H   UNK N   1      20.792  13.752   9.779  0.00  0.00     0.167 HD
ENDBRANCH   1   4
BRANCH   1   6
HETATM    6  C   UNK N   1      22.622  12.204  11.090  0.00  0.00     0.270 A 
HETATM    7 Cl   UNK N   1      24.390  12.067  11.196  0.00  0.00    -0.072 Cl
HETATM    8 Cl   UNK N   1      22.971  11.863  12.813  0.00  0.00    -0.072 Cl
HETATM    9 Cl   UNK N   1      23.030  12.493   9.364  0.00  0.00    -0.072 Cl
ENDBRANCH   1   6
TORSDOF 3
ENDMDL
MODEL 7
REMARK VINA RESULT:      -3.6     13.823     14.442
REMARK  3 active torsions:
REMARK  status: ('A' for Active; 'I' for Inactive)
REMARK    1  A    between atoms: O_4  and  C_6 
REMARK    2  A    between atoms: O_5  and  C_6 
REMARK    3  A    between atoms: C_6  and  C_7 
ROOT
HETATM    1  C   UNK N   1      34.192  18.067   8.541  0.00  0.00     0.163 C 
ENDROOT
BRANCH   1   2
HETATM    2  O   UNK N   1      34.377  17.351   9.671  0.00  0.00    -0.775 OA
HETATM    3  H   UNK N   1      33.696  17.300  10.311  0.00  0.00     0.167 HD
ENDBRANCH   1   2
BRANCH   1   4
HETATM    4  O   UNK N   1      35.043  19.091   8.305  0.00  0.00    -0.775 OA
HETATM    5  H   UNK N   1      35.922  18.916   8.034  0.00  0.00     0.167 HD
ENDBRANCH   1   4
BRANCH   1   6
HETATM    6  C   UNK N   1      33.048  17.721   7.559  0.00  0.00     0.270 A 
HETATM    7 Cl   UNK N   1      31.829  17.297   6.340  0.00  0.00    -0.072 Cl
HETATM    8 Cl   UNK N   1      33.976  17.301   6.086  0.00  0.00    -0.072 Cl
HETATM    9 Cl   UNK N   1      31.567  17.967   8.546  0.00  0.00    -0.072 Cl
ENDBRANCH   1   6
TORSDOF 3
ENDMDL
MODEL 8
REMARK VINA RESULT:      -3.5     11.286     11.850
REMARK  3 active torsions:
REMARK  status: ('A' for Active; 'I' for Inactive)
REMARK    1  A    between atoms: O_4  and  C_6 
REMARK    2  A    between atoms: O_5  and  C_6 
REMARK    3  A    between atoms: C_6  and  C_7 
ROOT
HETATM    1  C   UNK N   1      31.297  22.013  -2.622  0.00  0.00     0.163 C 
ENDROOT
BRANCH   1   2
HETATM    2  O   UNK N   1      32.406  21.359  -2.211  0.00  0.00    -0.775 OA
HETATM    3  H   UNK N   1      33.105  21.200  -2.812  0.00  0.00     0.167 HD
ENDBRANCH   1   2
BRANCH   1   4
HETATM    4  O   UNK N   1      30.796  22.967  -1.804  0.00  0.00    -0.775 OA
HETATM    5  H   UNK N   1      31.369  23.595  -1.412  0.00  0.00     0.167 HD
ENDBRANCH   1   4
BRANCH   1   6
HETATM    6  C   UNK N   1      30.633  21.676  -3.977  0.00  0.00     0.270 A 
HETATM    7 Cl   UNK N   1      29.948  21.179  -5.538  0.00  0.00    -0.072 Cl
HETATM    8 Cl   UNK N   1      31.494  20.168  -4.416  0.00  0.00    -0.072 Cl
HETATM    9 Cl   UNK N   1      29.450  23.010  -4.202  0.00  0.00    -0.072 Cl
ENDBRANCH   1   6
TORSDOF 3
ENDMDL
MODEL 9
REMARK VINA RESULT:      -3.5     11.306     11.878
REMARK  3 active torsions:
REMARK  status: ('A' for Active; 'I' for Inactive)
REMARK    1  A    between atoms: O_4  and  C_6 
REMARK    2  A    between atoms: O_5  and  C_6 
REMARK    3  A    between atoms: C_6  and  C_7 
ROOT
HETATM    1  C   UNK N   1      31.336  21.988  -2.619  0.00  0.00     0.163 C 
ENDROOT
BRANCH   1   2
HETATM    2  O   UNK N   1      30.815  22.949  -1.826  0.00  0.00    -0.775 OA
HETATM    3  H   UNK N   1      29.893  22.974  -1.665  0.00  0.00     0.167 HD
ENDBRANCH   1   2
BRANCH   1   4
HETATM    4  O   UNK N   1      32.444  21.350  -2.180  0.00  0.00    -0.775 OA
HETATM    5  H   UNK N   1      32.362  20.579  -1.654  0.00  0.00     0.167 HD
ENDBRANCH   1   4
BRANCH   1   6
HETATM    6  C   UNK N   1      30.685  21.640  -3.978  0.00  0.00     0.270 A 
HETATM    7 Cl   UNK N   1      29.862  21.351  -5.525  0.00  0.00    -0.072 Cl
HETATM    8 Cl   UNK N   1      29.516  22.985  -4.153  0.00  0.00    -0.072 Cl
HETATM    9 Cl   UNK N   1      31.532  20.133  -4.470  0.00  0.00    -0.072 Cl
ENDBRANCH   1   6
TORSDOF 3
ENDMDL
