MODEL 1
REMARK VINA RESULT:      -7.3      0.000      0.000
REMARK  1 active torsions:
REMARK  status: ('A' for Active; 'I' for Inactive)
REMARK    1  A    between atoms: C_9  and  C_11 
ROOT
HETATM    1 Cl   UNK N   1      28.295  17.530   9.456  0.00  0.00    -0.084 Cl
HETATM    2  O   UNK N   1      32.484  16.581   2.584  0.00  0.00    -0.271 OA
HETATM    3  N   UNK N   1      31.927  17.122   4.689  0.00  0.00    -0.320 N 
HETATM    4  N   UNK N   1      29.264  16.917   3.227  0.00  0.00    -0.380 N 
ATOM      5  HN  UNK N   1      28.792  17.116   2.344  1.00  0.00     0.160 HD
HETATM    6  C   UNK N   1      29.554  17.375   5.610  0.00  0.00     0.020 A 
HETATM    7  C   UNK N   1      30.979  17.183   5.774  0.00  0.00     0.049 A 
HETATM    8  C   UNK N   1      28.846  17.546   4.274  0.00  0.00     0.054 C 
HETATM    9  C   UNK N   1      30.332  15.968   3.197  0.00  0.00     0.223 C 
HETATM   10  C   UNK N   1      31.632  16.609   3.464  0.00  0.00     0.241 C 
HETATM   11  C   UNK N   1      28.771  17.452   6.772  0.00  0.00     0.040 A 
HETATM   12  C   UNK N   1      31.502  17.136   7.083  0.00  0.00     0.032 A 
HETATM   13  C   UNK N   1      33.295  17.529   4.943  0.00  0.00     0.159 C 
HETATM   14  C   UNK N   1      29.323  17.380   8.048  0.00  0.00     0.035 A 
HETATM   15  C   UNK N   1      30.690  17.229   8.204  0.00  0.00     0.026 A 
ENDROOT
BRANCH   8  16
HETATM   16  C   UNK N   1      27.566  18.351   4.074  0.00  0.00     0.030 A 
HETATM   17  C   UNK N   1      27.406  19.761   4.240  0.00  0.00     0.128 A 
HETATM   18  F   UNK N   1      28.421  20.589   4.562  0.00  0.00    -0.205 F 
HETATM   19  C   UNK N   1      26.156  20.357   4.024  0.00  0.00     0.043 A 
HETATM   20  C   UNK N   1      25.057  19.598   3.633  0.00  0.00     0.003 A 
HETATM   21  C   UNK N   1      25.197  18.230   3.440  0.00  0.00     0.001 A 
HETATM   22  C   UNK N   1      26.431  17.621   3.657  0.00  0.00     0.017 A 
ENDBRANCH   8  16
TORSDOF 1
ENDMDL
MODEL 2
REMARK VINA RESULT:      -7.0      8.809     10.763
REMARK  1 active torsions:
REMARK  status: ('A' for Active; 'I' for Inactive)
REMARK    1  A    between atoms: C_9  and  C_11 
ROOT
HETATM    1 Cl   UNK N   1      20.419  11.014   4.862  0.00  0.00    -0.084 Cl
HETATM    2  O   UNK N   1      20.761  18.671   7.493  0.00  0.00    -0.271 OA
HETATM    3  N   UNK N   1      20.981  16.839   6.216  0.00  0.00    -0.320 N 
HETATM    4  N   UNK N   1      20.671  15.761   9.048  0.00  0.00    -0.380 N 
ATOM      5  HN  UNK N   1      20.923  15.924  10.023  1.00  0.00     0.160 HD
HETATM    6  C   UNK N   1      20.865  14.413   7.018  0.00  0.00     0.020 A 
HETATM    7  C   UNK N   1      20.808  15.426   5.987  0.00  0.00     0.049 A 
HETATM    8  C   UNK N   1      21.119  14.685   8.493  0.00  0.00     0.054 C 
HETATM    9  C   UNK N   1      19.852  16.745   8.411  0.00  0.00     0.223 C 
HETATM   10  C   UNK N   1      20.591  17.465   7.360  0.00  0.00     0.241 C 
HETATM   11  C   UNK N   1      20.717  13.074   6.623  0.00  0.00     0.040 A 
HETATM   12  C   UNK N   1      20.659  15.010   4.647  0.00  0.00     0.032 A 
HETATM   13  C   UNK N   1      21.498  17.657   5.136  0.00  0.00     0.159 C 
HETATM   14  C   UNK N   1      20.551  12.705   5.292  0.00  0.00     0.035 A 
HETATM   15  C   UNK N   1      20.529  13.672   4.302  0.00  0.00     0.026 A 
ENDROOT
BRANCH   8  16
HETATM   16  C   UNK N   1      21.802  13.707   9.445  0.00  0.00     0.030 A 
HETATM   17  C   UNK N   1      21.189  12.980  10.511  0.00  0.00     0.128 A 
HETATM   18  F   UNK N   1      19.870  13.037  10.785  0.00  0.00    -0.205 F 
HETATM   19  C   UNK N   1      21.957  12.119  11.307  0.00  0.00     0.043 A 
HETATM   20  C   UNK N   1      23.317  11.945  11.071  0.00  0.00     0.003 A 
HETATM   21  C   UNK N   1      23.927  12.621  10.023  0.00  0.00     0.001 A 
HETATM   22  C   UNK N   1      23.180  13.486   9.226  0.00  0.00     0.017 A 
ENDBRANCH   8  16
TORSDOF 1
ENDMDL
MODEL 3
REMARK VINA RESULT:      -6.7     11.951     13.129
REMARK  1 active torsions:
REMARK  status: ('A' for Active; 'I' for Inactive)
REMARK    1  A    between atoms: C_9  and  C_11 
ROOT
HETATM    1 Cl   UNK N   1      31.069  23.276  -3.735  0.00  0.00    -0.084 Cl
HETATM    2  O   UNK N   1      25.164  21.686  -9.053  0.00  0.00    -0.271 OA
HETATM    3  N   UNK N   1      27.187  22.036  -8.149  0.00  0.00    -0.320 N 
HETATM    4  N   UNK N   1      25.254  23.415  -6.243  0.00  0.00    -0.380 N 
ATOM      5  HN  UNK N   1      24.401  23.974  -6.198  1.00  0.00     0.160 HD
HETATM    6  C   UNK N   1      27.672  23.233  -5.941  0.00  0.00     0.020 A 
HETATM    7  C   UNK N   1      28.037  22.350  -7.027  0.00  0.00     0.049 A 
HETATM    8  C   UNK N   1      26.344  23.965  -5.822  0.00  0.00     0.054 C 
HETATM    9  C   UNK N   1      25.139  22.091  -6.770  0.00  0.00     0.223 C 
HETATM   10  C   UNK N   1      25.831  21.963  -8.064  0.00  0.00     0.241 C 
HETATM   11  C   UNK N   1      28.631  23.466  -4.943  0.00  0.00     0.040 A 
HETATM   12  C   UNK N   1      29.344  21.818  -7.048  0.00  0.00     0.032 A 
HETATM   13  C   UNK N   1      27.809  21.676  -9.408  0.00  0.00     0.159 C 
HETATM   14  C   UNK N   1      29.904  22.906  -4.988  0.00  0.00     0.035 A 
HETATM   15  C   UNK N   1      30.263  22.087  -6.044  0.00  0.00     0.026 A 
ENDROOT
BRANCH   8  16
HETATM   16  C   UNK N   1      26.160  25.310  -5.127  0.00  0.00     0.030 A 
HETATM   17  C   UNK N   1      26.399  25.603  -3.750  0.00  0.00     0.128 A 
HETATM   18  F   UNK N   1      26.880  24.698  -2.873  0.00  0.00    -0.205 F 
HETATM   19  C   UNK N   1      26.174  26.895  -3.256  0.00  0.00     0.043 A 
HETATM   20  C   UNK N   1      25.732  27.916  -4.092  0.00  0.00     0.003 A 
HETATM   21  C   UNK N   1      25.520  27.660  -5.440  0.00  0.00     0.001 A 
HETATM   22  C   UNK N   1      25.731  26.379  -5.946  0.00  0.00     0.017 A 
ENDBRANCH   8  16
TORSDOF 1
ENDMDL
MODEL 4
REMARK VINA RESULT:      -6.5      4.077      5.636
REMARK  1 active torsions:
REMARK  status: ('A' for Active; 'I' for Inactive)
REMARK    1  A    between atoms: C_9  and  C_11 
ROOT
HETATM    1 Cl   UNK N   1      31.574  12.804   5.030  0.00  0.00    -0.084 Cl
HETATM    2  O   UNK N   1      35.574  17.638  10.159  0.00  0.00    -0.271 OA
HETATM    3  N   UNK N   1      34.758  15.814   9.141  0.00  0.00    -0.320 N 
HETATM    4  N   UNK N   1      32.841  18.046   8.353  0.00  0.00    -0.380 N 
ATOM      5  HN  UNK N   1      32.367  18.883   8.695  1.00  0.00     0.160 HD
HETATM    6  C   UNK N   1      32.732  15.730   7.581  0.00  0.00     0.020 A 
HETATM    7  C   UNK N   1      33.958  15.183   8.120  0.00  0.00     0.049 A 
HETATM    8  C   UNK N   1      32.100  17.045   8.013  0.00  0.00     0.054 C 
HETATM    9  C   UNK N   1      34.269  18.082   8.294  0.00  0.00     0.223 C 
HETATM   10  C   UNK N   1      34.874  17.163   9.273  0.00  0.00     0.241 C 
HETATM   11  C   UNK N   1      32.050  14.970   6.618  0.00  0.00     0.040 A 
HETATM   12  C   UNK N   1      34.369  13.905   7.687  0.00  0.00     0.032 A 
HETATM   13  C   UNK N   1      35.563  14.974  10.005  0.00  0.00     0.159 C 
HETATM   14  C   UNK N   1      32.498  13.720   6.201  0.00  0.00     0.035 A 
HETATM   15  C   UNK N   1      33.654  13.184   6.740  0.00  0.00     0.026 A 
ENDROOT
BRANCH   8  16
HETATM   16  C   UNK N   1      30.603  17.333   7.984  0.00  0.00     0.030 A 
HETATM   17  C   UNK N   1      29.802  17.587   6.829  0.00  0.00     0.128 A 
HETATM   18  F   UNK N   1      30.285  17.555   5.570  0.00  0.00    -0.205 F 
HETATM   19  C   UNK N   1      28.431  17.844   6.966  0.00  0.00     0.043 A 
HETATM   20  C   UNK N   1      27.822  17.843   8.218  0.00  0.00     0.003 A 
HETATM   21  C   UNK N   1      28.577  17.571   9.351  0.00  0.00     0.001 A 
HETATM   22  C   UNK N   1      29.942  17.320   9.233  0.00  0.00     0.017 A 
ENDBRANCH   8  16
TORSDOF 1
ENDMDL
MODEL 5
REMARK VINA RESULT:      -6.4     14.174     15.695
REMARK  1 active torsions:
REMARK  status: ('A' for Active; 'I' for Inactive)
REMARK    1  A    between atoms: C_9  and  C_11 
ROOT
HETATM    1 Cl   UNK N   1      29.387  28.039 -10.229  0.00  0.00    -0.084 Cl
HETATM    2  O   UNK N   1      25.300  27.842  -3.234  0.00  0.00    -0.271 OA
HETATM    3  N   UNK N   1      26.907  28.193  -4.760  0.00  0.00    -0.320 N 
HETATM    4  N   UNK N   1      25.198  25.970  -5.950  0.00  0.00    -0.380 N 
ATOM      5  HN  UNK N   1      24.672  25.126  -5.724  1.00  0.00     0.160 HD
HETATM    6  C   UNK N   1      27.120  27.029  -7.027  0.00  0.00     0.020 A 
HETATM    7  C   UNK N   1      27.419  28.102  -6.105  0.00  0.00     0.049 A 
HETATM    8  C   UNK N   1      26.229  25.836  -6.717  0.00  0.00     0.054 C 
HETATM    9  C   UNK N   1      24.734  27.200  -5.389  0.00  0.00     0.223 C 
HETATM   10  C   UNK N   1      25.680  27.731  -4.393  0.00  0.00     0.241 C 
HETATM   11  C   UNK N   1      27.732  27.069  -8.290  0.00  0.00     0.040 A 
HETATM   12  C   UNK N   1      28.340  29.093  -6.504  0.00  0.00     0.032 A 
HETATM   13  C   UNK N   1      27.689  28.905  -3.768  0.00  0.00     0.159 C 
HETATM   14  C   UNK N   1      28.622  28.075  -8.655  0.00  0.00     0.035 A 
HETATM   15  C   UNK N   1      28.931  29.084  -7.760  0.00  0.00     0.026 A 
ENDROOT
BRANCH   8  16
HETATM   16  C   UNK N   1      26.392  24.453  -7.340  0.00  0.00     0.030 A 
HETATM   17  C   UNK N   1      25.741  23.958  -8.511  0.00  0.00     0.128 A 
HETATM   18  F   UNK N   1      24.905  24.702  -9.265  0.00  0.00    -0.205 F 
HETATM   19  C   UNK N   1      25.991  22.653  -8.957  0.00  0.00     0.043 A 
HETATM   20  C   UNK N   1      26.882  21.823  -8.283  0.00  0.00     0.003 A 
HETATM   21  C   UNK N   1      27.546  22.293  -7.158  0.00  0.00     0.001 A 
HETATM   22  C   UNK N   1      27.303  23.585  -6.697  0.00  0.00     0.017 A 
ENDBRANCH   8  16
TORSDOF 1
ENDMDL
MODEL 6
REMARK VINA RESULT:      -6.3      4.422      7.016
REMARK  1 active torsions:
REMARK  status: ('A' for Active; 'I' for Inactive)
REMARK    1  A    between atoms: C_9  and  C_11 
ROOT
HETATM    1 Cl   UNK N   1      23.444  14.437   7.131  0.00  0.00    -0.084 Cl
HETATM    2  O   UNK N   1      23.395  21.201   2.668  0.00  0.00    -0.271 OA
HETATM    3  N   UNK N   1      22.736  19.338   3.730  0.00  0.00    -0.320 N 
HETATM    4  N   UNK N   1      25.740  18.986   3.368  0.00  0.00    -0.380 N 
ATOM      5  HN  UNK N   1      26.516  19.143   2.724  1.00  0.00     0.160 HD
HETATM    6  C   UNK N   1      24.250  17.439   4.534  0.00  0.00     0.020 A 
HETATM    7  C   UNK N   1      23.008  18.181   4.547  0.00  0.00     0.049 A 
HETATM    8  C   UNK N   1      25.449  17.761   3.654  0.00  0.00     0.054 C 
HETATM    9  C   UNK N   1      25.068  20.141   3.876  0.00  0.00     0.223 C 
HETATM   10  C   UNK N   1      23.691  20.235   3.361  0.00  0.00     0.241 C 
HETATM   11  C   UNK N   1      24.340  16.310   5.363  0.00  0.00     0.040 A 
HETATM   12  C   UNK N   1      21.950  17.703   5.349  0.00  0.00     0.032 A 
HETATM   13  C   UNK N   1      21.361  19.621   3.368  0.00  0.00     0.159 C 
HETATM   14  C   UNK N   1      23.280  15.881   6.156  0.00  0.00     0.035 A 
HETATM   15  C   UNK N   1      22.082  16.574   6.144  0.00  0.00     0.026 A 
ENDROOT
BRANCH   8  16
HETATM   16  C   UNK N   1      26.443  16.726   3.138  0.00  0.00     0.030 A 
HETATM   17  C   UNK N   1      26.153  15.598   2.310  0.00  0.00     0.128 A 
HETATM   18  F   UNK N   1      24.923  15.329   1.828  0.00  0.00    -0.205 F 
HETATM   19  C   UNK N   1      27.182  14.728   1.923  0.00  0.00     0.043 A 
HETATM   20  C   UNK N   1      28.497  14.949   2.320  0.00  0.00     0.003 A 
HETATM   21  C   UNK N   1      28.804  16.054   3.102  0.00  0.00     0.001 A 
HETATM   22  C   UNK N   1      27.793  16.925   3.502  0.00  0.00     0.017 A 
ENDBRANCH   8  16
TORSDOF 1
ENDMDL
MODEL 7
REMARK VINA RESULT:      -6.1      3.197      6.232
REMARK  1 active torsions:
REMARK  status: ('A' for Active; 'I' for Inactive)
REMARK    1  A    between atoms: C_9  and  C_11 
ROOT
HETATM    1 Cl   UNK N   1      30.103  13.438   3.404  0.00  0.00    -0.084 Cl
HETATM    2  O   UNK N   1      27.535  20.299   6.868  0.00  0.00    -0.271 OA
HETATM    3  N   UNK N   1      28.075  18.752   5.335  0.00  0.00    -0.320 N 
HETATM    4  N   UNK N   1      29.695  17.983   7.797  0.00  0.00    -0.380 N 
ATOM      5  HN  UNK N   1      30.233  18.358   8.579  1.00  0.00     0.160 HD
HETATM    6  C   UNK N   1      29.623  16.747   5.690  0.00  0.00     0.020 A 
HETATM    7  C   UNK N   1      28.586  17.454   4.970  0.00  0.00     0.049 A 
HETATM    8  C   UNK N   1      30.331  17.267   6.932  0.00  0.00     0.054 C 
HETATM    9  C   UNK N   1      28.301  18.297   7.753  0.00  0.00     0.223 C 
HETATM   10  C   UNK N   1      27.983  19.186   6.622  0.00  0.00     0.241 C 
HETATM   11  C   UNK N   1      30.037  15.507   5.180  0.00  0.00     0.040 A 
HETATM   12  C   UNK N   1      28.090  16.885   3.779  0.00  0.00     0.032 A 
HETATM   13  C   UNK N   1      27.533  19.600   4.292  0.00  0.00     0.159 C 
HETATM   14  C   UNK N   1      29.509  14.968   4.010  0.00  0.00     0.035 A 
HETATM   15  C   UNK N   1      28.539  15.660   3.306  0.00  0.00     0.026 A 
ENDROOT
BRANCH   8  16
HETATM   16  C   UNK N   1      31.766  16.918   7.315  0.00  0.00     0.030 A 
HETATM   17  C   UNK N   1      32.946  17.196   6.560  0.00  0.00     0.128 A 
HETATM   18  F   UNK N   1      32.938  17.868   5.391  0.00  0.00    -0.205 F 
HETATM   19  C   UNK N   1      34.201  16.803   7.047  0.00  0.00     0.043 A 
HETATM   20  C   UNK N   1      34.324  16.152   8.271  0.00  0.00     0.003 A 
HETATM   21  C   UNK N   1      33.193  15.898   9.034  0.00  0.00     0.001 A 
HETATM   22  C   UNK N   1      31.937  16.275   8.561  0.00  0.00     0.017 A 
ENDBRANCH   8  16
TORSDOF 1
ENDMDL
MODEL 8
REMARK VINA RESULT:      -6.1      6.769      9.874
REMARK  1 active torsions:
REMARK  status: ('A' for Active; 'I' for Inactive)
REMARK    1  A    between atoms: C_9  and  C_11 
ROOT
HETATM    1 Cl   UNK N   1      37.790  12.088   7.312  0.00  0.00    -0.084 Cl
HETATM    2  O   UNK N   1      31.823  17.398   8.679  0.00  0.00    -0.271 OA
HETATM    3  N   UNK N   1      33.705  16.452   7.907  0.00  0.00    -0.320 N 
HETATM    4  N   UNK N   1      33.064  14.905  10.451  0.00  0.00    -0.380 N 
ATOM      5  HN  UNK N   1      32.711  14.998  11.404  1.00  0.00     0.160 HD
HETATM    6  C   UNK N   1      34.918  14.443   8.926  0.00  0.00     0.020 A 
HETATM    7  C   UNK N   1      34.633  15.350   7.835  0.00  0.00     0.049 A 
HETATM    8  C   UNK N   1      34.288  14.519  10.309  0.00  0.00     0.054 C 
HETATM    9  C   UNK N   1      32.161  15.215   9.387  0.00  0.00     0.223 C 
HETATM   10  C   UNK N   1      32.575  16.431   8.664  0.00  0.00     0.241 C 
HETATM   11  C   UNK N   1      35.879  13.445   8.706  0.00  0.00     0.040 A 
HETATM   12  C   UNK N   1      35.368  15.211   6.639  0.00  0.00     0.032 A 
HETATM   13  C   UNK N   1      33.927  17.599   7.049  0.00  0.00     0.159 C 
HETATM   14  C   UNK N   1      36.570  13.327   7.504  0.00  0.00     0.035 A 
HETATM   15  C   UNK N   1      36.319  14.215   6.472  0.00  0.00     0.026 A 
ENDROOT
BRANCH   8  16
HETATM   16  C   UNK N   1      34.972  14.062  11.594  0.00  0.00     0.030 A 
HETATM   17  C   UNK N   1      34.978  12.741  12.138  0.00  0.00     0.128 A 
HETATM   18  F   UNK N   1      34.395  11.687  11.532  0.00  0.00    -0.205 F 
HETATM   19  C   UNK N   1      35.651  12.479  13.340  0.00  0.00     0.043 A 
HETATM   20  C   UNK N   1      36.332  13.487  14.015  0.00  0.00     0.003 A 
HETATM   21  C   UNK N   1      36.362  14.772  13.489  0.00  0.00     0.001 A 
HETATM   22  C   UNK N   1      35.693  15.051  12.299  0.00  0.00     0.017 A 
ENDBRANCH   8  16
TORSDOF 1
ENDMDL
MODEL 9
REMARK VINA RESULT:      -5.9     10.351     12.395
REMARK  1 active torsions:
REMARK  status: ('A' for Active; 'I' for Inactive)
REMARK    1  A    between atoms: C_9  and  C_11 
ROOT
HETATM    1 Cl   UNK N   1      33.521   8.707  11.062  0.00  0.00    -0.084 Cl
HETATM    2  O   UNK N   1      36.940  16.042  10.637  0.00  0.00    -0.271 OA
HETATM    3  N   UNK N   1      36.424  13.899  10.222  0.00  0.00    -0.320 N 
HETATM    4  N   UNK N   1      35.566  14.343  13.110  0.00  0.00    -0.380 N 
ATOM      5  HN  UNK N   1      35.821  14.806  13.982  1.00  0.00     0.160 HD
HETATM    6  C   UNK N   1      35.263  12.283  11.829  0.00  0.00     0.020 A 
HETATM    7  C   UNK N   1      35.683  12.696  10.507  0.00  0.00     0.049 A 
HETATM    8  C   UNK N   1      35.543  13.051  13.112  0.00  0.00     0.054 C 
HETATM    9  C   UNK N   1      35.266  15.178  11.989  0.00  0.00     0.223 C 
HETATM   10  C   UNK N   1      36.285  15.051  10.933  0.00  0.00     0.241 C 
HETATM   11  C   UNK N   1      34.582  11.061  11.942  0.00  0.00     0.040 A 
HETATM   12  C   UNK N   1      35.431  11.829   9.423  0.00  0.00     0.032 A 
HETATM   13  C   UNK N   1      37.284  13.921   9.054  0.00  0.00     0.159 C 
HETATM   14  C   UNK N   1      34.334  10.242  10.845  0.00  0.00     0.035 A 
HETATM   15  C   UNK N   1      34.765  10.622   9.585  0.00  0.00     0.026 A 
ENDROOT
BRANCH   8  16
HETATM   16  C   UNK N   1      35.709  12.406  14.484  0.00  0.00     0.030 A 
HETATM   17  C   UNK N   1      36.550  11.301  14.815  0.00  0.00     0.128 A 
HETATM   18  F   UNK N   1      37.368  10.699  13.927  0.00  0.00    -0.205 F 
HETATM   19  C   UNK N   1      36.587  10.815  16.130  0.00  0.00     0.043 A 
HETATM   20  C   UNK N   1      35.824  11.402  17.134  0.00  0.00     0.003 A 
HETATM   21  C   UNK N   1      35.021  12.496  16.839  0.00  0.00     0.001 A 
HETATM   22  C   UNK N   1      34.966  12.987  15.537  0.00  0.00     0.017 A 
ENDBRANCH   8  16
TORSDOF 1
ENDMDL
