MODEL 1
REMARK VINA RESULT:      -4.9      0.000      0.000
REMARK  3 active torsions:
REMARK  status: ('A' for Active; 'I' for Inactive)
REMARK    1  A    between atoms: C_2  and  N_1 
REMARK    2  A    between atoms: C_2  and  C_3 
REMARK    3  A    between atoms: C_3  and  C_4 
ROOT
HETATM    1  C   UNK N   1      35.441  12.736  16.942  0.00  0.00    -0.056 A 
HETATM    2  C   UNK N   1      35.755  11.371  17.023  0.00  0.00     0.007 A 
HETATM    3  C   UNK N   1      35.153  13.448  18.112  0.00  0.00     0.007 A 
HETATM    4  C   UNK N   1      35.766  10.724  18.261  0.00  0.00     0.001 A 
HETATM    5  C   UNK N   1      35.172  12.803  19.352  0.00  0.00     0.001 A 
HETATM    6  C   UNK N   1      35.477  11.440  19.428  0.00  0.00     0.000 A 
ENDROOT
BRANCH   1   7
HETATM    7  C   UNK N   1      35.452  13.452  15.628  0.00  0.00     0.062 C 
BRANCH   7   8
HETATM    8  C   UNK N   1      36.853  13.837  15.169  0.00  0.00     0.074 C 
HETATM    9  C   UNK N   1      37.258  15.160  15.793  0.00  0.00     0.032 C 
BRANCH   8  10
HETATM   10  N   UNK N   1      36.863  13.981  13.726  0.00  0.00    -0.426 N 
HETATM   11  H   UNK N   1      36.077  13.640  13.174  0.00  0.00     0.150 HD
HETATM   12  H   UNK N   1      37.658  14.423  13.262  0.00  0.00     0.150 HD
ENDBRANCH   8  10
ENDBRANCH   7   8
ENDBRANCH   1   7
TORSDOF 3
ENDMDL
MODEL 2
REMARK VINA RESULT:      -4.7      1.697      2.474
REMARK  3 active torsions:
REMARK  status: ('A' for Active; 'I' for Inactive)
REMARK    1  A    between atoms: C_2  and  N_1 
REMARK    2  A    between atoms: C_2  and  C_3 
REMARK    3  A    between atoms: C_3  and  C_4 
ROOT
HETATM    1  C   UNK N   1      35.517  12.105  16.708  0.00  0.00    -0.056 A 
HETATM    2  C   UNK N   1      35.672  11.043  17.612  0.00  0.00     0.007 A 
HETATM    3  C   UNK N   1      35.255  13.392  17.195  0.00  0.00     0.007 A 
HETATM    4  C   UNK N   1      35.550  11.264  18.985  0.00  0.00     0.001 A 
HETATM    5  C   UNK N   1      35.142  13.615  18.570  0.00  0.00     0.001 A 
HETATM    6  C   UNK N   1      35.288  12.551  19.466  0.00  0.00     0.000 A 
ENDROOT
BRANCH   1   7
HETATM    7  C   UNK N   1      35.671  11.893  15.235  0.00  0.00     0.062 C 
BRANCH   7   8
HETATM    8  C   UNK N   1      34.354  11.996  14.475  0.00  0.00     0.074 C 
HETATM    9  C   UNK N   1      33.588  10.691  14.586  0.00  0.00     0.032 C 
BRANCH   8  10
HETATM   10  N   UNK N   1      34.627  12.258  13.076  0.00  0.00    -0.426 N 
HETATM   11  H   UNK N   1      35.572  12.142  12.709  0.00  0.00     0.150 HD
HETATM   12  H   UNK N   1      33.874  12.561  12.457  0.00  0.00     0.150 HD
ENDBRANCH   8  10
ENDBRANCH   7   8
ENDBRANCH   1   7
TORSDOF 3
ENDMDL
MODEL 3
REMARK VINA RESULT:      -4.4     28.090     28.660
REMARK  3 active torsions:
REMARK  status: ('A' for Active; 'I' for Inactive)
REMARK    1  A    between atoms: C_2  and  N_1 
REMARK    2  A    between atoms: C_2  and  C_3 
REMARK    3  A    between atoms: C_3  and  C_4 
ROOT
HETATM    1  C   UNK N   1      25.906  27.702  -5.391  0.00  0.00    -0.056 A 
HETATM    2  C   UNK N   1      26.955  28.178  -6.192  0.00  0.00     0.007 A 
HETATM    3  C   UNK N   1      25.625  28.336  -4.174  0.00  0.00     0.007 A 
HETATM    4  C   UNK N   1      27.722  29.267  -5.773  0.00  0.00     0.001 A 
HETATM    5  C   UNK N   1      26.388  29.431  -3.758  0.00  0.00     0.001 A 
HETATM    6  C   UNK N   1      27.438  29.896  -4.556  0.00  0.00     0.000 A 
ENDROOT
BRANCH   1   7
HETATM    7  C   UNK N   1      25.055  26.555  -5.837  0.00  0.00     0.062 C 
BRANCH   7   8
HETATM    8  C   UNK N   1      25.865  25.317  -6.203  0.00  0.00     0.074 C 
HETATM    9  C   UNK N   1      25.776  25.062  -7.697  0.00  0.00     0.032 C 
BRANCH   8  10
HETATM   10  N   UNK N   1      25.328  24.167  -5.502  0.00  0.00    -0.426 N 
HETATM   11  H   UNK N   1      25.811  23.798  -4.683  0.00  0.00     0.150 HD
HETATM   12  H   UNK N   1      24.468  23.726  -5.828  0.00  0.00     0.150 HD
ENDBRANCH   8  10
ENDBRANCH   7   8
ENDBRANCH   1   7
TORSDOF 3
ENDMDL
MODEL 4
REMARK VINA RESULT:      -4.4     13.235     15.025
REMARK  3 active torsions:
REMARK  status: ('A' for Active; 'I' for Inactive)
REMARK    1  A    between atoms: C_2  and  N_1 
REMARK    2  A    between atoms: C_2  and  C_3 
REMARK    3  A    between atoms: C_3  and  C_4 
ROOT
HETATM    1  C   UNK N   1      28.139  19.114   6.300  0.00  0.00    -0.056 A 
HETATM    2  C   UNK N   1      28.088  18.760   4.943  0.00  0.00     0.007 A 
HETATM    3  C   UNK N   1      27.449  20.249   6.742  0.00  0.00     0.007 A 
HETATM    4  C   UNK N   1      27.368  19.542   4.038  0.00  0.00     0.001 A 
HETATM    5  C   UNK N   1      26.721  21.028   5.838  0.00  0.00     0.001 A 
HETATM    6  C   UNK N   1      26.681  20.676   4.485  0.00  0.00     0.000 A 
ENDROOT
BRANCH   1   7
HETATM    7  C   UNK N   1      28.883  18.273   7.289  0.00  0.00     0.062 C 
BRANCH   7   8
HETATM    8  C   UNK N   1      28.376  18.441   8.716  0.00  0.00     0.074 C 
HETATM    9  C   UNK N   1      29.549  18.529   9.676  0.00  0.00     0.032 C 
BRANCH   8  10
HETATM   10  N   UNK N   1      27.565  17.294   9.076  0.00  0.00    -0.426 N 
HETATM   11  H   UNK N   1      27.240  16.652   8.354  0.00  0.00     0.150 HD
HETATM   12  H   UNK N   1      27.318  17.129  10.053  0.00  0.00     0.150 HD
ENDBRANCH   8  10
ENDBRANCH   7   8
ENDBRANCH   1   7
TORSDOF 3
ENDMDL
MODEL 5
REMARK VINA RESULT:      -4.3      2.188      3.100
REMARK  3 active torsions:
REMARK  status: ('A' for Active; 'I' for Inactive)
REMARK    1  A    between atoms: C_2  and  N_1 
REMARK    2  A    between atoms: C_2  and  C_3 
REMARK    3  A    between atoms: C_3  and  C_4 
ROOT
HETATM    1  C   UNK N   1      35.452  12.315  15.523  0.00  0.00    -0.056 A 
HETATM    2  C   UNK N   1      34.159  12.002  15.077  0.00  0.00     0.007 A 
HETATM    3  C   UNK N   1      36.461  11.347  15.445  0.00  0.00     0.007 A 
HETATM    4  C   UNK N   1      33.876  10.729  14.575  0.00  0.00     0.001 A 
HETATM    5  C   UNK N   1      36.181  10.076  14.935  0.00  0.00     0.001 A 
HETATM    6  C   UNK N   1      34.888   9.766  14.501  0.00  0.00     0.000 A 
ENDROOT
BRANCH   1   7
HETATM    7  C   UNK N   1      35.780  13.681  16.038  0.00  0.00     0.062 C 
BRANCH   7   8
HETATM    8  C   UNK N   1      37.009  14.291  15.373  0.00  0.00     0.074 C 
HETATM    9  C   UNK N   1      37.411  15.564  16.095  0.00  0.00     0.032 C 
BRANCH   8  10
HETATM   10  N   UNK N   1      36.697  14.616  13.995  0.00  0.00    -0.426 N 
HETATM   11  H   UNK N   1      35.734  14.817  13.723  0.00  0.00     0.150 HD
HETATM   12  H   UNK N   1      37.439  14.643  13.296  0.00  0.00     0.150 HD
ENDBRANCH   8  10
ENDBRANCH   7   8
ENDBRANCH   1   7
TORSDOF 3
ENDMDL
MODEL 6
REMARK VINA RESULT:      -4.3     10.152     11.312
REMARK  3 active torsions:
REMARK  status: ('A' for Active; 'I' for Inactive)
REMARK    1  A    between atoms: C_2  and  N_1 
REMARK    2  A    between atoms: C_2  and  C_3 
REMARK    3  A    between atoms: C_3  and  C_4 
ROOT
HETATM    1  C   UNK N   1      30.754  17.556   7.967  0.00  0.00    -0.056 A 
HETATM    2  C   UNK N   1      29.675  17.027   7.242  0.00  0.00     0.007 A 
HETATM    3  C   UNK N   1      30.506  18.324   9.111  0.00  0.00     0.007 A 
HETATM    4  C   UNK N   1      28.363  17.277   7.650  0.00  0.00     0.001 A 
HETATM    5  C   UNK N   1      29.193  18.568   9.524  0.00  0.00     0.001 A 
HETATM    6  C   UNK N   1      28.121  18.046   8.793  0.00  0.00     0.000 A 
ENDROOT
BRANCH   1   7
HETATM    7  C   UNK N   1      32.167  17.275   7.561  0.00  0.00     0.062 C 
BRANCH   7   8
HETATM    8  C   UNK N   1      33.183  17.663   8.628  0.00  0.00     0.074 C 
HETATM    9  C   UNK N   1      34.420  18.255   7.977  0.00  0.00     0.032 C 
BRANCH   8  10
HETATM   10  N   UNK N   1      33.571  16.481   9.373  0.00  0.00    -0.426 N 
HETATM   11  H   UNK N   1      33.095  15.594   9.207  0.00  0.00     0.150 HD
HETATM   12  H   UNK N   1      34.319  16.535  10.065  0.00  0.00     0.150 HD
ENDBRANCH   8  10
ENDBRANCH   7   8
ENDBRANCH   1   7
TORSDOF 3
ENDMDL
MODEL 7
REMARK VINA RESULT:      -4.2      9.714     11.826
REMARK  3 active torsions:
REMARK  status: ('A' for Active; 'I' for Inactive)
REMARK    1  A    between atoms: C_2  and  N_1 
REMARK    2  A    between atoms: C_2  and  C_3 
REMARK    3  A    between atoms: C_3  and  C_4 
ROOT
HETATM    1  C   UNK N   1      32.516  17.459   7.108  0.00  0.00    -0.056 A 
HETATM    2  C   UNK N   1      33.484  17.569   6.098  0.00  0.00     0.007 A 
HETATM    3  C   UNK N   1      31.187  17.188   6.762  0.00  0.00     0.007 A 
HETATM    4  C   UNK N   1      33.121  17.423   4.757  0.00  0.00     0.001 A 
HETATM    5  C   UNK N   1      30.824  17.033   5.421  0.00  0.00     0.001 A 
HETATM    6  C   UNK N   1      31.791  17.153   4.417  0.00  0.00     0.000 A 
ENDROOT
BRANCH   1   7
HETATM    7  C   UNK N   1      32.891  17.585   8.551  0.00  0.00     0.062 C 
BRANCH   7   8
HETATM    8  C   UNK N   1      33.939  16.568   8.987  0.00  0.00     0.074 C 
HETATM    9  C   UNK N   1      33.271  15.248   9.326  0.00  0.00     0.032 C 
BRANCH   8  10
HETATM   10  N   UNK N   1      34.623  17.060  10.166  0.00  0.00    -0.426 N 
HETATM   11  H   UNK N   1      34.086  17.414  10.958  0.00  0.00     0.150 HD
HETATM   12  H   UNK N   1      35.643  17.053  10.205  0.00  0.00     0.150 HD
ENDBRANCH   8  10
ENDBRANCH   7   8
ENDBRANCH   1   7
TORSDOF 3
ENDMDL
MODEL 8
REMARK VINA RESULT:      -4.2     11.158     12.430
REMARK  3 active torsions:
REMARK  status: ('A' for Active; 'I' for Inactive)
REMARK    1  A    between atoms: C_2  and  N_1 
REMARK    2  A    between atoms: C_2  and  C_3 
REMARK    3  A    between atoms: C_3  and  C_4 
ROOT
HETATM    1  C   UNK N   1      31.005  17.323   7.215  0.00  0.00    -0.056 A 
HETATM    2  C   UNK N   1      31.761  17.741   8.320  0.00  0.00     0.007 A 
HETATM    3  C   UNK N   1      31.641  17.114   5.984  0.00  0.00     0.007 A 
HETATM    4  C   UNK N   1      33.135  17.962   8.191  0.00  0.00     0.001 A 
HETATM    5  C   UNK N   1      33.016  17.327   5.856  0.00  0.00     0.001 A 
HETATM    6  C   UNK N   1      33.764  17.753   6.959  0.00  0.00     0.000 A 
ENDROOT
BRANCH   1   7
HETATM    7  C   UNK N   1      29.539  17.054   7.341  0.00  0.00     0.062 C 
BRANCH   7   8
HETATM    8  C   UNK N   1      28.758  18.245   7.882  0.00  0.00     0.074 C 
HETATM    9  C   UNK N   1      28.190  17.915   9.251  0.00  0.00     0.032 C 
BRANCH   8  10
HETATM   10  N   UNK N   1      27.661  18.548   6.984  0.00  0.00    -0.426 N 
HETATM   11  H   UNK N   1      27.231  17.804   6.434  0.00  0.00     0.150 HD
HETATM   12  H   UNK N   1      27.318  19.505   6.901  0.00  0.00     0.150 HD
ENDBRANCH   8  10
ENDBRANCH   7   8
ENDBRANCH   1   7
TORSDOF 3
ENDMDL
MODEL 9
REMARK VINA RESULT:      -4.2     14.945     16.205
REMARK  3 active torsions:
REMARK  status: ('A' for Active; 'I' for Inactive)
REMARK    1  A    between atoms: C_2  and  N_1 
REMARK    2  A    between atoms: C_2  and  C_3 
REMARK    3  A    between atoms: C_3  and  C_4 
ROOT
HETATM    1  C   UNK N   1      21.757  13.143   9.409  0.00  0.00    -0.056 A 
HETATM    2  C   UNK N   1      20.655  13.878   9.874  0.00  0.00     0.007 A 
HETATM    3  C   UNK N   1      22.424  13.559   8.250  0.00  0.00     0.007 A 
HETATM    4  C   UNK N   1      20.219  15.007   9.178  0.00  0.00     0.001 A 
HETATM    5  C   UNK N   1      21.992  14.694   7.558  0.00  0.00     0.001 A 
HETATM    6  C   UNK N   1      20.888  15.418   8.020  0.00  0.00     0.000 A 
ENDROOT
BRANCH   1   7
HETATM    7  C   UNK N   1      22.256  11.946  10.157  0.00  0.00     0.062 C 
BRANCH   7   8
HETATM    8  C   UNK N   1      23.034  12.311  11.415  0.00  0.00     0.074 C 
HETATM    9  C   UNK N   1      24.511  12.023  11.214  0.00  0.00     0.032 C 
BRANCH   8  10
HETATM   10  N   UNK N   1      22.551  11.513  12.525  0.00  0.00    -0.426 N 
HETATM   11  H   UNK N   1      21.904  10.742  12.357  0.00  0.00     0.150 HD
HETATM   12  H   UNK N   1      22.858  11.722  13.476  0.00  0.00     0.150 HD
ENDBRANCH   8  10
ENDBRANCH   7   8
ENDBRANCH   1   7
TORSDOF 3
ENDMDL
