MODEL 1
REMARK VINA RESULT:      -5.0      0.000      0.000
REMARK  3 active torsions:
REMARK  status: ('A' for Active; 'I' for Inactive)
REMARK    1  A    between atoms: C_2  and  N_1 
REMARK    2  A    between atoms: C_2  and  C_3 
REMARK    3  A    between atoms: C_3  and  C_4 
ROOT
HETATM    1  C   UNK N   1      35.400  12.684  17.093  0.00  0.00    -0.056 A 
HETATM    2  C   UNK N   1      35.662  11.310  17.167  0.00  0.00     0.007 A 
HETATM    3  C   UNK N   1      35.161  13.408  18.265  0.00  0.00     0.007 A 
HETATM    4  C   UNK N   1      35.668  10.660  18.407  0.00  0.00     0.001 A 
HETATM    5  C   UNK N   1      35.175  12.759  19.507  0.00  0.00     0.001 A 
HETATM    6  C   UNK N   1      35.427  11.386  19.575  0.00  0.00     0.000 A 
ENDROOT
BRANCH   1   7
HETATM    7  C   UNK N   1      35.434  13.406  15.776  0.00  0.00     0.062 C 
BRANCH   7   8
HETATM    8  C   UNK N   1      36.841  13.725  15.273  0.00  0.00     0.076 C 
HETATM    9  C   UNK N   1      37.248  15.115  15.747  0.00  0.00     0.032 C 
BRANCH   8  10
HETATM   10  N   UNK N   1      36.830  13.693  13.816  0.00  0.00    -0.421 N 
HETATM   11  C   UNK N   1      35.475  13.409  13.366  0.00  0.00     0.140 C 
HETATM   12  H   UNK N   1      37.638  13.846  13.211  0.00  0.00     0.153 HD
ENDBRANCH   8  10
ENDBRANCH   7   8
ENDBRANCH   1   7
TORSDOF 3
ENDMDL
MODEL 2
REMARK VINA RESULT:      -4.8      1.603      2.683
REMARK  3 active torsions:
REMARK  status: ('A' for Active; 'I' for Inactive)
REMARK    1  A    between atoms: C_2  and  N_1 
REMARK    2  A    between atoms: C_2  and  C_3 
REMARK    3  A    between atoms: C_3  and  C_4 
ROOT
HETATM    1  C   UNK N   1      35.549  12.134  16.706  0.00  0.00    -0.056 A 
HETATM    2  C   UNK N   1      35.294  13.426  17.179  0.00  0.00     0.007 A 
HETATM    3  C   UNK N   1      35.656  11.073  17.611  0.00  0.00     0.007 A 
HETATM    4  C   UNK N   1      35.163  13.660  18.553  0.00  0.00     0.001 A 
HETATM    5  C   UNK N   1      35.517  11.305  18.985  0.00  0.00     0.001 A 
HETATM    6  C   UNK N   1      35.272  12.599  19.454  0.00  0.00     0.000 A 
ENDROOT
BRANCH   1   7
HETATM    7  C   UNK N   1      35.647  11.856  15.232  0.00  0.00     0.062 C 
BRANCH   7   8
HETATM    8  C   UNK N   1      34.325  11.995  14.480  0.00  0.00     0.076 C 
HETATM    9  C   UNK N   1      33.604  10.652  14.465  0.00  0.00     0.032 C 
BRANCH   8  10
HETATM   10  N   UNK N   1      34.612  12.406  13.111  0.00  0.00    -0.421 N 
HETATM   11  C   UNK N   1      35.616  13.459  13.142  0.00  0.00     0.140 C 
HETATM   12  H   UNK N   1      34.181  12.020  12.270  0.00  0.00     0.153 HD
ENDBRANCH   8  10
ENDBRANCH   7   8
ENDBRANCH   1   7
TORSDOF 3
ENDMDL
MODEL 3
REMARK VINA RESULT:      -4.6      1.901      3.294
REMARK  3 active torsions:
REMARK  status: ('A' for Active; 'I' for Inactive)
REMARK    1  A    between atoms: C_2  and  N_1 
REMARK    2  A    between atoms: C_2  and  C_3 
REMARK    3  A    between atoms: C_3  and  C_4 
ROOT
HETATM    1  C   UNK N   1      36.387  13.766  15.548  0.00  0.00    -0.056 A 
HETATM    2  C   UNK N   1      37.197  14.905  15.630  0.00  0.00     0.007 A 
HETATM    3  C   UNK N   1      35.551  13.432  16.618  0.00  0.00     0.007 A 
HETATM    4  C   UNK N   1      37.184  15.697  16.784  0.00  0.00     0.001 A 
HETATM    5  C   UNK N   1      35.532  14.229  17.770  0.00  0.00     0.001 A 
HETATM    6  C   UNK N   1      36.350  15.359  17.852  0.00  0.00     0.000 A 
ENDROOT
BRANCH   1   7
HETATM    7  C   UNK N   1      36.354  12.930  14.299  0.00  0.00     0.062 C 
BRANCH   7   8
HETATM    8  C   UNK N   1      36.401  13.738  13.004  0.00  0.00     0.076 C 
HETATM    9  C   UNK N   1      35.073  13.600  12.269  0.00  0.00     0.032 C 
BRANCH   8  10
HETATM   10  N   UNK N   1      37.475  13.212  12.169  0.00  0.00    -0.421 N 
HETATM   11  C   UNK N   1      37.589  11.780  12.403  0.00  0.00     0.140 C 
HETATM   12  H   UNK N   1      38.051  13.758  11.528  0.00  0.00     0.153 HD
ENDBRANCH   8  10
ENDBRANCH   7   8
ENDBRANCH   1   7
TORSDOF 3
ENDMDL
MODEL 4
REMARK VINA RESULT:      -4.5      7.689     11.396
REMARK  3 active torsions:
REMARK  status: ('A' for Active; 'I' for Inactive)
REMARK    1  A    between atoms: C_2  and  N_1 
REMARK    2  A    between atoms: C_2  and  C_3 
REMARK    3  A    between atoms: C_3  and  C_4 
ROOT
HETATM    1  C   UNK N   1      32.645  17.423   7.174  0.00  0.00    -0.056 A 
HETATM    2  C   UNK N   1      31.304  17.208   6.835  0.00  0.00     0.007 A 
HETATM    3  C   UNK N   1      33.603  17.551   6.163  0.00  0.00     0.007 A 
HETATM    4  C   UNK N   1      30.924  17.105   5.493  0.00  0.00     0.001 A 
HETATM    5  C   UNK N   1      33.221  17.455   4.818  0.00  0.00     0.001 A 
HETATM    6  C   UNK N   1      31.883  17.231   4.485  0.00  0.00     0.000 A 
ENDROOT
BRANCH   1   7
HETATM    7  C   UNK N   1      33.064  17.583   8.608  0.00  0.00     0.062 C 
BRANCH   7   8
HETATM    8  C   UNK N   1      34.224  16.682   9.026  0.00  0.00     0.076 C 
HETATM    9  C   UNK N   1      33.700  15.282   9.323  0.00  0.00     0.032 C 
BRANCH   8  10
HETATM   10  N   UNK N   1      34.832  17.238  10.229  0.00  0.00    -0.421 N 
HETATM   11  C   UNK N   1      35.656  16.213  10.852  0.00  0.00     0.140 C 
HETATM   12  H   UNK N   1      34.702  18.189  10.576  0.00  0.00     0.153 HD
ENDBRANCH   8  10
ENDBRANCH   7   8
ENDBRANCH   1   7
TORSDOF 3
ENDMDL
MODEL 5
REMARK VINA RESULT:      -4.5      1.316      2.554
REMARK  3 active torsions:
REMARK  status: ('A' for Active; 'I' for Inactive)
REMARK    1  A    between atoms: C_2  and  N_1 
REMARK    2  A    between atoms: C_2  and  C_3 
REMARK    3  A    between atoms: C_3  and  C_4 
ROOT
HETATM    1  C   UNK N   1      36.213  12.412  15.710  0.00  0.00    -0.056 A 
HETATM    2  C   UNK N   1      35.540  13.301  16.557  0.00  0.00     0.007 A 
HETATM    3  C   UNK N   1      36.418  11.090  16.115  0.00  0.00     0.007 A 
HETATM    4  C   UNK N   1      35.088  12.874  17.811  0.00  0.00     0.001 A 
HETATM    5  C   UNK N   1      35.959  10.660  17.367  0.00  0.00     0.001 A 
HETATM    6  C   UNK N   1      35.296  11.553  18.213  0.00  0.00     0.000 A 
ENDROOT
BRANCH   1   7
HETATM    7  C   UNK N   1      36.664  12.842  14.342  0.00  0.00     0.062 C 
BRANCH   7   8
HETATM    8  C   UNK N   1      35.698  13.789  13.632  0.00  0.00     0.076 C 
HETATM    9  C   UNK N   1      35.029  13.059  12.474  0.00  0.00     0.032 C 
BRANCH   8  10
HETATM   10  N   UNK N   1      36.457  14.923  13.119  0.00  0.00    -0.421 N 
HETATM   11  C   UNK N   1      35.856  15.357  11.866  0.00  0.00     0.140 C 
HETATM   12  H   UNK N   1      37.273  15.344  13.564  0.00  0.00     0.153 HD
ENDBRANCH   8  10
ENDBRANCH   7   8
ENDBRANCH   1   7
TORSDOF 3
ENDMDL
MODEL 6
REMARK VINA RESULT:      -4.4      8.321     10.995
REMARK  3 active torsions:
REMARK  status: ('A' for Active; 'I' for Inactive)
REMARK    1  A    between atoms: C_2  and  N_1 
REMARK    2  A    between atoms: C_2  and  C_3 
REMARK    3  A    between atoms: C_3  and  C_4 
ROOT
HETATM    1  C   UNK N   1      30.719  17.578   7.975  0.00  0.00    -0.056 A 
HETATM    2  C   UNK N   1      29.645  17.031   7.262  0.00  0.00     0.007 A 
HETATM    3  C   UNK N   1      30.474  18.348   9.116  0.00  0.00     0.007 A 
HETATM    4  C   UNK N   1      28.330  17.267   7.679  0.00  0.00     0.001 A 
HETATM    5  C   UNK N   1      29.158  18.578   9.538  0.00  0.00     0.001 A 
HETATM    6  C   UNK N   1      28.088  18.038   8.818  0.00  0.00     0.000 A 
ENDROOT
BRANCH   1   7
HETATM    7  C   UNK N   1      32.139  17.297   7.568  0.00  0.00     0.062 C 
BRANCH   7   8
HETATM    8  C   UNK N   1      33.181  17.705   8.607  0.00  0.00     0.076 C 
HETATM    9  C   UNK N   1      34.425  18.231   7.901  0.00  0.00     0.032 C 
BRANCH   8  10
HETATM   10  N   UNK N   1      33.531  16.531   9.397  0.00  0.00    -0.421 N 
HETATM   11  C   UNK N   1      34.887  16.694   9.900  0.00  0.00     0.140 C 
HETATM   12  H   UNK N   1      32.925  15.728   9.570  0.00  0.00     0.153 HD
ENDBRANCH   8  10
ENDBRANCH   7   8
ENDBRANCH   1   7
TORSDOF 3
ENDMDL
MODEL 7
REMARK VINA RESULT:      -4.4     10.981     12.516
REMARK  3 active torsions:
REMARK  status: ('A' for Active; 'I' for Inactive)
REMARK    1  A    between atoms: C_2  and  N_1 
REMARK    2  A    between atoms: C_2  and  C_3 
REMARK    3  A    between atoms: C_3  and  C_4 
ROOT
HETATM    1  C   UNK N   1      31.021  17.339   7.208  0.00  0.00    -0.056 A 
HETATM    2  C   UNK N   1      31.775  17.754   8.312  0.00  0.00     0.007 A 
HETATM    3  C   UNK N   1      31.653  17.118   5.981  0.00  0.00     0.007 A 
HETATM    4  C   UNK N   1      33.153  17.964   8.186  0.00  0.00     0.001 A 
HETATM    5  C   UNK N   1      33.034  17.320   5.856  0.00  0.00     0.001 A 
HETATM    6  C   UNK N   1      33.781  17.744   6.958  0.00  0.00     0.000 A 
ENDROOT
BRANCH   1   7
HETATM    7  C   UNK N   1      29.549  17.065   7.337  0.00  0.00     0.062 C 
BRANCH   7   8
HETATM    8  C   UNK N   1      28.740  18.233   7.897  0.00  0.00     0.076 C 
HETATM    9  C   UNK N   1      28.187  17.860   9.267  0.00  0.00     0.032 C 
BRANCH   8  10
HETATM   10  N   UNK N   1      27.636  18.511   6.987  0.00  0.00    -0.421 N 
HETATM   11  C   UNK N   1      27.614  19.938   6.703  0.00  0.00     0.140 C 
HETATM   12  H   UNK N   1      26.987  17.819   6.611  0.00  0.00     0.153 HD
ENDBRANCH   8  10
ENDBRANCH   7   8
ENDBRANCH   1   7
TORSDOF 3
ENDMDL
MODEL 8
REMARK VINA RESULT:      -4.2      3.181      5.776
REMARK  3 active torsions:
REMARK  status: ('A' for Active; 'I' for Inactive)
REMARK    1  A    between atoms: C_2  and  N_1 
REMARK    2  A    between atoms: C_2  and  C_3 
REMARK    3  A    between atoms: C_3  and  C_4 
ROOT
HETATM    1  C   UNK N   1      35.575  11.350  19.195  0.00  0.00    -0.056 A 
HETATM    2  C   UNK N   1      35.281  12.697  19.435  0.00  0.00     0.007 A 
HETATM    3  C   UNK N   1      35.683  10.887  17.880  0.00  0.00     0.007 A 
HETATM    4  C   UNK N   1      35.079  13.576  18.364  0.00  0.00     0.001 A 
HETATM    5  C   UNK N   1      35.488  11.768  16.808  0.00  0.00     0.001 A 
HETATM    6  C   UNK N   1      35.186  13.110  17.052  0.00  0.00     0.000 A 
ENDROOT
BRANCH   1   7
HETATM    7  C   UNK N   1      35.840  10.403  20.332  0.00  0.00     0.062 C 
BRANCH   7   8
HETATM    8  C   UNK N   1      34.581   9.812  20.962  0.00  0.00     0.076 C 
HETATM    9  C   UNK N   1      33.684   9.242  19.868  0.00  0.00     0.032 C 
BRANCH   8  10
HETATM   10  N   UNK N   1      33.873  10.874  21.666  0.00  0.00    -0.421 N 
HETATM   11  C   UNK N   1      32.610  10.345  22.159  0.00  0.00     0.140 C 
HETATM   12  H   UNK N   1      34.208  11.830  21.792  0.00  0.00     0.153 HD
ENDBRANCH   8  10
ENDBRANCH   7   8
ENDBRANCH   1   7
TORSDOF 3
ENDMDL
MODEL 9
REMARK VINA RESULT:      -4.1      3.322      5.756
REMARK  3 active torsions:
REMARK  status: ('A' for Active; 'I' for Inactive)
REMARK    1  A    between atoms: C_2  and  N_1 
REMARK    2  A    between atoms: C_2  and  C_3 
REMARK    3  A    between atoms: C_3  and  C_4 
ROOT
HETATM    1  C   UNK N   1      35.457  11.420  19.129  0.00  0.00    -0.056 A 
HETATM    2  C   UNK N   1      35.241  12.785  19.353  0.00  0.00     0.007 A 
HETATM    3  C   UNK N   1      35.576  10.942  17.820  0.00  0.00     0.007 A 
HETATM    4  C   UNK N   1      35.128  13.667  18.272  0.00  0.00     0.001 A 
HETATM    5  C   UNK N   1      35.471  11.826  16.738  0.00  0.00     0.001 A 
HETATM    6  C   UNK N   1      35.246  13.187  16.966  0.00  0.00     0.000 A 
ENDROOT
BRANCH   1   7
HETATM    7  C   UNK N   1      35.626  10.466  20.278  0.00  0.00     0.062 C 
BRANCH   7   8
HETATM    8  C   UNK N   1      37.037  10.433  20.862  0.00  0.00     0.076 C 
HETATM    9  C   UNK N   1      37.780   9.213  20.330  0.00  0.00     0.032 C 
BRANCH   8  10
HETATM   10  N   UNK N   1      36.935  10.345  22.314  0.00  0.00    -0.421 N 
HETATM   11  C   UNK N   1      38.254  10.566  22.888  0.00  0.00     0.140 C 
HETATM   12  H   UNK N   1      36.081  10.159  22.840  0.00  0.00     0.153 HD
ENDBRANCH   8  10
ENDBRANCH   7   8
ENDBRANCH   1   7
TORSDOF 3
ENDMDL
