REMARK  10 active torsions:
REMARK  status: ('A' for Active; 'I' for Inactive)
REMARK    1  A    between atoms: O_1  and  C_8 
REMARK    2  A    between atoms: O_1  and  C_11 
REMARK    3  A    between atoms: O_2  and  C_6 
REMARK    4  A    between atoms: O_3  and  C_12 
REMARK    5  A    between atoms: O_3  and  C_17 
REMARK    6  A    between atoms: N_4  and  C_5 
REMARK    7  A    between atoms: N_4  and  C_7 
REMARK    8  A    between atoms: C_5  and  C_6 
REMARK    9  A    between atoms: C_6  and  C_8 
REMARK   10  A    between atoms: C_17  and  C_18 
ROOT
HETATM    1  O   UNK N   1       5.063  -0.848  -0.082  0.00  0.00    -0.346 OA
ENDROOT
BRANCH   1   2
HETATM    2  C   UNK N   1       6.102   0.011   0.198  0.00  0.00     0.209 C 
BRANCH   2   3
HETATM    3  C   UNK N   1       5.814   1.438  -0.223  0.00  0.00     0.159 C 
BRANCH   3   4
HETATM    4  O   UNK N   1       4.532   1.824   0.173  0.00  0.00    -0.392 OA
HETATM    5  H   UNK N   1       4.318   2.729   0.448  0.00  0.00     0.210 HD
ENDBRANCH   3   4
BRANCH   3   6
HETATM    6  C   UNK N   1       6.834   2.285   0.505  0.00  0.00     0.147 C 
BRANCH   6   7
HETATM    7  N   UNK N   1       7.210   3.451  -0.274  0.00  0.00    -0.415 N 
HETATM    8  H   UNK N   1       6.688   3.867  -1.045  0.00  0.00     0.153 HD
BRANCH   7   9
HETATM    9  C   UNK N   1       8.484   3.909   0.266  0.00  0.00     0.068 C 
HETATM   10  C   UNK N   1       8.747   5.331  -0.177  0.00  0.00     0.031 C 
HETATM   11  C   UNK N   1       9.618   3.018  -0.217  0.00  0.00     0.031 C 
ENDBRANCH   7   9
ENDBRANCH   6   7
ENDBRANCH   3   6
ENDBRANCH   2   3
ENDBRANCH   1   2
BRANCH   1  12
HETATM   12  C   UNK N   1       5.219  -2.196  -0.047  0.00  0.00     0.102 A 
HETATM   13  C   UNK N   1       4.091  -3.060  -0.044  0.00  0.00     0.102 A 
HETATM   14  C   UNK N   1       4.297  -4.446  -0.011  0.00  0.00     0.039 A 
HETATM   15  C   UNK N   1       5.586  -4.981   0.020  0.00  0.00     0.003 A 
HETATM   16  C   UNK N   1       6.693  -4.136   0.021  0.00  0.00     0.003 A 
HETATM   17  C   UNK N   1       6.511  -2.755  -0.011  0.00  0.00     0.039 A 
BRANCH  13  18
HETATM   18  O   UNK N   1       2.806  -2.617  -0.056  0.00  0.00    -0.345 OA
BRANCH  18  19
HETATM   19  C   UNK N   1       2.418  -1.293  -0.031  0.00  0.00     0.202 C 
BRANCH  19  20
HETATM   20  C   UNK N   1       0.923  -1.146  -0.006  0.00  0.00    -0.011 C 
HETATM   21  C   UNK N   1       0.100  -2.195  -0.004  0.00  0.00     0.009 C 
ENDBRANCH  19  20
ENDBRANCH  18  19
ENDBRANCH  13  18
ENDBRANCH   1  12
TORSDOF 10
