MODEL 1
REMARK VINA RESULT:      -5.8      0.000      0.000
REMARK  10 active torsions:
REMARK  status: ('A' for Active; 'I' for Inactive)
REMARK    1  A    between atoms: O_1  and  C_8 
REMARK    2  A    between atoms: O_1  and  C_11 
REMARK    3  A    between atoms: O_2  and  C_6 
REMARK    4  A    between atoms: O_3  and  C_12 
REMARK    5  A    between atoms: O_3  and  C_17 
REMARK    6  A    between atoms: N_4  and  C_5 
REMARK    7  A    between atoms: N_4  and  C_7 
REMARK    8  A    between atoms: C_5  and  C_6 
REMARK    9  A    between atoms: C_6  and  C_8 
REMARK   10  A    between atoms: C_17  and  C_18 
ROOT
HETATM    1  O   UNK N   1      35.603  13.936  11.889  0.00  0.00    -0.346 OA
ENDROOT
BRANCH   1   2
HETATM    2  C   UNK N   1      34.803  14.950  11.411  0.00  0.00     0.209 C 
BRANCH   2   3
HETATM    3  C   UNK N   1      35.579  16.215  11.104  0.00  0.00     0.159 C 
BRANCH   3   4
HETATM    4  O   UNK N   1      36.947  15.951  11.020  0.00  0.00    -0.392 OA
HETATM    5  H   UNK N   1      37.397  15.324  11.607  0.00  0.00     0.210 HD
ENDBRANCH   3   4
BRANCH   3   6
HETATM    6  C   UNK N   1      35.078  16.676   9.753  0.00  0.00     0.147 C 
BRANCH   6   7
HETATM    7  N   UNK N   1      33.629  16.751   9.721  0.00  0.00    -0.415 N 
HETATM    8  H   UNK N   1      32.984  16.480  10.463  0.00  0.00     0.153 HD
BRANCH   7   9
HETATM    9  C   UNK N   1      33.277  17.291   8.413  0.00  0.00     0.068 C 
HETATM   10  C   UNK N   1      34.241  18.395   8.039  0.00  0.00     0.031 C 
HETATM   11  C   UNK N   1      31.862  17.847   8.430  0.00  0.00     0.031 C 
ENDBRANCH   7   9
ENDBRANCH   6   7
ENDBRANCH   3   6
ENDBRANCH   2   3
ENDBRANCH   1   2
BRANCH   1  12
HETATM   12  C   UNK N   1      35.091  12.735  12.261  0.00  0.00     0.102 A 
HETATM   13  C   UNK N   1      34.756  12.475  13.617  0.00  0.00     0.102 A 
HETATM   14  C   UNK N   1      34.226  11.223  13.958  0.00  0.00     0.039 A 
HETATM   15  C   UNK N   1      34.028  10.238  12.989  0.00  0.00     0.003 A 
HETATM   16  C   UNK N   1      34.359  10.489  11.660  0.00  0.00     0.003 A 
HETATM   17  C   UNK N   1      34.887  11.727  11.299  0.00  0.00     0.039 A 
BRANCH  13  18
HETATM   18  O   UNK N   1      34.934  13.375  14.621  0.00  0.00    -0.345 OA
BRANCH  18  19
HETATM   19  C   UNK N   1      35.629  13.139  15.790  0.00  0.00     0.202 C 
BRANCH  19  20
HETATM   20  C   UNK N   1      34.754  13.286  17.002  0.00  0.00    -0.011 C 
HETATM   21  C   UNK N   1      35.245  13.562  18.211  0.00  0.00     0.009 C 
ENDBRANCH  19  20
ENDBRANCH  18  19
ENDBRANCH  13  18
ENDBRANCH   1  12
TORSDOF 10
ENDMDL
MODEL 2
REMARK VINA RESULT:      -5.7      4.866      8.110
REMARK  10 active torsions:
REMARK  status: ('A' for Active; 'I' for Inactive)
REMARK    1  A    between atoms: O_1  and  C_8 
REMARK    2  A    between atoms: O_1  and  C_11 
REMARK    3  A    between atoms: O_2  and  C_6 
REMARK    4  A    between atoms: O_3  and  C_12 
REMARK    5  A    between atoms: O_3  and  C_17 
REMARK    6  A    between atoms: N_4  and  C_5 
REMARK    7  A    between atoms: N_4  and  C_7 
REMARK    8  A    between atoms: C_5  and  C_6 
REMARK    9  A    between atoms: C_6  and  C_8 
REMARK   10  A    between atoms: C_17  and  C_18 
ROOT
HETATM    1  O   UNK N   1      30.561  16.931   8.131  0.00  0.00    -0.346 OA
ENDROOT
BRANCH   1   2
HETATM    2  C   UNK N   1      29.721  17.937   8.551  0.00  0.00     0.209 C 
BRANCH   2   3
HETATM    3  C   UNK N   1      28.256  17.602   8.351  0.00  0.00     0.159 C 
BRANCH   3   4
HETATM    4  O   UNK N   1      27.482  18.114   9.394  0.00  0.00    -0.392 OA
HETATM    5  H   UNK N   1      27.788  18.133  10.314  0.00  0.00     0.210 HD
ENDBRANCH   3   4
BRANCH   3   6
HETATM    6  C   UNK N   1      27.861  18.283   7.059  0.00  0.00     0.147 C 
BRANCH   6   7
HETATM    7  N   UNK N   1      27.168  19.534   7.308  0.00  0.00    -0.415 N 
HETATM    8  H   UNK N   1      26.451  19.707   8.012  0.00  0.00     0.153 HD
BRANCH   7   9
HETATM    9  C   UNK N   1      27.704  20.494   6.351  0.00  0.00     0.068 C 
HETATM   10  C   UNK N   1      26.765  21.674   6.230  0.00  0.00     0.031 C 
HETATM   11  C   UNK N   1      27.871  19.847   4.985  0.00  0.00     0.031 C 
ENDBRANCH   7   9
ENDBRANCH   6   7
ENDBRANCH   3   6
ENDBRANCH   2   3
ENDBRANCH   1   2
BRANCH   1  12
HETATM   12  C   UNK N   1      31.468  17.121   7.140  0.00  0.00     0.102 A 
HETATM   13  C   UNK N   1      32.844  17.313   7.439  0.00  0.00     0.102 A 
HETATM   14  C   UNK N   1      33.748  17.503   6.385  0.00  0.00     0.039 A 
HETATM   15  C   UNK N   1      33.315  17.507   5.058  0.00  0.00     0.003 A 
HETATM   16  C   UNK N   1      31.967  17.323   4.763  0.00  0.00     0.003 A 
HETATM   17  C   UNK N   1      31.051  17.133   5.795  0.00  0.00     0.039 A 
BRANCH  13  18
HETATM   18  O   UNK N   1      33.341  17.339   8.704  0.00  0.00    -0.345 OA
BRANCH  18  19
HETATM   19  C   UNK N   1      33.982  16.291   9.332  0.00  0.00     0.202 C 
BRANCH  19  20
HETATM   20  C   UNK N   1      35.158  16.756  10.142  0.00  0.00    -0.011 C 
HETATM   21  C   UNK N   1      35.591  16.099  11.219  0.00  0.00     0.009 C 
ENDBRANCH  19  20
ENDBRANCH  18  19
ENDBRANCH  13  18
ENDBRANCH   1  12
TORSDOF 10
ENDMDL
MODEL 3
REMARK VINA RESULT:      -5.6      7.319      9.888
REMARK  10 active torsions:
REMARK  status: ('A' for Active; 'I' for Inactive)
REMARK    1  A    between atoms: O_1  and  C_8 
REMARK    2  A    between atoms: O_1  and  C_11 
REMARK    3  A    between atoms: O_2  and  C_6 
REMARK    4  A    between atoms: O_3  and  C_12 
REMARK    5  A    between atoms: O_3  and  C_17 
REMARK    6  A    between atoms: N_4  and  C_5 
REMARK    7  A    between atoms: N_4  and  C_7 
REMARK    8  A    between atoms: C_5  and  C_6 
REMARK    9  A    between atoms: C_6  and  C_8 
REMARK   10  A    between atoms: C_17  and  C_18 
ROOT
HETATM    1  O   UNK N   1      30.432  17.107   8.225  0.00  0.00    -0.346 OA
ENDROOT
BRANCH   1   2
HETATM    2  C   UNK N   1      29.714  18.191   8.679  0.00  0.00     0.209 C 
BRANCH   2   3
HETATM    3  C   UNK N   1      28.249  18.128   8.297  0.00  0.00     0.159 C 
BRANCH   3   4
HETATM    4  O   UNK N   1      27.436  18.271   9.423  0.00  0.00    -0.392 OA
HETATM    5  H   UNK N   1      27.641  17.856  10.275  0.00  0.00     0.210 HD
ENDBRANCH   3   4
BRANCH   3   6
HETATM    6  C   UNK N   1      28.025  19.303   7.371  0.00  0.00     0.147 C 
BRANCH   6   7
HETATM    7  N   UNK N   1      27.791  18.866   6.006  0.00  0.00    -0.415 N 
HETATM    8  H   UNK N   1      27.601  17.915   5.691  0.00  0.00     0.153 HD
BRANCH   7   9
HETATM    9  C   UNK N   1      27.883  20.060   5.175  0.00  0.00     0.068 C 
HETATM   10  C   UNK N   1      27.221  21.225   5.876  0.00  0.00     0.031 C 
HETATM   11  C   UNK N   1      27.199  19.829   3.836  0.00  0.00     0.031 C 
ENDBRANCH   7   9
ENDBRANCH   6   7
ENDBRANCH   3   6
ENDBRANCH   2   3
ENDBRANCH   1   2
BRANCH   1  12
HETATM   12  C   UNK N   1      31.411  17.236   7.295  0.00  0.00     0.102 A 
HETATM   13  C   UNK N   1      31.120  17.117   5.909  0.00  0.00     0.102 A 
HETATM   14  C   UNK N   1      32.161  17.260   4.981  0.00  0.00     0.039 A 
HETATM   15  C   UNK N   1      33.468  17.514   5.400  0.00  0.00     0.003 A 
HETATM   16  C   UNK N   1      33.757  17.627   6.758  0.00  0.00     0.003 A 
HETATM   17  C   UNK N   1      32.737  17.488   7.697  0.00  0.00     0.039 A 
BRANCH  13  18
HETATM   18  O   UNK N   1      29.878  16.854   5.423  0.00  0.00    -0.345 OA
BRANCH  18  19
HETATM   19  C   UNK N   1      29.546  15.783   4.619  0.00  0.00     0.202 C 
BRANCH  19  20
HETATM   20  C   UNK N   1      28.636  16.186   3.493  0.00  0.00    -0.011 C 
HETATM   21  C   UNK N   1      28.426  15.411   2.429  0.00  0.00     0.009 C 
ENDBRANCH  19  20
ENDBRANCH  18  19
ENDBRANCH  13  18
ENDBRANCH   1  12
TORSDOF 10
ENDMDL
MODEL 4
REMARK VINA RESULT:      -5.6      1.258      3.414
REMARK  10 active torsions:
REMARK  status: ('A' for Active; 'I' for Inactive)
REMARK    1  A    between atoms: O_1  and  C_8 
REMARK    2  A    between atoms: O_1  and  C_11 
REMARK    3  A    between atoms: O_2  and  C_6 
REMARK    4  A    between atoms: O_3  and  C_12 
REMARK    5  A    between atoms: O_3  and  C_17 
REMARK    6  A    between atoms: N_4  and  C_5 
REMARK    7  A    between atoms: N_4  and  C_7 
REMARK    8  A    between atoms: C_5  and  C_6 
REMARK    9  A    between atoms: C_6  and  C_8 
REMARK   10  A    between atoms: C_17  and  C_18 
ROOT
HETATM    1  O   UNK N   1      36.481  14.404  12.579  0.00  0.00    -0.346 OA
ENDROOT
BRANCH   1   2
HETATM    2  C   UNK N   1      35.850  15.448  11.942  0.00  0.00     0.209 C 
BRANCH   2   3
HETATM    3  C   UNK N   1      34.908  14.987  10.849  0.00  0.00     0.159 C 
BRANCH   3   4
HETATM    4  O   UNK N   1      33.611  14.831  11.342  0.00  0.00    -0.392 OA
HETATM    5  H   UNK N   1      33.360  15.078  12.245  0.00  0.00     0.210 HD
ENDBRANCH   3   4
BRANCH   3   6
HETATM    6  C   UNK N   1      34.917  16.093   9.817  0.00  0.00     0.147 C 
BRANCH   6   7
HETATM    7  N   UNK N   1      33.622  16.741   9.721  0.00  0.00    -0.415 N 
HETATM    8  H   UNK N   1      32.915  16.808  10.453  0.00  0.00     0.153 HD
BRANCH   7   9
HETATM    9  C   UNK N   1      33.533  17.278   8.369  0.00  0.00     0.068 C 
HETATM   10  C   UNK N   1      34.557  18.377   8.186  0.00  0.00     0.031 C 
HETATM   11  C   UNK N   1      32.145  17.842   8.111  0.00  0.00     0.031 C 
ENDBRANCH   7   9
ENDBRANCH   6   7
ENDBRANCH   3   6
ENDBRANCH   2   3
ENDBRANCH   1   2
BRANCH   1  12
HETATM   12  C   UNK N   1      36.204  14.077  13.867  0.00  0.00     0.102 A 
HETATM   13  C   UNK N   1      35.196  13.124  14.176  0.00  0.00     0.102 A 
HETATM   14  C   UNK N   1      34.944  12.813  15.519  0.00  0.00     0.039 A 
HETATM   15  C   UNK N   1      35.665  13.424  16.546  0.00  0.00     0.003 A 
HETATM   16  C   UNK N   1      36.651  14.361  16.246  0.00  0.00     0.003 A 
HETATM   17  C   UNK N   1      36.917  14.685  14.918  0.00  0.00     0.039 A 
BRANCH  13  18
HETATM   18  O   UNK N   1      34.440  12.499  13.235  0.00  0.00    -0.345 OA
BRANCH  18  19
HETATM   19  C   UNK N   1      34.869  11.471  12.421  0.00  0.00     0.202 C 
BRANCH  19  20
HETATM   20  C   UNK N   1      34.180  10.175  12.743  0.00  0.00    -0.011 C 
HETATM   21  C   UNK N   1      34.779   8.992  12.604  0.00  0.00     0.009 C 
ENDBRANCH  19  20
ENDBRANCH  18  19
ENDBRANCH  13  18
ENDBRANCH   1  12
TORSDOF 10
ENDMDL
MODEL 5
REMARK VINA RESULT:      -5.6      4.256      8.507
REMARK  10 active torsions:
REMARK  status: ('A' for Active; 'I' for Inactive)
REMARK    1  A    between atoms: O_1  and  C_8 
REMARK    2  A    between atoms: O_1  and  C_11 
REMARK    3  A    between atoms: O_2  and  C_6 
REMARK    4  A    between atoms: O_3  and  C_12 
REMARK    5  A    between atoms: O_3  and  C_17 
REMARK    6  A    between atoms: N_4  and  C_5 
REMARK    7  A    between atoms: N_4  and  C_7 
REMARK    8  A    between atoms: C_5  and  C_6 
REMARK    9  A    between atoms: C_6  and  C_8 
REMARK   10  A    between atoms: C_17  and  C_18 
ROOT
HETATM    1  O   UNK N   1      32.131  17.736   7.704  0.00  0.00    -0.346 OA
ENDROOT
BRANCH   1   2
HETATM    2  C   UNK N   1      33.020  18.474   8.454  0.00  0.00     0.209 C 
BRANCH   2   3
HETATM    3  C   UNK N   1      34.464  18.214   8.075  0.00  0.00     0.159 C 
BRANCH   3   4
HETATM    4  O   UNK N   1      35.276  19.287   8.447  0.00  0.00    -0.392 OA
HETATM    5  H   UNK N   1      35.343  20.101   7.924  0.00  0.00     0.210 HD
ENDBRANCH   3   4
BRANCH   3   6
HETATM    6  C   UNK N   1      34.872  16.988   8.861  0.00  0.00     0.147 C 
BRANCH   6   7
HETATM    7  N   UNK N   1      33.802  16.536   9.733  0.00  0.00    -0.415 N 
HETATM    8  H   UNK N   1      33.168  17.120  10.278  0.00  0.00     0.153 HD
BRANCH   7   9
HETATM    9  C   UNK N   1      33.816  15.080   9.673  0.00  0.00     0.068 C 
HETATM   10  C   UNK N   1      32.441  14.569   9.302  0.00  0.00     0.031 C 
HETATM   11  C   UNK N   1      34.218  14.496  11.019  0.00  0.00     0.031 C 
ENDBRANCH   7   9
ENDBRANCH   6   7
ENDBRANCH   3   6
ENDBRANCH   2   3
ENDBRANCH   1   2
BRANCH   1  12
HETATM   12  C   UNK N   1      30.802  17.719   7.982  0.00  0.00     0.102 A 
HETATM   13  C   UNK N   1      29.871  17.186   7.050  0.00  0.00     0.102 A 
HETATM   14  C   UNK N   1      28.508  17.185   7.378  0.00  0.00     0.039 A 
HETATM   15  C   UNK N   1      28.061  17.698   8.597  0.00  0.00     0.003 A 
HETATM   16  C   UNK N   1      28.972  18.224   9.510  0.00  0.00     0.003 A 
HETATM   17  C   UNK N   1      30.331  18.235   9.204  0.00  0.00     0.039 A 
BRANCH  13  18
HETATM   18  O   UNK N   1      30.225  16.685   5.838  0.00  0.00    -0.345 OA
BRANCH  18  19
HETATM   19  C   UNK N   1      30.412  17.429   4.690  0.00  0.00     0.202 C 
BRANCH  19  20
HETATM   20  C   UNK N   1      31.693  17.071   3.992  0.00  0.00    -0.011 C 
HETATM   21  C   UNK N   1      32.864  17.616   4.320  0.00  0.00     0.009 C 
ENDBRANCH  19  20
ENDBRANCH  18  19
ENDBRANCH  13  18
ENDBRANCH   1  12
TORSDOF 10
ENDMDL
MODEL 6
REMARK VINA RESULT:      -5.6      7.066      9.476
REMARK  10 active torsions:
REMARK  status: ('A' for Active; 'I' for Inactive)
REMARK    1  A    between atoms: O_1  and  C_8 
REMARK    2  A    between atoms: O_1  and  C_11 
REMARK    3  A    between atoms: O_2  and  C_6 
REMARK    4  A    between atoms: O_3  and  C_12 
REMARK    5  A    between atoms: O_3  and  C_17 
REMARK    6  A    between atoms: N_4  and  C_5 
REMARK    7  A    between atoms: N_4  and  C_7 
REMARK    8  A    between atoms: C_5  and  C_6 
REMARK    9  A    between atoms: C_6  and  C_8 
REMARK   10  A    between atoms: C_17  and  C_18 
ROOT
HETATM    1  O   UNK N   1      30.280  17.529   7.408  0.00  0.00    -0.346 OA
ENDROOT
BRANCH   1   2
HETATM    2  C   UNK N   1      29.565  17.289   8.560  0.00  0.00     0.209 C 
BRANCH   2   3
HETATM    3  C   UNK N   1      28.066  17.340   8.342  0.00  0.00     0.159 C 
BRANCH   3   4
HETATM    4  O   UNK N   1      27.440  18.056   9.364  0.00  0.00    -0.392 OA
HETATM    5  H   UNK N   1      27.740  18.933   9.651  0.00  0.00     0.210 HD
ENDBRANCH   3   4
BRANCH   3   6
HETATM    6  C   UNK N   1      27.875  18.074   7.033  0.00  0.00     0.147 C 
BRANCH   6   7
HETATM    7  N   UNK N   1      27.643  19.491   7.247  0.00  0.00    -0.415 N 
HETATM    8  H   UNK N   1      27.794  20.013   8.110  0.00  0.00     0.153 HD
BRANCH   7   9
HETATM    9  C   UNK N   1      27.149  20.019   5.981  0.00  0.00     0.068 C 
HETATM   10  C   UNK N   1      28.092  19.635   4.863  0.00  0.00     0.031 C 
HETATM   11  C   UNK N   1      27.039  21.535   6.044  0.00  0.00     0.031 C 
ENDBRANCH   7   9
ENDBRANCH   6   7
ENDBRANCH   3   6
ENDBRANCH   2   3
ENDBRANCH   1   2
BRANCH   1  12
HETATM   12  C   UNK N   1      31.637  17.523   7.393  0.00  0.00     0.102 A 
HETATM   13  C   UNK N   1      32.351  17.138   6.226  0.00  0.00     0.102 A 
HETATM   14  C   UNK N   1      33.752  17.149   6.253  0.00  0.00     0.039 A 
HETATM   15  C   UNK N   1      34.447  17.528   7.403  0.00  0.00     0.003 A 
HETATM   16  C   UNK N   1      33.750  17.902   8.549  0.00  0.00     0.003 A 
HETATM   17  C   UNK N   1      32.356  17.898   8.544  0.00  0.00     0.039 A 
BRANCH  13  18
HETATM   18  O   UNK N   1      31.749  16.740   5.075  0.00  0.00    -0.345 OA
BRANCH  18  19
HETATM   19  C   UNK N   1      31.676  17.482   3.914  0.00  0.00     0.202 C 
BRANCH  19  20
HETATM   20  C   UNK N   1      32.484  16.870   2.805  0.00  0.00    -0.011 C 
HETATM   21  C   UNK N   1      33.100  15.695   2.931  0.00  0.00     0.009 C 
ENDBRANCH  19  20
ENDBRANCH  18  19
ENDBRANCH  13  18
ENDBRANCH   1  12
TORSDOF 10
ENDMDL
MODEL 7
REMARK VINA RESULT:      -5.4     18.559     22.208
REMARK  10 active torsions:
REMARK  status: ('A' for Active; 'I' for Inactive)
REMARK    1  A    between atoms: O_1  and  C_8 
REMARK    2  A    between atoms: O_1  and  C_11 
REMARK    3  A    between atoms: O_2  and  C_6 
REMARK    4  A    between atoms: O_3  and  C_12 
REMARK    5  A    between atoms: O_3  and  C_17 
REMARK    6  A    between atoms: N_4  and  C_5 
REMARK    7  A    between atoms: N_4  and  C_7 
REMARK    8  A    between atoms: C_5  and  C_6 
REMARK    9  A    between atoms: C_6  and  C_8 
REMARK   10  A    between atoms: C_17  and  C_18 
ROOT
HETATM    1  O   UNK N   1      25.214  24.392  -5.761  0.00  0.00    -0.346 OA
ENDROOT
BRANCH   1   2
HETATM    2  C   UNK N   1      25.941  24.027  -6.871  0.00  0.00     0.209 C 
BRANCH   2   3
HETATM    3  C   UNK N   1      25.613  22.629  -7.355  0.00  0.00     0.159 C 
BRANCH   3   4
HETATM    4  O   UNK N   1      24.700  22.669  -8.410  0.00  0.00    -0.392 OA
HETATM    5  H   UNK N   1      24.154  23.447  -8.603  0.00  0.00     0.210 HD
ENDBRANCH   3   4
BRANCH   3   6
HETATM    6  C   UNK N   1      26.922  22.059  -7.853  0.00  0.00     0.147 C 
BRANCH   6   7
HETATM    7  N   UNK N   1      27.981  22.222  -6.873  0.00  0.00    -0.415 N 
HETATM    8  H   UNK N   1      27.959  22.809  -6.040  0.00  0.00     0.153 HD
BRANCH   7   9
HETATM    9  C   UNK N   1      29.082  21.377  -7.318  0.00  0.00     0.068 C 
HETATM   10  C   UNK N   1      28.538  20.119  -7.957  0.00  0.00     0.031 C 
HETATM   11  C   UNK N   1      29.969  20.996  -6.142  0.00  0.00     0.031 C 
ENDBRANCH   7   9
ENDBRANCH   6   7
ENDBRANCH   3   6
ENDBRANCH   2   3
ENDBRANCH   1   2
BRANCH   1  12
HETATM   12  C   UNK N   1      25.449  25.555  -5.101  0.00  0.00     0.102 A 
HETATM   13  C   UNK N   1      26.203  25.570  -3.897  0.00  0.00     0.102 A 
HETATM   14  C   UNK N   1      26.425  26.794  -3.250  0.00  0.00     0.039 A 
HETATM   15  C   UNK N   1      25.917  27.985  -3.771  0.00  0.00     0.003 A 
HETATM   16  C   UNK N   1      25.175  27.972  -4.949  0.00  0.00     0.003 A 
HETATM   17  C   UNK N   1      24.942  26.767  -5.608  0.00  0.00     0.039 A 
BRANCH  13  18
HETATM   18  O   UNK N   1      26.716  24.452  -3.318  0.00  0.00    -0.345 OA
BRANCH  18  19
HETATM   19  C   UNK N   1      27.993  23.968  -3.511  0.00  0.00     0.202 C 
BRANCH  19  20
HETATM   20  C   UNK N   1      28.518  23.264  -2.292  0.00  0.00    -0.011 C 
HETATM   21  C   UNK N   1      29.799  22.922  -2.158  0.00  0.00     0.009 C 
ENDBRANCH  19  20
ENDBRANCH  18  19
ENDBRANCH  13  18
ENDBRANCH   1  12
TORSDOF 10
ENDMDL
MODEL 8
REMARK VINA RESULT:      -5.4     17.988     21.511
REMARK  10 active torsions:
REMARK  status: ('A' for Active; 'I' for Inactive)
REMARK    1  A    between atoms: O_1  and  C_8 
REMARK    2  A    between atoms: O_1  and  C_11 
REMARK    3  A    between atoms: O_2  and  C_6 
REMARK    4  A    between atoms: O_3  and  C_12 
REMARK    5  A    between atoms: O_3  and  C_17 
REMARK    6  A    between atoms: N_4  and  C_5 
REMARK    7  A    between atoms: N_4  and  C_7 
REMARK    8  A    between atoms: C_5  and  C_6 
REMARK    9  A    between atoms: C_6  and  C_8 
REMARK   10  A    between atoms: C_17  and  C_18 
ROOT
HETATM    1  O   UNK N   1      26.865  24.301  -3.330  0.00  0.00    -0.346 OA
ENDROOT
BRANCH   1   2
HETATM    2  C   UNK N   1      28.144  23.901  -3.642  0.00  0.00     0.209 C 
BRANCH   2   3
HETATM    3  C   UNK N   1      28.935  23.461  -2.426  0.00  0.00     0.159 C 
BRANCH   3   4
HETATM    4  O   UNK N   1      28.085  22.987  -1.425  0.00  0.00    -0.392 OA
HETATM    5  H   UNK N   1      28.322  22.250  -0.841  0.00  0.00     0.210 HD
ENDBRANCH   3   4
BRANCH   3   6
HETATM    6  C   UNK N   1      29.816  22.330  -2.907  0.00  0.00     0.147 C 
BRANCH   6   7
HETATM    7  N   UNK N   1      31.204  22.546  -2.543  0.00  0.00    -0.415 N 
HETATM    8  H   UNK N   1      31.555  23.122  -1.778  0.00  0.00     0.153 HD
BRANCH   7   9
HETATM    9  C   UNK N   1      31.999  21.772  -3.489  0.00  0.00     0.068 C 
HETATM   10  C   UNK N   1      32.557  22.687  -4.556  0.00  0.00     0.031 C 
HETATM   11  C   UNK N   1      31.147  20.699  -4.147  0.00  0.00     0.031 C 
ENDBRANCH   7   9
ENDBRANCH   6   7
ENDBRANCH   3   6
ENDBRANCH   2   3
ENDBRANCH   1   2
BRANCH   1  12
HETATM   12  C   UNK N   1      26.277  25.362  -3.942  0.00  0.00     0.102 A 
HETATM   13  C   UNK N   1      25.564  25.197  -5.160  0.00  0.00     0.102 A 
HETATM   14  C   UNK N   1      24.970  26.317  -5.756  0.00  0.00     0.039 A 
HETATM   15  C   UNK N   1      25.071  27.581  -5.172  0.00  0.00     0.003 A 
HETATM   16  C   UNK N   1      25.772  27.746  -3.980  0.00  0.00     0.003 A 
HETATM   17  C   UNK N   1      26.372  26.645  -3.371  0.00  0.00     0.039 A 
BRANCH  13  18
HETATM   18  O   UNK N   1      25.435  24.004  -5.799  0.00  0.00    -0.345 OA
BRANCH  18  19
HETATM   19  C   UNK N   1      26.104  23.638  -6.948  0.00  0.00     0.202 C 
BRANCH  19  20
HETATM   20  C   UNK N   1      25.785  22.229  -7.360  0.00  0.00    -0.011 C 
HETATM   21  C   UNK N   1      24.657  21.615  -6.999  0.00  0.00     0.009 C 
ENDBRANCH  19  20
ENDBRANCH  18  19
ENDBRANCH  13  18
ENDBRANCH   1  12
TORSDOF 10
ENDMDL
MODEL 9
REMARK VINA RESULT:      -5.3      3.296      5.113
REMARK  10 active torsions:
REMARK  status: ('A' for Active; 'I' for Inactive)
REMARK    1  A    between atoms: O_1  and  C_8 
REMARK    2  A    between atoms: O_1  and  C_11 
REMARK    3  A    between atoms: O_2  and  C_6 
REMARK    4  A    between atoms: O_3  and  C_12 
REMARK    5  A    between atoms: O_3  and  C_17 
REMARK    6  A    between atoms: N_4  and  C_5 
REMARK    7  A    between atoms: N_4  and  C_7 
REMARK    8  A    between atoms: C_5  and  C_6 
REMARK    9  A    between atoms: C_6  and  C_8 
REMARK   10  A    between atoms: C_17  and  C_18 
ROOT
HETATM    1  O   UNK N   1      35.039  13.449  14.877  0.00  0.00    -0.346 OA
ENDROOT
BRANCH   1   2
HETATM    2  C   UNK N   1      36.103  14.031  14.224  0.00  0.00     0.209 C 
BRANCH   2   3
HETATM    3  C   UNK N   1      35.858  14.200  12.738  0.00  0.00     0.159 C 
BRANCH   3   4
HETATM    4  O   UNK N   1      36.531  15.321  12.247  0.00  0.00    -0.392 OA
HETATM    5  H   UNK N   1      36.110  15.973  11.666  0.00  0.00     0.210 HD
ENDBRANCH   3   4
BRANCH   3   6
HETATM    6  C   UNK N   1      36.430  12.957  12.093  0.00  0.00     0.147 C 
BRANCH   6   7
HETATM    7  N   UNK N   1      37.868  13.060  11.922  0.00  0.00    -0.415 N 
HETATM    8  H   UNK N   1      38.545  13.383  12.612  0.00  0.00     0.153 HD
BRANCH   7   9
HETATM    9  C   UNK N   1      38.151  12.610  10.564  0.00  0.00     0.068 C 
HETATM   10  C   UNK N   1      38.524  13.793   9.699  0.00  0.00     0.031 C 
HETATM   11  C   UNK N   1      36.934  11.920   9.968  0.00  0.00     0.031 C 
ENDBRANCH   7   9
ENDBRANCH   6   7
ENDBRANCH   3   6
ENDBRANCH   2   3
ENDBRANCH   1   2
BRANCH   1  12
HETATM   12  C   UNK N   1      35.196  12.785  16.050  0.00  0.00     0.102 A 
HETATM   13  C   UNK N   1      35.582  11.417  16.068  0.00  0.00     0.102 A 
HETATM   14  C   UNK N   1      35.736  10.771  17.302  0.00  0.00     0.039 A 
HETATM   15  C   UNK N   1      35.516  11.450  18.502  0.00  0.00     0.003 A 
HETATM   16  C   UNK N   1      35.134  12.789  18.487  0.00  0.00     0.003 A 
HETATM   17  C   UNK N   1      34.975  13.451  17.271  0.00  0.00     0.039 A 
BRANCH  13  18
HETATM   18  O   UNK N   1      35.798  10.684  14.944  0.00  0.00    -0.345 OA
BRANCH  18  19
HETATM   19  C   UNK N   1      34.906   9.788  14.392  0.00  0.00     0.202 C 
BRANCH  19  20
HETATM   20  C   UNK N   1      33.948  10.457  13.447  0.00  0.00    -0.011 C 
HETATM   21  C   UNK N   1      33.849  10.111  12.164  0.00  0.00     0.009 C 
ENDBRANCH  19  20
ENDBRANCH  18  19
ENDBRANCH  13  18
ENDBRANCH   1  12
TORSDOF 10
ENDMDL
