REMARK  3 active torsions:
REMARK  status: ('A' for Active; 'I' for Inactive)
REMARK    1  A    between atoms: S_1  and  N_4 
REMARK    2  A    between atoms: S_1  and  C_10 
REMARK       I    between atoms: N_4  and  C_16 
REMARK    3  A    between atoms: N_9  and  C_13 
ROOT
HETATM    1  S   UNK N   1       1.226   0.400   0.131  0.00  0.00     0.276 S 
HETATM    2  O   UNK N   1      -0.232   0.477   0.606  0.00  0.00    -0.200 OA
HETATM    3  O   UNK N   1       1.039   0.777  -1.346  0.00  0.00    -0.200 OA
ENDROOT
BRANCH   1   4
HETATM    4  N   UNK N   1       1.978   1.840   0.804  0.00  0.00    -0.112 N 
HETATM    5  C   UNK N   1       3.265   2.270   0.421  0.00  0.00     0.692 A 
HETATM    6  N   UNK N   1       3.510   3.601   0.266  0.00  0.00    -0.195 N 
HETATM    7  N   UNK N   1       4.253   1.368   0.169  0.00  0.00    -0.201 N 
HETATM    8  C   UNK N   1       4.723   4.046  -0.147  0.00  0.00     0.024 A 
ATOM      9  HN  UNK N   1       2.769   4.274   0.463  1.00  0.00     0.184 HD
HETATM   10  C   UNK N   1       5.750   3.136  -0.392  0.00  0.00     0.042 A 
HETATM   11  C   UNK N   1       4.950   5.499  -0.367  0.00  0.00     0.068 C 
HETATM   12  C   UNK N   1       5.489   1.778  -0.215  0.00  0.00     0.108 A 
ATOM     13  HN  UNK N   1       4.062   0.371   0.270  1.00  0.00     0.183 HD
HETATM   14  H   UNK N   1       1.482   2.365   1.473  0.00  0.00     0.197 HD
ENDBRANCH   1   4
BRANCH   1  15
HETATM   15  C   UNK N   1       1.850  -1.279   0.208  0.00  0.00     0.080 A 
HETATM   16  C   UNK N   1       1.040  -2.306  -0.290  0.00  0.00     0.027 A 
HETATM   17  C   UNK N   1       1.511  -3.618  -0.342  0.00  0.00     0.030 A 
HETATM   18  C   UNK N   1       2.802  -3.911   0.099  0.00  0.00     0.025 A 
HETATM   19  C   UNK N   1       3.616  -2.890   0.608  0.00  0.00     0.030 A 
HETATM   20  C   UNK N   1       3.142  -1.571   0.659  0.00  0.00     0.027 A 
BRANCH  18  21
HETATM   21  N   UNK N   1       3.287  -5.231   0.020  0.00  0.00    -0.399 N 
HETATM   22  H   UNK N   1       2.657  -5.986  -0.036  0.00  0.00     0.156 HD
HETATM   23  H   UNK N   1       4.257  -5.400   0.020  0.00  0.00     0.156 HD
ENDBRANCH  18  21
ENDBRANCH   1  15
TORSDOF 3
