MODEL 1
REMARK VINA RESULT:      -6.5      0.000      0.000
REMARK  3 active torsions:
REMARK  status: ('A' for Active; 'I' for Inactive)
REMARK    1  A    between atoms: S_1  and  N_4 
REMARK    2  A    between atoms: S_1  and  C_10 
REMARK       I    between atoms: N_4  and  C_16 
REMARK    3  A    between atoms: N_9  and  C_13 
ROOT
HETATM    1  S   UNK N   1      34.113  17.466   7.791  0.00  0.00     0.276 S 
HETATM    2  O   UNK N   1      34.929  18.765   7.737  0.00  0.00    -0.200 OA
HETATM    3  O   UNK N   1      35.189  16.464   7.347  0.00  0.00    -0.200 OA
ENDROOT
BRANCH   1   4
HETATM    4  N   UNK N   1      33.955  17.125   9.509  0.00  0.00    -0.112 N 
HETATM    5  C   UNK N   1      34.296  15.875  10.066  0.00  0.00     0.692 A 
HETATM    6  N   UNK N   1      34.920  15.827  11.276  0.00  0.00    -0.195 N 
HETATM    7  N   UNK N   1      34.042  14.720   9.391  0.00  0.00    -0.201 N 
HETATM    8  C   UNK N   1      35.304  14.644  11.819  0.00  0.00     0.024 A 
ATOM      9  HN  UNK N   1      35.101  16.694  11.782  1.00  0.00     0.184 HD
HETATM   10  C   UNK N   1      35.035  13.452  11.148  0.00  0.00     0.042 A 
HETATM   11  C   UNK N   1      36.036  14.620  13.113  0.00  0.00     0.068 C 
HETATM   12  C   UNK N   1      34.383  13.516   9.918  0.00  0.00     0.108 A 
ATOM     13  HN  UNK N   1      33.590  14.761   8.478  1.00  0.00     0.183 HD
HETATM   14  H   UNK N   1      33.616  17.832  10.104  0.00  0.00     0.197 HD
ENDBRANCH   1   4
BRANCH   1  15
HETATM   15  C   UNK N   1      32.803  17.465   6.567  0.00  0.00     0.080 A 
HETATM   16  C   UNK N   1      33.158  17.635   5.224  0.00  0.00     0.027 A 
HETATM   17  C   UNK N   1      32.193  17.549   4.220  0.00  0.00     0.030 A 
HETATM   18  C   UNK N   1      30.864  17.286   4.553  0.00  0.00     0.025 A 
HETATM   19  C   UNK N   1      30.499  17.124   5.897  0.00  0.00     0.030 A 
HETATM   20  C   UNK N   1      31.470  17.209   6.905  0.00  0.00     0.027 A 
BRANCH  18  21
HETATM   21  N   UNK N   1      29.896  17.171   3.537  0.00  0.00    -0.399 N 
HETATM   22  H   UNK N   1      29.605  16.282   3.230  0.00  0.00     0.156 HD
HETATM   23  H   UNK N   1      29.508  17.981   3.133  0.00  0.00     0.156 HD
ENDBRANCH  18  21
ENDBRANCH   1  15
TORSDOF 3
ENDMDL
MODEL 2
REMARK VINA RESULT:      -6.5      5.187      9.748
REMARK  3 active torsions:
REMARK  status: ('A' for Active; 'I' for Inactive)
REMARK    1  A    between atoms: S_1  and  N_4 
REMARK    2  A    between atoms: S_1  and  C_10 
REMARK       I    between atoms: N_4  and  C_16 
REMARK    3  A    between atoms: N_9  and  C_13 
ROOT
HETATM    1  S   UNK N   1      35.755  13.077  14.432  0.00  0.00     0.276 S 
HETATM    2  O   UNK N   1      34.504  12.522  13.737  0.00  0.00    -0.200 OA
HETATM    3  O   UNK N   1      36.795  12.054  13.952  0.00  0.00    -0.200 OA
ENDROOT
BRANCH   1   4
HETATM    4  N   UNK N   1      36.167  14.511  13.503  0.00  0.00    -0.112 N 
HETATM    5  C   UNK N   1      36.008  14.577  12.103  0.00  0.00     0.692 A 
HETATM    6  N   UNK N   1      35.557  15.728  11.532  0.00  0.00    -0.195 N 
HETATM    7  N   UNK N   1      36.266  13.492  11.323  0.00  0.00    -0.201 N 
HETATM    8  C   UNK N   1      35.348  15.810  10.194  0.00  0.00     0.024 A 
ATOM      9  HN  UNK N   1      35.372  16.541  12.120  1.00  0.00     0.184 HD
HETATM   10  C   UNK N   1      35.623  14.713   9.380  0.00  0.00     0.042 A 
HETATM   11  C   UNK N   1      34.798  17.057   9.600  0.00  0.00     0.068 C 
HETATM   12  C   UNK N   1      36.099  13.547   9.977  0.00  0.00     0.108 A 
ATOM     13  HN  UNK N   1      36.588  12.626  11.755  1.00  0.00     0.183 HD
HETATM   14  H   UNK N   1      36.522  15.298  13.977  0.00  0.00     0.197 HD
ENDBRANCH   1   4
BRANCH   1  15
HETATM   15  C   UNK N   1      35.622  12.948  16.216  0.00  0.00     0.080 A 
HETATM   16  C   UNK N   1      35.526  14.132  16.956  0.00  0.00     0.027 A 
HETATM   17  C   UNK N   1      35.327  14.091  18.336  0.00  0.00     0.030 A 
HETATM   18  C   UNK N   1      35.215  12.861  18.985  0.00  0.00     0.025 A 
HETATM   19  C   UNK N   1      35.320  11.671  18.253  0.00  0.00     0.030 A 
HETATM   20  C   UNK N   1      35.519  11.713  16.865  0.00  0.00     0.027 A 
BRANCH  18  21
HETATM   21  N   UNK N   1      34.985  12.820  20.374  0.00  0.00    -0.399 N 
HETATM   22  H   UNK N   1      34.378  12.145  20.755  0.00  0.00     0.156 HD
HETATM   23  H   UNK N   1      35.433  13.467  20.967  0.00  0.00     0.156 HD
ENDBRANCH  18  21
ENDBRANCH   1  15
TORSDOF 3
ENDMDL
MODEL 3
REMARK VINA RESULT:      -6.4      7.047     10.120
REMARK  3 active torsions:
REMARK  status: ('A' for Active; 'I' for Inactive)
REMARK    1  A    between atoms: S_1  and  N_4 
REMARK    2  A    between atoms: S_1  and  C_10 
REMARK       I    between atoms: N_4  and  C_16 
REMARK    3  A    between atoms: N_9  and  C_13 
ROOT
HETATM    1  S   UNK N   1      35.810  12.204  14.561  0.00  0.00     0.276 S 
HETATM    2  O   UNK N   1      34.722  12.980  13.804  0.00  0.00    -0.200 OA
HETATM    3  O   UNK N   1      35.395  10.767  14.212  0.00  0.00    -0.200 OA
ENDROOT
BRANCH   1   4
HETATM    4  N   UNK N   1      37.259  12.433  13.592  0.00  0.00    -0.112 N 
HETATM    5  C   UNK N   1      37.247  12.355  12.184  0.00  0.00     0.692 A 
HETATM    6  N   UNK N   1      38.001  13.226  11.457  0.00  0.00    -0.195 N 
HETATM    7  N   UNK N   1      36.462  11.445  11.545  0.00  0.00    -0.201 N 
HETATM    8  C   UNK N   1      37.976  13.210  10.101  0.00  0.00     0.024 A 
ATOM      9  HN  UNK N   1      38.593  13.902  11.940  1.00  0.00     0.184 HD
HETATM   10  C   UNK N   1      37.192  12.272   9.432  0.00  0.00     0.042 A 
HETATM   11  C   UNK N   1      38.761  14.209   9.328  0.00  0.00     0.068 C 
HETATM   12  C   UNK N   1      36.437  11.378  10.189  0.00  0.00     0.108 A 
ATOM     13  HN  UNK N   1      35.886  10.805  12.091  1.00  0.00     0.183 HD
HETATM   14  H   UNK N   1      38.110  12.622  14.049  0.00  0.00     0.197 HD
ENDBRANCH   1   4
BRANCH   1  15
HETATM   15  C   UNK N   1      35.652  12.420  16.334  0.00  0.00     0.080 A 
HETATM   16  C   UNK N   1      35.470  13.718  16.825  0.00  0.00     0.027 A 
HETATM   17  C   UNK N   1      35.248  13.936  18.185  0.00  0.00     0.030 A 
HETATM   18  C   UNK N   1      35.200  12.853  19.064  0.00  0.00     0.025 A 
HETATM   19  C   UNK N   1      35.392  11.551  18.581  0.00  0.00     0.030 A 
HETATM   20  C   UNK N   1      35.614  11.333  17.214  0.00  0.00     0.027 A 
BRANCH  18  21
HETATM   21  N   UNK N   1      34.948  13.071  20.432  0.00  0.00    -0.399 N 
HETATM   22  H   UNK N   1      35.140  12.363  21.089  0.00  0.00     0.156 HD
HETATM   23  H   UNK N   1      34.580  13.933  20.734  0.00  0.00     0.156 HD
ENDBRANCH  18  21
ENDBRANCH   1  15
TORSDOF 3
ENDMDL
MODEL 4
REMARK VINA RESULT:      -6.4      1.858      2.588
REMARK  3 active torsions:
REMARK  status: ('A' for Active; 'I' for Inactive)
REMARK    1  A    between atoms: S_1  and  N_4 
REMARK    2  A    between atoms: S_1  and  C_10 
REMARK       I    between atoms: N_4  and  C_16 
REMARK    3  A    between atoms: N_9  and  C_13 
ROOT
HETATM    1  S   UNK N   1      33.771  17.568   7.486  0.00  0.00     0.276 S 
HETATM    2  O   UNK N   1      34.461  18.729   8.216  0.00  0.00    -0.200 OA
HETATM    3  O   UNK N   1      34.151  17.908   6.037  0.00  0.00    -0.200 OA
ENDROOT
BRANCH   1   4
HETATM    4  N   UNK N   1      34.784  16.173   7.833  0.00  0.00    -0.112 N 
HETATM    5  C   UNK N   1      35.025  15.723   9.147  0.00  0.00     0.692 A 
HETATM    6  N   UNK N   1      35.068  14.386   9.402  0.00  0.00    -0.195 N 
HETATM    7  N   UNK N   1      35.180  16.610  10.169  0.00  0.00    -0.201 N 
HETATM    8  C   UNK N   1      35.251  13.918  10.662  0.00  0.00     0.024 A 
ATOM      9  HN  UNK N   1      34.959  13.725   8.632  1.00  0.00     0.184 HD
HETATM   10  C   UNK N   1      35.428  14.814  11.716  0.00  0.00     0.042 A 
HETATM   11  C   UNK N   1      35.234  12.455  10.926  0.00  0.00     0.068 C 
HETATM   12  C   UNK N   1      35.397  16.179  11.438  0.00  0.00     0.108 A 
ATOM     13  HN  UNK N   1      35.131  17.611   9.978  1.00  0.00     0.183 HD
HETATM   14  H   UNK N   1      35.198  15.689   7.082  0.00  0.00     0.197 HD
ENDBRANCH   1   4
BRANCH   1  15
HETATM   15  C   UNK N   1      31.987  17.670   7.637  0.00  0.00     0.080 A 
HETATM   16  C   UNK N   1      31.207  17.079   6.636  0.00  0.00     0.027 A 
HETATM   17  C   UNK N   1      29.817  17.045   6.749  0.00  0.00     0.030 A 
HETATM   18  C   UNK N   1      29.197  17.598   7.870  0.00  0.00     0.025 A 
HETATM   19  C   UNK N   1      29.970  18.200   8.872  0.00  0.00     0.030 A 
HETATM   20  C   UNK N   1      31.368  18.233   8.758  0.00  0.00     0.027 A 
BRANCH  18  21
HETATM   21  N   UNK N   1      27.795  17.539   7.997  0.00  0.00    -0.399 N 
HETATM   22  H   UNK N   1      27.370  16.756   8.418  0.00  0.00     0.156 HD
HETATM   23  H   UNK N   1      27.239  18.280   7.665  0.00  0.00     0.156 HD
ENDBRANCH  18  21
ENDBRANCH   1  15
TORSDOF 3
ENDMDL
MODEL 5
REMARK VINA RESULT:      -6.3      2.804      7.865
REMARK  3 active torsions:
REMARK  status: ('A' for Active; 'I' for Inactive)
REMARK    1  A    between atoms: S_1  and  N_4 
REMARK    2  A    between atoms: S_1  and  C_10 
REMARK       I    between atoms: N_4  and  C_16 
REMARK    3  A    between atoms: N_9  and  C_13 
ROOT
HETATM    1  S   UNK N   1      35.921  14.985  10.854  0.00  0.00     0.276 S 
HETATM    2  O   UNK N   1      36.217  14.506   9.426  0.00  0.00    -0.200 OA
HETATM    3  O   UNK N   1      36.827  16.224  10.906  0.00  0.00    -0.200 OA
ENDROOT
BRANCH   1   4
HETATM    4  N   UNK N   1      34.313  15.688  10.752  0.00  0.00    -0.112 N 
HETATM    5  C   UNK N   1      33.932  16.556   9.708  0.00  0.00     0.692 A 
HETATM    6  N   UNK N   1      32.682  16.458   9.176  0.00  0.00    -0.195 N 
HETATM    7  N   UNK N   1      34.811  17.464   9.203  0.00  0.00    -0.201 N 
HETATM    8  C   UNK N   1      32.298  17.245   8.140  0.00  0.00     0.024 A 
ATOM      9  HN  UNK N   1      32.023  15.781   9.562  1.00  0.00     0.184 HD
HETATM   10  C   UNK N   1      33.182  18.191   7.623  0.00  0.00     0.042 A 
HETATM   11  C   UNK N   1      30.950  17.080   7.535  0.00  0.00     0.068 C 
HETATM   12  C   UNK N   1      34.453  18.290   8.187  0.00  0.00     0.108 A 
ATOM     13  HN  UNK N   1      35.752  17.524   9.592  1.00  0.00     0.183 HD
HETATM   14  H   UNK N   1      33.654  15.467  11.450  0.00  0.00     0.197 HD
ENDBRANCH   1   4
BRANCH   1  15
HETATM   15  C   UNK N   1      36.509  13.808  12.072  0.00  0.00     0.080 A 
HETATM   16  C   UNK N   1      36.233  14.063  13.420  0.00  0.00     0.027 A 
HETATM   17  C   UNK N   1      36.583  13.136  14.403  0.00  0.00     0.030 A 
HETATM   18  C   UNK N   1      37.208  11.942  14.041  0.00  0.00     0.025 A 
HETATM   19  C   UNK N   1      37.496  11.684  12.694  0.00  0.00     0.030 A 
HETATM   20  C   UNK N   1      37.143  12.615  11.707  0.00  0.00     0.027 A 
BRANCH  18  21
HETATM   21  N   UNK N   1      37.535  10.995  15.030  0.00  0.00    -0.399 N 
HETATM   22  H   UNK N   1      36.845  10.384  15.376  0.00  0.00     0.156 HD
HETATM   23  H   UNK N   1      38.456  10.942  15.375  0.00  0.00     0.156 HD
ENDBRANCH  18  21
ENDBRANCH   1  15
TORSDOF 3
ENDMDL
MODEL 6
REMARK VINA RESULT:      -6.2      2.854      3.929
REMARK  3 active torsions:
REMARK  status: ('A' for Active; 'I' for Inactive)
REMARK    1  A    between atoms: S_1  and  N_4 
REMARK    2  A    between atoms: S_1  and  C_10 
REMARK       I    between atoms: N_4  and  C_16 
REMARK    3  A    between atoms: N_9  and  C_13 
ROOT
HETATM    1  S   UNK N   1      35.446  15.280  10.254  0.00  0.00     0.276 S 
HETATM    2  O   UNK N   1      35.035  16.147  11.452  0.00  0.00    -0.200 OA
HETATM    3  O   UNK N   1      36.961  15.533  10.257  0.00  0.00    -0.200 OA
ENDROOT
BRANCH   1   4
HETATM    4  N   UNK N   1      35.329  13.631  10.853  0.00  0.00    -0.112 N 
HETATM    5  C   UNK N   1      35.422  13.316  12.224  0.00  0.00     0.692 A 
HETATM    6  N   UNK N   1      34.614  12.352  12.748  0.00  0.00    -0.195 N 
HETATM    7  N   UNK N   1      36.283  13.990  13.036  0.00  0.00    -0.201 N 
HETATM    8  C   UNK N   1      34.643  12.058  14.072  0.00  0.00     0.024 A 
ATOM      9  HN  UNK N   1      33.975  11.845  12.135  1.00  0.00     0.184 HD
HETATM   10  C   UNK N   1      35.532  12.726  14.912  0.00  0.00     0.042 A 
HETATM   11  C   UNK N   1      33.710  11.045  14.632  0.00  0.00     0.068 C 
HETATM   12  C   UNK N   1      36.363  13.700  14.360  0.00  0.00     0.108 A 
ATOM     13  HN  UNK N   1      36.875  14.722  12.644  1.00  0.00     0.183 HD
HETATM   14  H   UNK N   1      35.195  12.900  10.207  0.00  0.00     0.197 HD
ENDBRANCH   1   4
BRANCH   1  15
HETATM   15  C   UNK N   1      34.771  15.921   8.722  0.00  0.00     0.080 A 
HETATM   16  C   UNK N   1      34.177  17.188   8.743  0.00  0.00     0.027 A 
HETATM   17  C   UNK N   1      33.720  17.777   7.564  0.00  0.00     0.030 A 
HETATM   18  C   UNK N   1      33.861  17.102   6.351  0.00  0.00     0.025 A 
HETATM   19  C   UNK N   1      34.447  15.829   6.322  0.00  0.00     0.030 A 
HETATM   20  C   UNK N   1      34.907  15.239   7.508  0.00  0.00     0.027 A 
BRANCH  18  21
HETATM   21  N   UNK N   1      33.426  17.709   5.157  0.00  0.00    -0.399 N 
HETATM   22  H   UNK N   1      32.480  17.645   4.887  0.00  0.00     0.156 HD
HETATM   23  H   UNK N   1      34.066  18.198   4.590  0.00  0.00     0.156 HD
ENDBRANCH  18  21
ENDBRANCH   1  15
TORSDOF 3
ENDMDL
MODEL 7
REMARK VINA RESULT:      -6.1     10.993     14.251
REMARK  3 active torsions:
REMARK  status: ('A' for Active; 'I' for Inactive)
REMARK    1  A    between atoms: S_1  and  N_4 
REMARK    2  A    between atoms: S_1  and  C_10 
REMARK       I    between atoms: N_4  and  C_16 
REMARK    3  A    between atoms: N_9  and  C_13 
ROOT
HETATM    1  S   UNK N   1      21.029  19.587   3.084  0.00  0.00     0.276 S 
HETATM    2  O   UNK N   1      20.651  20.058   1.672  0.00  0.00    -0.200 OA
HETATM    3  O   UNK N   1      20.375  20.701   3.914  0.00  0.00    -0.200 OA
ENDROOT
BRANCH   1   4
HETATM    4  N   UNK N   1      19.971  18.213   3.380  0.00  0.00    -0.112 N 
HETATM    5  C   UNK N   1      19.773  17.192   2.428  0.00  0.00     0.692 A 
HETATM    6  N   UNK N   1      19.682  15.898   2.841  0.00  0.00    -0.195 N 
HETATM    7  N   UNK N   1      19.709  17.484   1.100  0.00  0.00    -0.201 N 
HETATM    8  C   UNK N   1      19.539  14.887   1.948  0.00  0.00     0.024 A 
ATOM      9  HN  UNK N   1      19.724  15.684   3.838  1.00  0.00     0.184 HD
HETATM   10  C   UNK N   1      19.454  15.170   0.586  0.00  0.00     0.042 A 
HETATM   11  C   UNK N   1      19.502  13.476   2.417  0.00  0.00     0.068 C 
HETATM   12  C   UNK N   1      19.533  16.501   0.180  0.00  0.00     0.108 A 
ATOM     13  HN  UNK N   1      19.793  18.452   0.793  1.00  0.00     0.183 HD
HETATM   14  H   UNK N   1      19.501  18.156   4.243  0.00  0.00     0.197 HD
ENDBRANCH   1   4
BRANCH   1  15
HETATM   15  C   UNK N   1      22.801  19.659   3.344  0.00  0.00     0.080 A 
HETATM   16  C   UNK N   1      23.396  18.650   4.110  0.00  0.00     0.027 A 
HETATM   17  C   UNK N   1      24.782  18.603   4.267  0.00  0.00     0.030 A 
HETATM   18  C   UNK N   1      25.584  19.564   3.651  0.00  0.00     0.025 A 
HETATM   19  C   UNK N   1      24.996  20.583   2.889  0.00  0.00     0.030 A 
HETATM   20  C   UNK N   1      23.603  20.629   2.731  0.00  0.00     0.027 A 
BRANCH  18  21
HETATM   21  N   UNK N   1      26.984  19.499   3.786  0.00  0.00    -0.399 N 
HETATM   22  H   UNK N   1      27.542  19.224   3.023  0.00  0.00     0.156 HD
HETATM   23  H   UNK N   1      27.407  19.731   4.645  0.00  0.00     0.156 HD
ENDBRANCH  18  21
ENDBRANCH   1  15
TORSDOF 3
ENDMDL
MODEL 8
REMARK VINA RESULT:      -6.0      5.993     10.276
REMARK  3 active torsions:
REMARK  status: ('A' for Active; 'I' for Inactive)
REMARK    1  A    between atoms: S_1  and  N_4 
REMARK    2  A    between atoms: S_1  and  C_10 
REMARK       I    between atoms: N_4  and  C_16 
REMARK    3  A    between atoms: N_9  and  C_13 
ROOT
HETATM    1  S   UNK N   1      36.136  13.125  15.035  0.00  0.00     0.276 S 
HETATM    2  O   UNK N   1      37.186  12.189  14.420  0.00  0.00    -0.200 OA
HETATM    3  O   UNK N   1      36.957  14.421  15.112  0.00  0.00    -0.200 OA
ENDROOT
BRANCH   1   4
HETATM    4  N   UNK N   1      35.021  13.453  13.716  0.00  0.00    -0.112 N 
HETATM    5  C   UNK N   1      35.434  13.486  12.368  0.00  0.00     0.692 A 
HETATM    6  N   UNK N   1      34.627  12.958  11.406  0.00  0.00    -0.195 N 
HETATM    7  N   UNK N   1      36.644  14.004  12.024  0.00  0.00    -0.201 N 
HETATM    8  C   UNK N   1      35.013  12.930  10.106  0.00  0.00     0.024 A 
ATOM      9  HN  UNK N   1      33.717  12.577  11.667  1.00  0.00     0.184 HD
HETATM   10  C   UNK N   1      36.242  13.473   9.735  0.00  0.00     0.042 A 
HETATM   11  C   UNK N   1      34.142  12.296   9.081  0.00  0.00     0.068 C 
HETATM   12  C   UNK N   1      37.051  14.023  10.729  0.00  0.00     0.108 A 
ATOM     13  HN  UNK N   1      37.254  14.384  12.748  1.00  0.00     0.183 HD
HETATM   14  H   UNK N   1      34.074  13.620  13.926  0.00  0.00     0.197 HD
ENDBRANCH   1   4
BRANCH   1  15
HETATM   15  C   UNK N   1      35.715  12.626  16.705  0.00  0.00     0.080 A 
HETATM   16  C   UNK N   1      35.852  11.275  17.043  0.00  0.00     0.027 A 
HETATM   17  C   UNK N   1      35.628  10.846  18.351  0.00  0.00     0.030 A 
HETATM   18  C   UNK N   1      35.272  11.769  19.335  0.00  0.00     0.025 A 
HETATM   19  C   UNK N   1      35.123  13.123  19.002  0.00  0.00     0.030 A 
HETATM   20  C   UNK N   1      35.349  13.554  17.687  0.00  0.00     0.027 A 
BRANCH  18  21
HETATM   21  N   UNK N   1      35.074  11.340  20.661  0.00  0.00    -0.399 N 
HETATM   22  H   UNK N   1      35.824  11.350  21.301  0.00  0.00     0.156 HD
HETATM   23  H   UNK N   1      34.186  11.029  20.951  0.00  0.00     0.156 HD
ENDBRANCH  18  21
ENDBRANCH   1  15
TORSDOF 3
ENDMDL
MODEL 9
REMARK VINA RESULT:      -6.0      6.675     10.929
REMARK  3 active torsions:
REMARK  status: ('A' for Active; 'I' for Inactive)
REMARK    1  A    between atoms: S_1  and  N_4 
REMARK    2  A    between atoms: S_1  and  C_10 
REMARK       I    between atoms: N_4  and  C_16 
REMARK    3  A    between atoms: N_9  and  C_13 
ROOT
HETATM    1  S   UNK N   1      35.636  12.766  15.778  0.00  0.00     0.276 S 
HETATM    2  O   UNK N   1      36.226  14.183  15.788  0.00  0.00    -0.200 OA
HETATM    3  O   UNK N   1      34.201  13.086  15.332  0.00  0.00    -0.200 OA
ENDROOT
BRANCH   1   4
HETATM    4  N   UNK N   1      36.327  12.018  14.345  0.00  0.00    -0.112 N 
HETATM    5  C   UNK N   1      36.389  12.680  13.102  0.00  0.00     0.692 A 
HETATM    6  N   UNK N   1      37.493  12.534  12.317  0.00  0.00    -0.195 N 
HETATM    7  N   UNK N   1      35.374  13.492  12.695  0.00  0.00    -0.201 N 
HETATM    8  C   UNK N   1      37.606  13.194  11.137  0.00  0.00     0.024 A 
ATOM      9  HN  UNK N   1      38.248  11.920  12.622  1.00  0.00     0.184 HD
HETATM   10  C   UNK N   1      36.568  14.015  10.699  0.00  0.00     0.042 A 
HETATM   11  C   UNK N   1      38.845  13.067  10.326  0.00  0.00     0.068 C 
HETATM   12  C   UNK N   1      35.438  14.143  11.505  0.00  0.00     0.108 A 
ATOM     13  HN  UNK N   1      34.556  13.612  13.292  1.00  0.00     0.183 HD
HETATM   14  H   UNK N   1      36.684  11.103  14.413  0.00  0.00     0.197 HD
ENDBRANCH   1   4
BRANCH   1  15
HETATM   15  C   UNK N   1      35.570  12.075  17.431  0.00  0.00     0.080 A 
HETATM   16  C   UNK N   1      35.966  10.744  17.604  0.00  0.00     0.027 A 
HETATM   17  C   UNK N   1      36.025  10.182  18.879  0.00  0.00     0.030 A 
HETATM   18  C   UNK N   1      35.693  10.953  19.994  0.00  0.00     0.025 A 
HETATM   19  C   UNK N   1      35.286  12.283  19.829  0.00  0.00     0.030 A 
HETATM   20  C   UNK N   1      35.228  12.848  18.546  0.00  0.00     0.027 A 
BRANCH  18  21
HETATM   21  N   UNK N   1      35.780  10.393  21.284  0.00  0.00    -0.399 N 
HETATM   22  H   UNK N   1      36.325  10.833  21.977  0.00  0.00     0.156 HD
HETATM   23  H   UNK N   1      35.296   9.562  21.494  0.00  0.00     0.156 HD
ENDBRANCH  18  21
ENDBRANCH   1  15
TORSDOF 3
ENDMDL
