MODEL 1
REMARK VINA RESULT:      -6.8      0.000      0.000
REMARK  3 active torsions:
REMARK  status: ('A' for Active; 'I' for Inactive)
REMARK    1  A    between atoms: S_1  and  N_4 
REMARK    2  A    between atoms: S_1  and  C_10 
REMARK       I    between atoms: N_4  and  C_13 
REMARK    3  A    between atoms: N_9  and  C_14 
ROOT
HETATM    1  S   UNK N   1      35.504  15.552  10.406  0.00  0.00     0.276 S 
HETATM    2  O   UNK N   1      34.944  16.376  11.576  0.00  0.00    -0.200 OA
HETATM    3  O   UNK N   1      37.003  15.826  10.592  0.00  0.00    -0.200 OA
ENDROOT
BRANCH   1   4
HETATM    4  N   UNK N   1      35.307  13.893  10.959  0.00  0.00    -0.112 N 
HETATM    5  C   UNK N   1      35.357  13.509  12.320  0.00  0.00     0.692 A 
HETATM    6  N   UNK N   1      36.126  14.192  13.208  0.00  0.00    -0.195 N 
HETATM    7  N   UNK N   1      34.620  12.445  12.735  0.00  0.00    -0.195 N 
HETATM    8  C   UNK N   1      36.178  13.815  14.514  0.00  0.00     0.024 A 
ATOM      9  HN  UNK N   1      36.669  14.997  12.893  1.00  0.00     0.184 HD
HETATM   10  C   UNK N   1      35.415  12.736  14.959  0.00  0.00     0.050 A 
HETATM   11  C   UNK N   1      37.055  14.545  15.466  0.00  0.00     0.068 C 
HETATM   12  C   UNK N   1      34.624  12.058  14.038  0.00  0.00     0.024 A 
HETATM   13  C   UNK N   1      33.774  10.920  14.478  0.00  0.00     0.068 C 
ATOM     14  HN  UNK N   1      34.054  11.931  12.060  1.00  0.00     0.184 HD
HETATM   15  H   UNK N   1      35.153  13.194  10.284  0.00  0.00     0.197 HD
ENDBRANCH   1   4
BRANCH   1  16
HETATM   16  C   UNK N   1      34.942  16.247   8.850  0.00  0.00     0.080 A 
HETATM   17  C   UNK N   1      34.972  15.439   7.707  0.00  0.00     0.027 A 
HETATM   18  C   UNK N   1      34.439  15.902   6.502  0.00  0.00     0.030 A 
HETATM   19  C   UNK N   1      33.862  17.171   6.436  0.00  0.00     0.025 A 
HETATM   20  C   UNK N   1      33.833  17.985   7.575  0.00  0.00     0.030 A 
HETATM   21  C   UNK N   1      34.368  17.521   8.785  0.00  0.00     0.027 A 
BRANCH  19  22
HETATM   22  N   UNK N   1      33.301  17.625   5.227  0.00  0.00    -0.399 N 
HETATM   23  H   UNK N   1      33.820  17.573   4.393  0.00  0.00     0.156 HD
HETATM   24  H   UNK N   1      32.388  17.993   5.217  0.00  0.00     0.156 HD
ENDBRANCH  19  22
ENDBRANCH   1  16
TORSDOF 3
ENDMDL
MODEL 2
REMARK VINA RESULT:      -6.5      3.769      8.486
REMARK  3 active torsions:
REMARK  status: ('A' for Active; 'I' for Inactive)
REMARK    1  A    between atoms: S_1  and  N_4 
REMARK    2  A    between atoms: S_1  and  C_10 
REMARK       I    between atoms: N_4  and  C_13 
REMARK    3  A    between atoms: N_9  and  C_14 
ROOT
HETATM    1  S   UNK N   1      36.138  12.597  14.957  0.00  0.00     0.276 S 
HETATM    2  O   UNK N   1      35.283  11.731  14.019  0.00  0.00    -0.200 OA
HETATM    3  O   UNK N   1      37.529  12.035  14.630  0.00  0.00    -0.200 OA
ENDROOT
BRANCH   1   4
HETATM    4  N   UNK N   1      36.124  14.170  14.169  0.00  0.00    -0.112 N 
HETATM    5  C   UNK N   1      36.365  14.356  12.787  0.00  0.00     0.692 A 
HETATM    6  N   UNK N   1      37.188  13.518  12.105  0.00  0.00    -0.195 N 
HETATM    7  N   UNK N   1      35.757  15.388  12.142  0.00  0.00    -0.195 N 
HETATM    8  C   UNK N   1      37.423  13.705  10.777  0.00  0.00     0.024 A 
ATOM      9  HN  UNK N   1      37.632  12.739  12.591  1.00  0.00     0.184 HD
HETATM   10  C   UNK N   1      36.795  14.748  10.099  0.00  0.00     0.050 A 
HETATM   11  C   UNK N   1      38.357  12.805  10.053  0.00  0.00     0.068 C 
HETATM   12  C   UNK N   1      35.946  15.588  10.811  0.00  0.00     0.024 A 
HETATM   13  C   UNK N   1      35.235  16.695  10.118  0.00  0.00     0.068 C 
ATOM     14  HN  UNK N   1      35.150  16.020  12.665  1.00  0.00     0.184 HD
HETATM   15  H   UNK N   1      35.936  14.963  14.720  0.00  0.00     0.197 HD
ENDBRANCH   1   4
BRANCH   1  16
HETATM   16  C   UNK N   1      35.719  12.239  16.665  0.00  0.00     0.080 A 
HETATM   17  C   UNK N   1      35.936  10.943  17.149  0.00  0.00     0.027 A 
HETATM   18  C   UNK N   1      35.731  10.650  18.499  0.00  0.00     0.030 A 
HETATM   19  C   UNK N   1      35.319  11.655  19.375  0.00  0.00     0.025 A 
HETATM   20  C   UNK N   1      35.096  12.951  18.896  0.00  0.00     0.030 A 
HETATM   21  C   UNK N   1      35.302  13.246  17.541  0.00  0.00     0.027 A 
BRANCH  19  22
HETATM   22  N   UNK N   1      35.139  11.365  20.741  0.00  0.00    -0.399 N 
HETATM   23  H   UNK N   1      34.917  10.449  21.025  0.00  0.00     0.156 HD
HETATM   24  H   UNK N   1      35.237  12.078  21.413  0.00  0.00     0.156 HD
ENDBRANCH  19  22
ENDBRANCH   1  16
TORSDOF 3
ENDMDL
MODEL 3
REMARK VINA RESULT:      -6.5      3.422      7.161
REMARK  3 active torsions:
REMARK  status: ('A' for Active; 'I' for Inactive)
REMARK    1  A    between atoms: S_1  and  N_4 
REMARK    2  A    between atoms: S_1  and  C_10 
REMARK       I    between atoms: N_4  and  C_13 
REMARK    3  A    between atoms: N_9  and  C_14 
ROOT
HETATM    1  S   UNK N   1      34.425  17.981   8.419  0.00  0.00     0.276 S 
HETATM    2  O   UNK N   1      34.585  17.742   6.910  0.00  0.00    -0.200 OA
HETATM    3  O   UNK N   1      35.376  19.173   8.594  0.00  0.00    -0.200 OA
ENDROOT
BRANCH   1   4
HETATM    4  N   UNK N   1      32.823  18.698   8.540  0.00  0.00    -0.112 N 
HETATM    5  C   UNK N   1      31.640  18.049   8.113  0.00  0.00     0.692 A 
HETATM    6  N   UNK N   1      31.664  17.169   7.077  0.00  0.00    -0.195 N 
HETATM    7  N   UNK N   1      30.471  18.313   8.755  0.00  0.00    -0.195 N 
HETATM    8  C   UNK N   1      30.522  16.554   6.664  0.00  0.00     0.024 A 
ATOM      9  HN  UNK N   1      32.545  16.966   6.606  1.00  0.00     0.184 HD
HETATM   10  C   UNK N   1      29.319  16.802   7.323  0.00  0.00     0.050 A 
HETATM   11  C   UNK N   1      30.555  15.626   5.505  0.00  0.00     0.068 C 
HETATM   12  C   UNK N   1      29.317  17.695   8.389  0.00  0.00     0.024 A 
HETATM   13  C   UNK N   1      28.060  17.966   9.136  0.00  0.00     0.068 C 
ATOM     14  HN  UNK N   1      30.460  18.984   9.524  1.00  0.00     0.184 HD
HETATM   15  H   UNK N   1      32.746  19.599   8.927  0.00  0.00     0.197 HD
ENDBRANCH   1   4
BRANCH   1  16
HETATM   16  C   UNK N   1      35.047  16.563   9.327  0.00  0.00     0.080 A 
HETATM   17  C   UNK N   1      35.260  15.366   8.633  0.00  0.00     0.027 A 
HETATM   18  C   UNK N   1      35.849  14.274   9.274  0.00  0.00     0.030 A 
HETATM   19  C   UNK N   1      36.239  14.377  10.610  0.00  0.00     0.025 A 
HETATM   20  C   UNK N   1      36.025  15.570  11.310  0.00  0.00     0.030 A 
HETATM   21  C   UNK N   1      35.435  16.667  10.667  0.00  0.00     0.027 A 
BRANCH  19  22
HETATM   22  N   UNK N   1      36.858  13.284  11.246  0.00  0.00    -0.399 N 
HETATM   23  H   UNK N   1      37.378  12.636  10.719  0.00  0.00     0.156 HD
HETATM   24  H   UNK N   1      36.771  13.168  12.220  0.00  0.00     0.156 HD
ENDBRANCH  19  22
ENDBRANCH   1  16
TORSDOF 3
ENDMDL
MODEL 4
REMARK VINA RESULT:      -6.4      4.458      8.412
REMARK  3 active torsions:
REMARK  status: ('A' for Active; 'I' for Inactive)
REMARK    1  A    between atoms: S_1  and  N_4 
REMARK    2  A    between atoms: S_1  and  C_10 
REMARK       I    between atoms: N_4  and  C_13 
REMARK    3  A    between atoms: N_9  and  C_14 
ROOT
HETATM    1  S   UNK N   1      35.775  12.213  14.585  0.00  0.00     0.276 S 
HETATM    2  O   UNK N   1      34.632  12.964  13.885  0.00  0.00    -0.200 OA
HETATM    3  O   UNK N   1      35.403  10.772  14.210  0.00  0.00    -0.200 OA
ENDROOT
BRANCH   1   4
HETATM    4  N   UNK N   1      37.165  12.568  13.567  0.00  0.00    -0.112 N 
HETATM    5  C   UNK N   1      37.150  12.463  12.156  0.00  0.00     0.692 A 
HETATM    6  N   UNK N   1      36.357  11.551  11.534  0.00  0.00    -0.195 N 
HETATM    7  N   UNK N   1      37.941  13.291  11.422  0.00  0.00    -0.195 N 
HETATM    8  C   UNK N   1      36.352  11.448  10.177  0.00  0.00     0.024 A 
ATOM      9  HN  UNK N   1      35.758  10.940  12.089  1.00  0.00     0.184 HD
HETATM   10  C   UNK N   1      37.144  12.301   9.410  0.00  0.00     0.050 A 
HETATM   11  C   UNK N   1      35.511  10.419   9.512  0.00  0.00     0.068 C 
HETATM   12  C   UNK N   1      37.939  13.236  10.063  0.00  0.00     0.024 A 
HETATM   13  C   UNK N   1      38.777  14.182   9.281  0.00  0.00     0.068 C 
ATOM     14  HN  UNK N   1      38.542  13.964  11.897  1.00  0.00     0.184 HD
HETATM   15  H   UNK N   1      37.998  12.857  14.003  0.00  0.00     0.197 HD
ENDBRANCH   1   4
BRANCH   1  16
HETATM   16  C   UNK N   1      35.649  12.437  16.361  0.00  0.00     0.080 A 
HETATM   17  C   UNK N   1      35.435  13.728  16.859  0.00  0.00     0.027 A 
HETATM   18  C   UNK N   1      35.218  13.931  18.223  0.00  0.00     0.030 A 
HETATM   19  C   UNK N   1      35.202  12.842  19.097  0.00  0.00     0.025 A 
HETATM   20  C   UNK N   1      35.420  11.549  18.605  0.00  0.00     0.030 A 
HETATM   21  C   UNK N   1      35.638  11.345  17.235  0.00  0.00     0.027 A 
BRANCH  19  22
HETATM   22  N   UNK N   1      34.956  13.046  20.468  0.00  0.00    -0.399 N 
HETATM   23  H   UNK N   1      35.686  12.943  21.120  0.00  0.00     0.156 HD
HETATM   24  H   UNK N   1      34.053  13.292  20.774  0.00  0.00     0.156 HD
ENDBRANCH  19  22
ENDBRANCH   1  16
TORSDOF 3
ENDMDL
MODEL 5
REMARK VINA RESULT:      -6.4      2.882      4.146
REMARK  3 active torsions:
REMARK  status: ('A' for Active; 'I' for Inactive)
REMARK    1  A    between atoms: S_1  and  N_4 
REMARK    2  A    between atoms: S_1  and  C_10 
REMARK       I    between atoms: N_4  and  C_13 
REMARK    3  A    between atoms: N_9  and  C_14 
ROOT
HETATM    1  S   UNK N   1      34.083  17.362   7.743  0.00  0.00     0.276 S 
HETATM    2  O   UNK N   1      34.880  18.674   7.686  0.00  0.00    -0.200 OA
HETATM    3  O   UNK N   1      35.146  16.392   7.210  0.00  0.00    -0.200 OA
ENDROOT
BRANCH   1   4
HETATM    4  N   UNK N   1      34.018  17.012   9.466  0.00  0.00    -0.112 N 
HETATM    5  C   UNK N   1      34.330  15.748  10.021  0.00  0.00     0.692 A 
HETATM    6  N   UNK N   1      34.107  14.606   9.319  0.00  0.00    -0.195 N 
HETATM    7  N   UNK N   1      34.863  15.686  11.270  0.00  0.00    -0.195 N 
HETATM    8  C   UNK N   1      34.400  13.391   9.860  0.00  0.00     0.024 A 
ATOM      9  HN  UNK N   1      33.717  14.658   8.378  1.00  0.00     0.184 HD
HETATM   10  C   UNK N   1      34.962  13.313  11.133  0.00  0.00     0.050 A 
HETATM   11  C   UNK N   1      34.113  12.149   9.098  0.00  0.00     0.068 C 
HETATM   12  C   UNK N   1      35.196  14.493  11.830  0.00  0.00     0.024 A 
HETATM   13  C   UNK N   1      35.819  14.454  13.179  0.00  0.00     0.068 C 
ATOM     14  HN  UNK N   1      35.016  16.548  11.795  1.00  0.00     0.184 HD
HETATM   15  H   UNK N   1      33.751  17.735  10.077  0.00  0.00     0.197 HD
ENDBRANCH   1   4
BRANCH   1  16
HETATM   16  C   UNK N   1      32.699  17.443   6.603  0.00  0.00     0.080 A 
HETATM   17  C   UNK N   1      32.966  17.615   5.239  0.00  0.00     0.027 A 
HETATM   18  C   UNK N   1      31.928  17.569   4.306  0.00  0.00     0.030 A 
HETATM   19  C   UNK N   1      30.619  17.339   4.730  0.00  0.00     0.025 A 
HETATM   20  C   UNK N   1      30.346  17.170   6.093  0.00  0.00     0.030 A 
HETATM   21  C   UNK N   1      31.387  17.215   7.030  0.00  0.00     0.027 A 
BRANCH  19  22
HETATM   22  N   UNK N   1      29.578  17.265   3.785  0.00  0.00    -0.399 N 
HETATM   23  H   UNK N   1      28.830  17.904   3.824  0.00  0.00     0.156 HD
HETATM   24  H   UNK N   1      29.598  16.575   3.083  0.00  0.00     0.156 HD
ENDBRANCH  19  22
ENDBRANCH   1  16
TORSDOF 3
ENDMDL
MODEL 6
REMARK VINA RESULT:      -6.3     18.660     20.624
REMARK  3 active torsions:
REMARK  status: ('A' for Active; 'I' for Inactive)
REMARK    1  A    between atoms: S_1  and  N_4 
REMARK    2  A    between atoms: S_1  and  C_10 
REMARK       I    between atoms: N_4  and  C_13 
REMARK    3  A    between atoms: N_9  and  C_14 
ROOT
HETATM    1  S   UNK N   1      25.976  23.865  -6.704  0.00  0.00     0.276 S 
HETATM    2  O   UNK N   1      25.177  24.066  -8.000  0.00  0.00    -0.200 OA
HETATM    3  O   UNK N   1      25.198  22.688  -6.101  0.00  0.00    -0.200 OA
ENDROOT
BRANCH   1   4
HETATM    4  N   UNK N   1      27.474  23.136  -7.269  0.00  0.00    -0.112 N 
HETATM    5  C   UNK N   1      28.483  22.648  -6.405  0.00  0.00     0.692 A 
HETATM    6  N   UNK N   1      28.688  23.211  -5.186  0.00  0.00    -0.195 N 
HETATM    7  N   UNK N   1      29.248  21.598  -6.808  0.00  0.00    -0.195 N 
HETATM    8  C   UNK N   1      29.665  22.744  -4.361  0.00  0.00     0.024 A 
ATOM      9  HN  UNK N   1      28.104  23.991  -4.884  1.00  0.00     0.184 HD
HETATM   10  C   UNK N   1      30.447  21.658  -4.753  0.00  0.00     0.050 A 
HETATM   11  C   UNK N   1      29.905  23.396  -3.049  0.00  0.00     0.068 C 
HETATM   12  C   UNK N   1      30.213  21.086  -5.999  0.00  0.00     0.024 A 
HETATM   13  C   UNK N   1      31.007  19.910  -6.441  0.00  0.00     0.068 C 
ATOM     14  HN  UNK N   1      29.096  21.188  -7.729  1.00  0.00     0.184 HD
HETATM   15  H   UNK N   1      27.617  23.062  -8.240  0.00  0.00     0.197 HD
ENDBRANCH   1   4
BRANCH   1  16
HETATM   16  C   UNK N   1      25.806  25.312  -5.656  0.00  0.00     0.080 A 
HETATM   17  C   UNK N   1      26.295  25.250  -4.345  0.00  0.00     0.027 A 
HETATM   18  C   UNK N   1      26.287  26.386  -3.534  0.00  0.00     0.030 A 
HETATM   19  C   UNK N   1      25.800  27.596  -4.032  0.00  0.00     0.025 A 
HETATM   20  C   UNK N   1      25.306  27.663  -5.341  0.00  0.00     0.030 A 
HETATM   21  C   UNK N   1      25.315  26.523  -6.156  0.00  0.00     0.027 A 
BRANCH  19  22
HETATM   22  N   UNK N   1      25.817  28.747  -3.223  0.00  0.00    -0.399 N 
HETATM   23  H   UNK N   1      25.305  28.766  -2.382  0.00  0.00     0.156 HD
HETATM   24  H   UNK N   1      26.343  29.533  -3.496  0.00  0.00     0.156 HD
ENDBRANCH  19  22
ENDBRANCH   1  16
TORSDOF 3
ENDMDL
MODEL 7
REMARK VINA RESULT:      -6.2      2.816      4.323
REMARK  3 active torsions:
REMARK  status: ('A' for Active; 'I' for Inactive)
REMARK    1  A    between atoms: S_1  and  N_4 
REMARK    2  A    between atoms: S_1  and  C_10 
REMARK       I    between atoms: N_4  and  C_13 
REMARK    3  A    between atoms: N_9  and  C_14 
ROOT
HETATM    1  S   UNK N   1      32.431  17.395   8.285  0.00  0.00     0.276 S 
HETATM    2  O   UNK N   1      31.329  18.324   8.819  0.00  0.00    -0.200 OA
HETATM    3  O   UNK N   1      33.666  18.241   8.624  0.00  0.00    -0.200 OA
ENDROOT
BRANCH   1   4
HETATM    4  N   UNK N   1      32.468  16.100   9.475  0.00  0.00    -0.112 N 
HETATM    5  C   UNK N   1      33.615  15.315   9.743  0.00  0.00     0.692 A 
HETATM    6  N   UNK N   1      34.526  15.059   8.769  0.00  0.00    -0.195 N 
HETATM    7  N   UNK N   1      33.799  14.819  10.996  0.00  0.00    -0.195 N 
HETATM    8  C   UNK N   1      35.624  14.297   9.029  0.00  0.00     0.024 A 
ATOM      9  HN  UNK N   1      34.389  15.443   7.834  1.00  0.00     0.184 HD
HETATM   10  C   UNK N   1      35.836  13.795  10.312  0.00  0.00     0.050 A 
HETATM   11  C   UNK N   1      36.592  13.992   7.944  0.00  0.00     0.068 C 
HETATM   12  C   UNK N   1      34.898  14.079  11.299  0.00  0.00     0.024 A 
HETATM   13  C   UNK N   1      35.101  13.585  12.687  0.00  0.00     0.068 C 
ATOM     14  HN  UNK N   1      33.104  15.005  11.718  1.00  0.00     0.184 HD
HETATM   15  H   UNK N   1      31.646  15.911   9.982  0.00  0.00     0.197 HD
ENDBRANCH   1   4
BRANCH   1  16
HETATM   16  C   UNK N   1      32.272  17.226   6.506  0.00  0.00     0.080 A 
HETATM   17  C   UNK N   1      30.998  17.013   5.965  0.00  0.00     0.027 A 
HETATM   18  C   UNK N   1      30.814  16.989   4.581  0.00  0.00     0.030 A 
HETATM   19  C   UNK N   1      31.901  17.190   3.729  0.00  0.00     0.025 A 
HETATM   20  C   UNK N   1      33.178  17.399   4.264  0.00  0.00     0.030 A 
HETATM   21  C   UNK N   1      33.364  17.423   5.653  0.00  0.00     0.027 A 
BRANCH  19  22
HETATM   22  N   UNK N   1      31.709  17.193   2.335  0.00  0.00    -0.399 N 
HETATM   23  H   UNK N   1      31.006  16.633   1.933  0.00  0.00     0.156 HD
HETATM   24  H   UNK N   1      32.276  17.757   1.761  0.00  0.00     0.156 HD
ENDBRANCH  19  22
ENDBRANCH   1  16
TORSDOF 3
ENDMDL
MODEL 8
REMARK VINA RESULT:      -6.1      2.218      7.603
REMARK  3 active torsions:
REMARK  status: ('A' for Active; 'I' for Inactive)
REMARK    1  A    between atoms: S_1  and  N_4 
REMARK    2  A    between atoms: S_1  and  C_10 
REMARK       I    between atoms: N_4  and  C_13 
REMARK    3  A    between atoms: N_9  and  C_14 
ROOT
HETATM    1  S   UNK N   1      35.998  14.062  12.639  0.00  0.00     0.276 S 
HETATM    2  O   UNK N   1      34.851  13.289  11.968  0.00  0.00    -0.200 OA
HETATM    3  O   UNK N   1      37.195  13.275  12.087  0.00  0.00    -0.200 OA
ENDROOT
BRANCH   1   4
HETATM    4  N   UNK N   1      36.036  15.574  11.740  0.00  0.00    -0.112 N 
HETATM    5  C   UNK N   1      35.600  15.700  10.400  0.00  0.00     0.692 A 
HETATM    6  N   UNK N   1      35.701  14.658   9.534  0.00  0.00    -0.195 N 
HETATM    7  N   UNK N   1      35.071  16.882   9.985  0.00  0.00    -0.195 N 
HETATM    8  C   UNK N   1      35.287  14.786   8.243  0.00  0.00     0.024 A 
ATOM      9  HN  UNK N   1      36.088  13.770   9.853  1.00  0.00     0.184 HD
HETATM   10  C   UNK N   1      34.728  15.986   7.807  0.00  0.00     0.050 A 
HETATM   11  C   UNK N   1      35.441  13.652   7.297  0.00  0.00     0.068 C 
HETATM   12  C   UNK N   1      34.620  17.037   8.712  0.00  0.00     0.024 A 
HETATM   13  C   UNK N   1      34.004  18.324   8.293  0.00  0.00     0.068 C 
ATOM     14  HN  UNK N   1      35.009  17.663  10.638  1.00  0.00     0.184 HD
HETATM   15  H   UNK N   1      36.379  16.376  12.196  0.00  0.00     0.197 HD
ENDBRANCH   1   4
BRANCH   1  16
HETATM   16  C   UNK N   1      35.903  13.864  14.420  0.00  0.00     0.080 A 
HETATM   17  C   UNK N   1      36.766  14.619  15.223  0.00  0.00     0.027 A 
HETATM   18  C   UNK N   1      36.649  14.581  16.614  0.00  0.00     0.030 A 
HETATM   19  C   UNK N   1      35.659  13.797  17.210  0.00  0.00     0.025 A 
HETATM   20  C   UNK N   1      34.796  13.037  16.412  0.00  0.00     0.030 A 
HETATM   21  C   UNK N   1      34.913  13.075  15.015  0.00  0.00     0.027 A 
BRANCH  19  22
HETATM   22  N   UNK N   1      35.525  13.782  18.611  0.00  0.00    -0.399 N 
HETATM   23  H   UNK N   1      36.325  13.748  19.183  0.00  0.00     0.156 HD
HETATM   24  H   UNK N   1      34.629  13.806  19.020  0.00  0.00     0.156 HD
ENDBRANCH  19  22
ENDBRANCH   1  16
TORSDOF 3
ENDMDL
MODEL 9
REMARK VINA RESULT:      -6.1     13.626     16.624
REMARK  3 active torsions:
REMARK  status: ('A' for Active; 'I' for Inactive)
REMARK    1  A    between atoms: S_1  and  N_4 
REMARK    2  A    between atoms: S_1  and  C_10 
REMARK       I    between atoms: N_4  and  C_13 
REMARK    3  A    between atoms: N_9  and  C_14 
ROOT
HETATM    1  S   UNK N   1      21.307  16.005   6.658  0.00  0.00     0.276 S 
HETATM    2  O   UNK N   1      22.669  16.289   6.007  0.00  0.00    -0.200 OA
HETATM    3  O   UNK N   1      20.988  17.402   7.209  0.00  0.00    -0.200 OA
ENDROOT
BRANCH   1   4
HETATM    4  N   UNK N   1      20.232  15.841   5.276  0.00  0.00    -0.112 N 
HETATM    5  C   UNK N   1      20.284  16.682   4.138  0.00  0.00     0.692 A 
HETATM    6  N   UNK N   1      20.686  17.976   4.247  0.00  0.00    -0.195 N 
HETATM    7  N   UNK N   1      19.930  16.178   2.926  0.00  0.00    -0.195 N 
HETATM    8  C   UNK N   1      20.727  18.783   3.152  0.00  0.00     0.024 A 
ATOM      9  HN  UNK N   1      20.960  18.346   5.157  1.00  0.00     0.184 HD
HETATM   10  C   UNK N   1      20.383  18.277   1.899  0.00  0.00     0.050 A 
HETATM   11  C   UNK N   1      21.128  20.207   3.292  0.00  0.00     0.068 C 
HETATM   12  C   UNK N   1      19.988  16.947   1.806  0.00  0.00     0.024 A 
HETATM   13  C   UNK N   1      19.639  16.362   0.485  0.00  0.00     0.068 C 
ATOM     14  HN  UNK N   1      19.619  15.210   2.855  1.00  0.00     0.184 HD
HETATM   15  H   UNK N   1      19.557  15.125   5.294  0.00  0.00     0.197 HD
ENDBRANCH   1   4
BRANCH   1  16
HETATM   16  C   UNK N   1      21.511  14.845   8.013  0.00  0.00     0.080 A 
HETATM   17  C   UNK N   1      20.499  14.757   8.976  0.00  0.00     0.027 A 
HETATM   18  C   UNK N   1      20.564  13.790   9.981  0.00  0.00     0.030 A 
HETATM   19  C   UNK N   1      21.636  12.897  10.022  0.00  0.00     0.025 A 
HETATM   20  C   UNK N   1      22.654  12.984   9.064  0.00  0.00     0.030 A 
HETATM   21  C   UNK N   1      22.589  13.954   8.055  0.00  0.00     0.027 A 
BRANCH  19  22
HETATM   22  N   UNK N   1      21.687  11.906  11.020  0.00  0.00    -0.399 N 
HETATM   23  H   UNK N   1      22.031  12.124  11.916  0.00  0.00     0.156 HD
HETATM   24  H   UNK N   1      21.376  10.992  10.822  0.00  0.00     0.156 HD
ENDBRANCH  19  22
ENDBRANCH   1  16
TORSDOF 3
ENDMDL
