REMARK  3 active torsions:
REMARK  status: ('A' for Active; 'I' for Inactive)
REMARK    1  A    between atoms: S_1  and  N_4 
REMARK    2  A    between atoms: S_1  and  C_10 
REMARK       I    between atoms: N_4  and  C_13 
REMARK    3  A    between atoms: N_9  and  C_14 
ROOT
HETATM    1  S   UNK N   1       1.158   0.229  -0.235  0.00  0.00     0.276 S 
HETATM    2  O   UNK N   1      -0.337   0.258   0.118  0.00  0.00    -0.200 OA
HETATM    3  O   UNK N   1       1.074   0.535  -1.737  0.00  0.00    -0.200 OA
ENDROOT
BRANCH   1   4
HETATM    4  N   UNK N   1       1.761   1.725   0.467  0.00  0.00    -0.112 N 
HETATM    5  C   UNK N   1       3.085   2.194   0.294  0.00  0.00     0.692 A 
HETATM    6  N   UNK N   1       4.116   1.324   0.132  0.00  0.00    -0.195 N 
HETATM    7  N   UNK N   1       3.317   3.534   0.287  0.00  0.00    -0.195 N 
HETATM    8  C   UNK N   1       5.389   1.779  -0.026  0.00  0.00     0.024 A 
ATOM      9  HN  UNK N   1       3.935   0.320   0.127  1.00  0.00     0.184 HD
HETATM   10  C   UNK N   1       5.641   3.150  -0.052  0.00  0.00     0.050 A 
HETATM   11  C   UNK N   1       6.512   0.816  -0.161  0.00  0.00     0.068 C 
HETATM   12  C   UNK N   1       4.571   4.025   0.102  0.00  0.00     0.024 A 
HETATM   13  C   UNK N   1       4.794   5.494   0.053  0.00  0.00     0.068 C 
ATOM     14  HN  UNK N   1       2.539   4.180   0.421  1.00  0.00     0.184 HD
HETATM   15  H   UNK N   1       1.143   2.266   1.009  0.00  0.00     0.197 HD
ENDBRANCH   1   4
BRANCH   1  16
HETATM   16  C   UNK N   1       1.809  -1.424   0.018  0.00  0.00     0.080 A 
HETATM   17  C   UNK N   1       0.935  -2.512  -0.099  0.00  0.00     0.027 A 
HETATM   18  C   UNK N   1       1.421  -3.819  -0.023  0.00  0.00     0.030 A 
HETATM   19  C   UNK N   1       2.786  -4.046   0.159  0.00  0.00     0.025 A 
HETATM   20  C   UNK N   1       3.664  -2.962   0.281  0.00  0.00     0.030 A 
HETATM   21  C   UNK N   1       3.177  -1.650   0.204  0.00  0.00     0.027 A 
BRANCH  19  22
HETATM   22  N   UNK N   1       3.278  -5.364   0.208  0.00  0.00    -0.399 N 
HETATM   23  H   UNK N   1       2.652  -6.123   0.241  0.00  0.00     0.156 HD
HETATM   24  H   UNK N   1       4.249  -5.527   0.208  0.00  0.00     0.156 HD
ENDBRANCH  19  22
ENDBRANCH   1  16
TORSDOF 3
