MODEL 1
REMARK VINA RESULT:      -7.6      0.000      0.000
REMARK  7 active torsions:
REMARK  status: ('A' for Active; 'I' for Inactive)
REMARK    1  A    between atoms: C_14  and  O_1 
REMARK    2  A    between atoms: C_24  and  O_2 
REMARK    3  A    between atoms: O_3  and  C_28 
REMARK    4  A    between atoms: C_10  and  C_20 
REMARK    5  A    between atoms: C_20  and  C_25 
REMARK    6  A    between atoms: C_25  and  C_27 
REMARK    7  A    between atoms: C_27  and  C_28 
ROOT
HETATM    1  C   UNK N   1      35.200  12.064  10.738  0.00  0.00     0.001 C 
HETATM    2  C   UNK N   1      35.492  13.542  10.454  0.00  0.00    -0.036 C 
HETATM    3  C   UNK N   1      35.831  11.585  12.069  0.00  0.00     0.024 C 
HETATM    4  C   UNK N   1      35.251  12.497  13.202  0.00  0.00     0.001 C 
HETATM    5  C   UNK N   1      35.751  12.064  14.606  0.00  0.00    -0.036 C 
HETATM    6  C   UNK N   1      34.782  13.678   9.102  0.00  0.00    -0.002 C 
HETATM    7  C   UNK N   1      35.435  10.537  14.871  0.00  0.00    -0.001 C 
HETATM    8  C   UNK N   1      34.924  14.412  11.574  0.00  0.00     0.010 C 
HETATM    9  C   UNK N   1      35.529  13.988  12.917  0.00  0.00     0.007 C 
HETATM   10  C   UNK N   1      35.593  10.081  12.399  0.00  0.00     0.123 C 
HETATM   11  C   UNK N   1      35.615  11.393   9.429  0.00  0.00     0.006 C 
HETATM   12  C   UNK N   1      35.253  12.428   8.342  0.00  0.00     0.006 C 
HETATM   13  C   UNK N   1      34.779   9.843  13.670  0.00  0.00     0.037 C 
HETATM   14  C   UNK N   1      35.067  12.964  15.657  0.00  0.00     0.012 C 
HETATM   15  C   UNK N   1      37.003  13.817  10.324  0.00  0.00     0.016 C 
HETATM   16  C   UNK N   1      34.513  10.327  16.079  0.00  0.00     0.037 C 
HETATM   17  C   UNK N   1      37.263  12.293  14.703  0.00  0.00     0.016 C 
HETATM   18  C   UNK N   1      35.374  12.516  17.085  0.00  0.00     0.032 C 
HETATM   19  C   UNK N   1      35.037  11.041  17.330  0.00  0.00     0.118 C 
ENDROOT
BRANCH   6  20
HETATM   20  C   UNK N   1      34.926  14.987   8.311  0.00  0.00    -0.013 C 
HETATM   21  C   UNK N   1      35.371  14.759   6.873  0.00  0.00     0.010 C 
BRANCH  20  22
HETATM   22  C   UNK N   1      33.734  15.936   8.383  0.00  0.00     0.015 C 
BRANCH  22  23
HETATM   23  C   UNK N   1      34.148  17.232   9.078  0.00  0.00     0.110 C 
BRANCH  23  24
HETATM   24  C   UNK N   1      34.630  18.281   8.111  0.00  0.00     0.139 C 
HETATM   25  O   UNK N   1      34.376  18.198   6.918  0.00  0.00    -0.650 OA
BRANCH  24  26
HETATM   26  O   UNK N   1      35.335  19.331   8.569  0.00  0.00    -0.776 OA
HETATM   27  H   UNK N   1      34.990  20.182   8.760  0.00  0.00     0.167 HD
ENDBRANCH  24  26
ENDBRANCH  23  24
ENDBRANCH  22  23
ENDBRANCH  20  22
ENDBRANCH   6  20
BRANCH  10  28
HETATM   28  O   UNK N   1      35.061   9.349  11.336  0.00  0.00    -0.395 OA
HETATM   29  H   UNK N   1      34.479   9.720  10.654  0.00  0.00     0.210 HD
ENDBRANCH  10  28
BRANCH  19  30
HETATM   30  O   UNK N   1      36.164  10.385  17.826  0.00  0.00    -0.396 OA
HETATM   31  H   UNK N   1      36.915   9.819  17.588  0.00  0.00     0.210 HD
ENDBRANCH  19  30
TORSDOF 7
ENDMDL
MODEL 2
REMARK VINA RESULT:      -7.6     12.194     16.238
REMARK  7 active torsions:
REMARK  status: ('A' for Active; 'I' for Inactive)
REMARK    1  A    between atoms: C_14  and  O_1 
REMARK    2  A    between atoms: C_24  and  O_2 
REMARK    3  A    between atoms: O_3  and  C_28 
REMARK    4  A    between atoms: C_10  and  C_20 
REMARK    5  A    between atoms: C_20  and  C_25 
REMARK    6  A    between atoms: C_25  and  C_27 
REMARK    7  A    between atoms: C_27  and  C_28 
ROOT
HETATM    1  C   UNK N   1      23.505  15.380   6.422  0.00  0.00     0.001 C 
HETATM    2  C   UNK N   1      22.610  14.175   6.733  0.00  0.00    -0.036 C 
HETATM    3  C   UNK N   1      23.211  15.985   5.026  0.00  0.00     0.024 C 
HETATM    4  C   UNK N   1      21.700  16.392   5.016  0.00  0.00     0.001 C 
HETATM    5  C   UNK N   1      21.297  17.088   3.687  0.00  0.00    -0.036 C 
HETATM    6  C   UNK N   1      23.161  13.811   8.117  0.00  0.00    -0.002 C 
HETATM    7  C   UNK N   1      22.235  18.327   3.393  0.00  0.00    -0.001 C 
HETATM    8  C   UNK N   1      21.141  14.593   6.710  0.00  0.00     0.010 C 
HETATM    9  C   UNK N   1      20.792  15.187   5.341  0.00  0.00     0.007 C 
HETATM   10  C   UNK N   1      24.109  17.198   4.639  0.00  0.00     0.123 C 
HETATM   11  C   UNK N   1      24.901  14.837   6.723  0.00  0.00     0.006 C 
HETATM   12  C   UNK N   1      24.682  13.867   7.905  0.00  0.00     0.006 C 
HETATM   13  C   UNK N   1      23.342  18.503   4.441  0.00  0.00     0.037 C 
HETATM   14  C   UNK N   1      19.821  17.522   3.801  0.00  0.00     0.012 C 
HETATM   15  C   UNK N   1      22.819  13.025   5.727  0.00  0.00     0.016 C 
HETATM   16  C   UNK N   1      21.460  19.649   3.321  0.00  0.00     0.037 C 
HETATM   17  C   UNK N   1      21.405  16.085   2.533  0.00  0.00     0.016 C 
HETATM   18  C   UNK N   1      19.372  18.357   2.602  0.00  0.00     0.032 C 
HETATM   19  C   UNK N   1      20.278  19.567   2.349  0.00  0.00     0.118 C 
ENDROOT
BRANCH   6  20
HETATM   20  C   UNK N   1      22.668  12.527   8.803  0.00  0.00    -0.013 C 
HETATM   21  C   UNK N   1      23.619  11.355   8.608  0.00  0.00     0.010 C 
BRANCH  20  22
HETATM   22  C   UNK N   1      22.259  12.676  10.264  0.00  0.00     0.015 C 
BRANCH  22  23
HETATM   23  C   UNK N   1      22.863  11.539  11.088  0.00  0.00     0.110 C 
BRANCH  23  24
HETATM   24  C   UNK N   1      23.849  12.027  12.116  0.00  0.00     0.139 C 
HETATM   25  O   UNK N   1      23.558  12.047  13.303  0.00  0.00    -0.650 OA
BRANCH  24  26
HETATM   26  O   UNK N   1      25.071  12.431  11.724  0.00  0.00    -0.776 OA
HETATM   27  H   UNK N   1      25.295  12.751  10.872  0.00  0.00     0.167 HD
ENDBRANCH  24  26
ENDBRANCH  23  24
ENDBRANCH  22  23
ENDBRANCH  20  22
ENDBRANCH   6  20
BRANCH  10  28
HETATM   28  O   UNK N   1      25.190  17.394   5.500  0.00  0.00    -0.395 OA
HETATM   29  H   UNK N   1      25.176  17.987   6.269  0.00  0.00     0.210 HD
ENDBRANCH  10  28
BRANCH  19  30
HETATM   30  O   UNK N   1      20.735  19.535   1.031  0.00  0.00    -0.396 OA
HETATM   31  H   UNK N   1      21.490  19.731   0.454  0.00  0.00     0.210 HD
ENDBRANCH  19  30
TORSDOF 7
ENDMDL
MODEL 3
REMARK VINA RESULT:      -7.3     18.017     21.276
REMARK  7 active torsions:
REMARK  status: ('A' for Active; 'I' for Inactive)
REMARK    1  A    between atoms: C_14  and  O_1 
REMARK    2  A    between atoms: C_24  and  O_2 
REMARK    3  A    between atoms: O_3  and  C_28 
REMARK    4  A    between atoms: C_10  and  C_20 
REMARK    5  A    between atoms: C_20  and  C_25 
REMARK    6  A    between atoms: C_25  and  C_27 
REMARK    7  A    between atoms: C_27  and  C_28 
ROOT
HETATM    1  C   UNK N   1      28.545  24.304  -4.013  0.00  0.00     0.001 C 
HETATM    2  C   UNK N   1      28.001  24.767  -5.370  0.00  0.00    -0.036 C 
HETATM    3  C   UNK N   1      29.273  22.940  -4.106  0.00  0.00     0.024 C 
HETATM    4  C   UNK N   1      30.433  23.113  -5.144  0.00  0.00     0.001 C 
HETATM    5  C   UNK N   1      31.294  21.827  -5.269  0.00  0.00    -0.036 C 
HETATM    6  C   UNK N   1      27.336  26.078  -4.934  0.00  0.00    -0.002 C 
HETATM    7  C   UNK N   1      31.841  21.375  -3.856  0.00  0.00    -0.001 C 
HETATM    8  C   UNK N   1      29.147  24.922  -6.368  0.00  0.00     0.010 C 
HETATM    9  C   UNK N   1      29.896  23.592  -6.509  0.00  0.00     0.007 C 
HETATM   10  C   UNK N   1      29.824  22.401  -2.752  0.00  0.00     0.123 C 
HETATM   11  C   UNK N   1      27.321  24.438  -3.108  0.00  0.00     0.006 C 
HETATM   12  C   UNK N   1      26.571  25.667  -3.665  0.00  0.00     0.006 C 
HETATM   13  C   UNK N   1      31.345  22.264  -2.708  0.00  0.00     0.037 C 
HETATM   14  C   UNK N   1      32.452  22.119  -6.247  0.00  0.00     0.012 C 
HETATM   15  C   UNK N   1      26.967  23.778  -5.945  0.00  0.00     0.016 C 
HETATM   16  C   UNK N   1      33.374  21.364  -3.794  0.00  0.00     0.037 C 
HETATM   17  C   UNK N   1      30.444  20.701  -5.868  0.00  0.00     0.016 C 
HETATM   18  C   UNK N   1      33.448  20.963  -6.320  0.00  0.00     0.032 C 
HETATM   19  C   UNK N   1      33.987  20.556  -4.944  0.00  0.00     0.118 C 
ENDROOT
BRANCH   6  20
HETATM   20  C   UNK N   1      26.494  26.862  -5.952  0.00  0.00    -0.013 C 
HETATM   21  C   UNK N   1      25.004  26.815  -5.641  0.00  0.00     0.010 C 
BRANCH  20  22
HETATM   22  C   UNK N   1      26.960  28.285  -6.236  0.00  0.00     0.015 C 
BRANCH  22  23
HETATM   23  C   UNK N   1      27.639  28.863  -4.995  0.00  0.00     0.110 C 
BRANCH  23  24
HETATM   24  C   UNK N   1      26.722  29.745  -4.189  0.00  0.00     0.139 C 
HETATM   25  O   UNK N   1      26.682  30.951  -4.382  0.00  0.00    -0.650 OA
BRANCH  24  26
HETATM   26  O   UNK N   1      25.924  29.194  -3.256  0.00  0.00    -0.776 OA
HETATM   27  H   UNK N   1      24.991  29.276  -3.215  0.00  0.00     0.167 HD
ENDBRANCH  24  26
ENDBRANCH  23  24
ENDBRANCH  22  23
ENDBRANCH  20  22
ENDBRANCH   6  20
BRANCH  10  28
HETATM   28  O   UNK N   1      29.367  23.108  -1.638  0.00  0.00    -0.395 OA
HETATM   29  H   UNK N   1      28.824  23.910  -1.685  0.00  0.00     0.210 HD
ENDBRANCH  10  28
BRANCH  19  30
HETATM   30  O   UNK N   1      33.772  19.192  -4.748  0.00  0.00    -0.396 OA
HETATM   31  H   UNK N   1      34.195  18.356  -4.493  0.00  0.00     0.210 HD
ENDBRANCH  19  30
TORSDOF 7
ENDMDL
MODEL 4
REMARK VINA RESULT:      -7.1     18.041     23.131
REMARK  7 active torsions:
REMARK  status: ('A' for Active; 'I' for Inactive)
REMARK    1  A    between atoms: C_14  and  O_1 
REMARK    2  A    between atoms: C_24  and  O_2 
REMARK    3  A    between atoms: O_3  and  C_28 
REMARK    4  A    between atoms: C_10  and  C_20 
REMARK    5  A    between atoms: C_20  and  C_25 
REMARK    6  A    between atoms: C_25  and  C_27 
REMARK    7  A    between atoms: C_27  and  C_28 
ROOT
HETATM    1  C   UNK N   1      28.442  24.868  -7.060  0.00  0.00     0.001 C 
HETATM    2  C   UNK N   1      28.400  23.691  -6.078  0.00  0.00    -0.036 C 
HETATM    3  C   UNK N   1      27.506  26.026  -6.630  0.00  0.00     0.024 C 
HETATM    4  C   UNK N   1      27.963  26.473  -5.201  0.00  0.00     0.001 C 
HETATM    5  C   UNK N   1      27.146  27.689  -4.687  0.00  0.00    -0.036 C 
HETATM    6  C   UNK N   1      29.373  22.743  -6.789  0.00  0.00    -0.002 C 
HETATM    7  C   UNK N   1      27.209  28.886  -5.718  0.00  0.00    -0.001 C 
HETATM    8  C   UNK N   1      28.841  24.151  -4.689  0.00  0.00     0.010 C 
HETATM    9  C   UNK N   1      27.936  25.291  -4.209  0.00  0.00     0.007 C 
HETATM   10  C   UNK N   1      27.483  27.241  -7.605  0.00  0.00     0.123 C 
HETATM   11  C   UNK N   1      28.211  24.179  -8.404  0.00  0.00     0.006 C 
HETATM   12  C   UNK N   1      28.907  22.809  -8.252  0.00  0.00     0.006 C 
HETATM   13  C   UNK N   1      27.995  28.542  -6.990  0.00  0.00     0.037 C 
HETATM   14  C   UNK N   1      27.718  28.106  -3.315  0.00  0.00     0.012 C 
HETATM   15  C   UNK N   1      26.991  23.074  -5.976  0.00  0.00     0.016 C 
HETATM   16  C   UNK N   1      27.842  30.149  -5.118  0.00  0.00     0.037 C 
HETATM   17  C   UNK N   1      25.685  27.273  -4.481  0.00  0.00     0.016 C 
HETATM   18  C   UNK N   1      27.082  29.394  -2.794  0.00  0.00     0.032 C 
HETATM   19  C   UNK N   1      27.176  30.550  -3.797  0.00  0.00     0.118 C 
ENDROOT
BRANCH   6  20
HETATM   20  C   UNK N   1      29.553  21.316  -6.249  0.00  0.00    -0.013 C 
HETATM   21  C   UNK N   1      29.328  20.252  -7.315  0.00  0.00     0.010 C 
BRANCH  20  22
HETATM   22  C   UNK N   1      30.840  21.063  -5.471  0.00  0.00     0.015 C 
BRANCH  22  23
HETATM   23  C   UNK N   1      30.557  21.128  -3.971  0.00  0.00     0.110 C 
BRANCH  23  24
HETATM   24  C   UNK N   1      31.623  21.872  -3.210  0.00  0.00     0.139 C 
HETATM   25  O   UNK N   1      31.912  23.023  -3.499  0.00  0.00    -0.650 OA
BRANCH  24  26
HETATM   26  O   UNK N   1      32.254  21.264  -2.189  0.00  0.00    -0.776 OA
HETATM   27  H   UNK N   1      32.165  20.363  -1.949  0.00  0.00     0.167 HD
ENDBRANCH  24  26
ENDBRANCH  23  24
ENDBRANCH  22  23
ENDBRANCH  20  22
ENDBRANCH   6  20
BRANCH  10  28
HETATM   28  O   UNK N   1      28.117  26.996  -8.824  0.00  0.00    -0.395 OA
HETATM   29  H   UNK N   1      27.867  27.413  -9.663  0.00  0.00     0.210 HD
ENDBRANCH  10  28
BRANCH  19  30
HETATM   30  O   UNK N   1      25.900  31.062  -4.033  0.00  0.00    -0.396 OA
HETATM   31  H   UNK N   1      25.030  30.866  -4.415  0.00  0.00     0.210 HD
ENDBRANCH  19  30
TORSDOF 7
ENDMDL
MODEL 5
REMARK VINA RESULT:      -7.0      7.201     10.779
REMARK  7 active torsions:
REMARK  status: ('A' for Active; 'I' for Inactive)
REMARK    1  A    between atoms: C_14  and  O_1 
REMARK    2  A    between atoms: C_24  and  O_2 
REMARK    3  A    between atoms: O_3  and  C_28 
REMARK    4  A    between atoms: C_10  and  C_20 
REMARK    5  A    between atoms: C_20  and  C_25 
REMARK    6  A    between atoms: C_25  and  C_27 
REMARK    7  A    between atoms: C_27  and  C_28 
ROOT
HETATM    1  C   UNK N   1      29.591  17.984   7.116  0.00  0.00     0.001 C 
HETATM    2  C   UNK N   1      28.477  18.219   6.089  0.00  0.00    -0.036 C 
HETATM    3  C   UNK N   1      30.326  16.639   6.888  0.00  0.00     0.024 C 
HETATM    4  C   UNK N   1      30.905  16.678   5.433  0.00  0.00     0.001 C 
HETATM    5  C   UNK N   1      31.738  15.409   5.108  0.00  0.00    -0.036 C 
HETATM    6  C   UNK N   1      27.951  19.566   6.600  0.00  0.00    -0.002 C 
HETATM    7  C   UNK N   1      32.878  15.193   6.182  0.00  0.00    -0.001 C 
HETATM    8  C   UNK N   1      29.062  18.245   4.678  0.00  0.00     0.010 C 
HETATM    9  C   UNK N   1      29.791  16.927   4.394  0.00  0.00     0.007 C 
HETATM   10  C   UNK N   1      31.453  16.329   7.919  0.00  0.00     0.123 C 
HETATM   11  C   UNK N   1      28.870  18.227   8.440  0.00  0.00     0.006 C 
HETATM   12  C   UNK N   1      27.848  19.338   8.117  0.00  0.00     0.006 C 
HETATM   13  C   UNK N   1      32.849  16.236   7.307  0.00  0.00     0.037 C 
HETATM   14  C   UNK N   1      32.330  15.573   3.692  0.00  0.00     0.012 C 
HETATM   15  C   UNK N   1      27.388  17.129   6.159  0.00  0.00     0.016 C 
HETATM   16  C   UNK N   1      34.283  15.227   5.565  0.00  0.00     0.037 C 
HETATM   17  C   UNK N   1      30.816  14.184   5.094  0.00  0.00     0.016 C 
HETATM   18  C   UNK N   1      33.296  14.443   3.338  0.00  0.00     0.032 C 
HETATM   19  C   UNK N   1      34.409  14.267   4.377  0.00  0.00     0.118 C 
ENDROOT
BRANCH   6  20
HETATM   20  C   UNK N   1      26.686  20.163   5.965  0.00  0.00    -0.013 C 
HETATM   21  C   UNK N   1      26.355  21.547   6.505  0.00  0.00     0.010 C 
BRANCH  20  22
HETATM   22  C   UNK N   1      26.637  20.132   4.441  0.00  0.00     0.015 C 
BRANCH  22  23
HETATM   23  C   UNK N   1      25.250  19.685   3.979  0.00  0.00     0.110 C 
BRANCH  23  24
HETATM   24  C   UNK N   1      24.678  20.578   2.910  0.00  0.00     0.139 C 
HETATM   25  O   UNK N   1      25.320  20.842   1.904  0.00  0.00    -0.650 OA
BRANCH  24  26
HETATM   26  O   UNK N   1      23.438  21.078   3.058  0.00  0.00    -0.776 OA
HETATM   27  H   UNK N   1      23.212  21.988   3.066  0.00  0.00     0.167 HD
ENDBRANCH  24  26
ENDBRANCH  23  24
ENDBRANCH  22  23
ENDBRANCH  20  22
ENDBRANCH   6  20
BRANCH  10  28
HETATM   28  O   UNK N   1      31.459  17.189   9.019  0.00  0.00    -0.395 OA
HETATM   29  H   UNK N   1      32.263  17.493   9.470  0.00  0.00     0.210 HD
ENDBRANCH  10  28
BRANCH  19  30
HETATM   30  O   UNK N   1      34.422  12.945   4.821  0.00  0.00    -0.396 OA
HETATM   31  H   UNK N   1      34.675  12.362   5.555  0.00  0.00     0.210 HD
ENDBRANCH  19  30
TORSDOF 7
ENDMDL
MODEL 6
REMARK VINA RESULT:      -6.9      9.576     13.313
REMARK  7 active torsions:
REMARK  status: ('A' for Active; 'I' for Inactive)
REMARK    1  A    between atoms: C_14  and  O_1 
REMARK    2  A    between atoms: C_24  and  O_2 
REMARK    3  A    between atoms: O_3  and  C_28 
REMARK    4  A    between atoms: C_10  and  C_20 
REMARK    5  A    between atoms: C_20  and  C_25 
REMARK    6  A    between atoms: C_25  and  C_27 
REMARK    7  A    between atoms: C_27  and  C_28 
ROOT
HETATM    1  C   UNK N   1      26.042  17.592   5.103  0.00  0.00     0.001 C 
HETATM    2  C   UNK N   1      27.110  16.563   5.491  0.00  0.00    -0.036 C 
HETATM    3  C   UNK N   1      24.678  16.931   4.781  0.00  0.00     0.024 C 
HETATM    4  C   UNK N   1      24.248  16.131   6.056  0.00  0.00     0.001 C 
HETATM    5  C   UNK N   1      22.848  15.482   5.887  0.00  0.00    -0.036 C 
HETATM    6  C   UNK N   1      28.297  17.509   5.705  0.00  0.00    -0.002 C 
HETATM    7  C   UNK N   1      21.768  16.566   5.488  0.00  0.00    -0.001 C 
HETATM    8  C   UNK N   1      26.666  15.790   6.732  0.00  0.00     0.010 C 
HETATM    9  C   UNK N   1      25.324  15.102   6.462  0.00  0.00     0.007 C 
HETATM   10  C   UNK N   1      23.557  17.924   4.352  0.00  0.00     0.123 C 
HETATM   11  C   UNK N   1      26.752  18.407   4.023  0.00  0.00     0.006 C 
HETATM   12  C   UNK N   1      28.228  18.426   4.473  0.00  0.00     0.006 C 
HETATM   13  C   UNK N   1      22.364  17.967   5.304  0.00  0.00     0.037 C 
HETATM   14  C   UNK N   1      22.477  14.788   7.215  0.00  0.00     0.012 C 
HETATM   15  C   UNK N   1      27.389  15.562   4.352  0.00  0.00     0.016 C 
HETATM   16  C   UNK N   1      20.640  16.682   6.523  0.00  0.00     0.037 C 
HETATM   17  C   UNK N   1      22.913  14.406   4.796  0.00  0.00     0.016 C 
HETATM   18  C   UNK N   1      21.047  14.249   7.202  0.00  0.00     0.032 C 
HETATM   19  C   UNK N   1      20.012  15.320   6.840  0.00  0.00     0.118 C 
ENDROOT
BRANCH   6  20
HETATM   20  C   UNK N   1      29.689  16.913   5.969  0.00  0.00    -0.013 C 
HETATM   21  C   UNK N   1      30.723  17.358   4.944  0.00  0.00     0.010 C 
BRANCH  20  22
HETATM   22  C   UNK N   1      30.212  17.068   7.393  0.00  0.00     0.015 C 
BRANCH  22  23
HETATM   23  C   UNK N   1      29.470  18.207   8.094  0.00  0.00     0.110 C 
BRANCH  23  24
HETATM   24  C   UNK N   1      28.689  17.739   9.293  0.00  0.00     0.139 C 
HETATM   25  O   UNK N   1      29.216  17.052  10.156  0.00  0.00    -0.650 OA
BRANCH  24  26
HETATM   26  O   UNK N   1      27.399  18.097   9.424  0.00  0.00    -0.776 OA
HETATM   27  H   UNK N   1      26.745  18.044   8.755  0.00  0.00     0.167 HD
ENDBRANCH  24  26
ENDBRANCH  23  24
ENDBRANCH  22  23
ENDBRANCH  20  22
ENDBRANCH   6  20
BRANCH  10  28
HETATM   28  O   UNK N   1      24.020  19.215   4.092  0.00  0.00    -0.395 OA
HETATM   29  H   UNK N   1      23.709  20.011   4.552  0.00  0.00     0.210 HD
ENDBRANCH  10  28
BRANCH  19  30
HETATM   30  O   UNK N   1      19.245  14.877   5.762  0.00  0.00    -0.396 OA
HETATM   31  H   UNK N   1      19.087  14.133   5.161  0.00  0.00     0.210 HD
ENDBRANCH  19  30
TORSDOF 7
ENDMDL
MODEL 7
REMARK VINA RESULT:      -6.8      3.541      9.721
REMARK  7 active torsions:
REMARK  status: ('A' for Active; 'I' for Inactive)
REMARK    1  A    between atoms: C_14  and  O_1 
REMARK    2  A    between atoms: C_24  and  O_2 
REMARK    3  A    between atoms: O_3  and  C_28 
REMARK    4  A    between atoms: C_10  and  C_20 
REMARK    5  A    between atoms: C_20  and  C_25 
REMARK    6  A    between atoms: C_25  and  C_27 
REMARK    7  A    between atoms: C_27  and  C_28 
ROOT
HETATM    1  C   UNK N   1      35.222  10.882  17.591  0.00  0.00     0.001 C 
HETATM    2  C   UNK N   1      35.499   9.385  17.774  0.00  0.00    -0.036 C 
HETATM    3  C   UNK N   1      36.167  11.531  16.549  0.00  0.00     0.024 C 
HETATM    4  C   UNK N   1      35.961  10.756  15.204  0.00  0.00     0.001 C 
HETATM    5  C   UNK N   1      36.801  11.367  14.050  0.00  0.00    -0.036 C 
HETATM    6  C   UNK N   1      34.457   9.072  18.854  0.00  0.00    -0.002 C 
HETATM    7  C   UNK N   1      36.494  12.909  13.885  0.00  0.00    -0.001 C 
HETATM    8  C   UNK N   1      35.301   8.650  16.449  0.00  0.00     0.010 C 
HETATM    9  C   UNK N   1      36.225   9.246  15.382  0.00  0.00     0.007 C 
HETATM   10  C   UNK N   1      35.953  13.060  16.339  0.00  0.00     0.123 C 
HETATM   11  C   UNK N   1      35.233  11.393  19.031  0.00  0.00     0.006 C 
HETATM   12  C   UNK N   1      34.641  10.227  19.852  0.00  0.00     0.006 C 
HETATM   13  C   UNK N   1      35.504  13.440  14.930  0.00  0.00     0.037 C 
HETATM   14  C   UNK N   1      36.474  10.592  12.756  0.00  0.00     0.012 C 
HETATM   15  C   UNK N   1      36.930   9.120  18.283  0.00  0.00     0.016 C 
HETATM   16  C   UNK N   1      35.925  13.252  12.501  0.00  0.00     0.037 C 
HETATM   17  C   UNK N   1      38.293  11.176  14.349  0.00  0.00     0.016 C 
HETATM   18  C   UNK N   1      37.134  11.218  11.528  0.00  0.00     0.032 C 
HETATM   19  C   UNK N   1      36.804  12.706  11.370  0.00  0.00     0.118 C 
ENDROOT
BRANCH   6  20
HETATM   20  C   UNK N   1      34.446   7.677  19.499  0.00  0.00    -0.013 C 
HETATM   21  C   UNK N   1      34.955   7.690  20.934  0.00  0.00     0.010 C 
BRANCH  20  22
HETATM   22  C   UNK N   1      33.136   6.906  19.379  0.00  0.00     0.015 C 
BRANCH  22  23
HETATM   23  C   UNK N   1      32.309   7.092  20.650  0.00  0.00     0.110 C 
BRANCH  23  24
HETATM   24  C   UNK N   1      31.335   8.235  20.547  0.00  0.00     0.139 C 
HETATM   25  O   UNK N   1      31.513   9.270  21.172  0.00  0.00    -0.650 OA
BRANCH  24  26
HETATM   26  O   UNK N   1      30.263   8.121  19.742  0.00  0.00    -0.776 OA
HETATM   27  H   UNK N   1      30.271   8.181  18.807  0.00  0.00     0.167 HD
ENDBRANCH  24  26
ENDBRANCH  23  24
ENDBRANCH  22  23
ENDBRANCH  20  22
ENDBRANCH   6  20
BRANCH  10  28
HETATM   28  O   UNK N   1      35.117  13.647  17.291  0.00  0.00    -0.395 OA
HETATM   29  H   UNK N   1      35.291  13.647  18.246  0.00  0.00     0.210 HD
ENDBRANCH  10  28
BRANCH  19  30
HETATM   30  O   UNK N   1      37.989  13.437  11.282  0.00  0.00    -0.396 OA
HETATM   31  H   UNK N   1      38.449  14.233  11.591  0.00  0.00     0.210 HD
ENDBRANCH  19  30
TORSDOF 7
ENDMDL
MODEL 8
REMARK VINA RESULT:      -6.6     17.964     21.426
REMARK  7 active torsions:
REMARK  status: ('A' for Active; 'I' for Inactive)
REMARK    1  A    between atoms: C_14  and  O_1 
REMARK    2  A    between atoms: C_24  and  O_2 
REMARK    3  A    between atoms: O_3  and  C_28 
REMARK    4  A    between atoms: C_10  and  C_20 
REMARK    5  A    between atoms: C_20  and  C_25 
REMARK    6  A    between atoms: C_25  and  C_27 
REMARK    7  A    between atoms: C_27  and  C_28 
ROOT
HETATM    1  C   UNK N   1      28.553  24.101  -4.095  0.00  0.00     0.001 C 
HETATM    2  C   UNK N   1      27.971  24.428  -5.475  0.00  0.00    -0.036 C 
HETATM    3  C   UNK N   1      29.334  22.763  -4.089  0.00  0.00     0.024 C 
HETATM    4  C   UNK N   1      30.470  22.894  -5.158  0.00  0.00     0.001 C 
HETATM    5  C   UNK N   1      31.379  21.636  -5.194  0.00  0.00    -0.036 C 
HETATM    6  C   UNK N   1      27.261  25.744  -5.136  0.00  0.00    -0.002 C 
HETATM    7  C   UNK N   1      31.966  21.324  -3.759  0.00  0.00    -0.001 C 
HETATM    8  C   UNK N   1      29.095  24.544  -6.504  0.00  0.00     0.010 C 
HETATM    9  C   UNK N   1      29.893  23.236  -6.548  0.00  0.00     0.007 C 
HETATM   10  C   UNK N   1      29.927  22.360  -2.705  0.00  0.00     0.123 C 
HETATM   11  C   UNK N   1      27.339  24.263  -3.182  0.00  0.00     0.006 C 
HETATM   12  C   UNK N   1      26.533  25.412  -3.824  0.00  0.00     0.006 C 
HETATM   13  C   UNK N   1      31.452  22.285  -2.679  0.00  0.00     0.037 C 
HETATM   14  C   UNK N   1      32.509  21.890  -6.214  0.00  0.00     0.012 C 
HETATM   15  C   UNK N   1      26.968  23.356  -5.947  0.00  0.00     0.016 C 
HETATM   16  C   UNK N   1      33.499  21.377  -3.725  0.00  0.00     0.037 C 
HETATM   17  C   UNK N   1      30.566  20.432  -5.682  0.00  0.00     0.016 C 
HETATM   18  C   UNK N   1      33.550  20.771  -6.210  0.00  0.00     0.032 C 
HETATM   19  C   UNK N   1      34.126  20.501  -4.815  0.00  0.00     0.118 C 
ENDROOT
BRANCH   6  20
HETATM   20  C   UNK N   1      26.372  26.408  -6.200  0.00  0.00    -0.013 C 
HETATM   21  C   UNK N   1      25.019  26.836  -5.650  0.00  0.00     0.010 C 
BRANCH  20  22
HETATM   22  C   UNK N   1      27.028  27.527  -7.001  0.00  0.00     0.015 C 
BRANCH  22  23
HETATM   23  C   UNK N   1      27.569  26.970  -8.317  0.00  0.00     0.110 C 
BRANCH  23  24
HETATM   24  C   UNK N   1      26.619  26.002  -8.972  0.00  0.00     0.139 C 
HETATM   25  O   UNK N   1      25.482  26.341  -9.266  0.00  0.00    -0.650 OA
BRANCH  24  26
HETATM   26  O   UNK N   1      27.033  24.753  -9.251  0.00  0.00    -0.776 OA
HETATM   27  H   UNK N   1      27.924  24.485  -9.369  0.00  0.00     0.167 HD
ENDBRANCH  24  26
ENDBRANCH  23  24
ENDBRANCH  22  23
ENDBRANCH  20  22
ENDBRANCH   6  20
BRANCH  10  28
HETATM   28  O   UNK N   1      29.460  23.139  -1.645  0.00  0.00    -0.395 OA
HETATM   29  H   UNK N   1      28.531  23.187  -1.370  0.00  0.00     0.210 HD
ENDBRANCH  10  28
BRANCH  19  30
HETATM   30  O   UNK N   1      33.969  19.151  -4.503  0.00  0.00    -0.396 OA
HETATM   31  H   UNK N   1      34.224  18.451  -3.881  0.00  0.00     0.210 HD
ENDBRANCH  19  30
TORSDOF 7
ENDMDL
MODEL 9
REMARK VINA RESULT:      -6.6      5.924     10.433
REMARK  7 active torsions:
REMARK  status: ('A' for Active; 'I' for Inactive)
REMARK    1  A    between atoms: C_14  and  O_1 
REMARK    2  A    between atoms: C_24  and  O_2 
REMARK    3  A    between atoms: O_3  and  C_28 
REMARK    4  A    between atoms: C_10  and  C_20 
REMARK    5  A    between atoms: C_20  and  C_25 
REMARK    6  A    between atoms: C_25  and  C_27 
REMARK    7  A    between atoms: C_27  and  C_28 
ROOT
HETATM    1  C   UNK N   1      30.052  16.601   7.188  0.00  0.00     0.001 C 
HETATM    2  C   UNK N   1      31.461  16.383   6.625  0.00  0.00    -0.036 C 
HETATM    3  C   UNK N   1      28.955  16.437   6.106  0.00  0.00     0.024 C 
HETATM    4  C   UNK N   1      29.106  14.992   5.522  0.00  0.00     0.001 C 
HETATM    5  C   UNK N   1      28.005  14.674   4.475  0.00  0.00    -0.036 C 
HETATM    6  C   UNK N   1      32.277  16.643   7.897  0.00  0.00    -0.002 C 
HETATM    7  C   UNK N   1      26.564  14.906   5.083  0.00  0.00    -0.001 C 
HETATM    8  C   UNK N   1      31.584  14.971   6.053  0.00  0.00     0.010 C 
HETATM    9  C   UNK N   1      30.526  14.759   4.965  0.00  0.00     0.007 C 
HETATM   10  C   UNK N   1      27.500  16.675   6.612  0.00  0.00     0.123 C 
HETATM   11  C   UNK N   1      30.194  17.940   7.912  0.00  0.00     0.006 C 
HETATM   12  C   UNK N   1      31.638  17.924   8.456  0.00  0.00     0.006 C 
HETATM   13  C   UNK N   1      26.599  15.445   6.520  0.00  0.00     0.037 C 
HETATM   14  C   UNK N   1      28.186  13.211   4.017  0.00  0.00     0.012 C 
HETATM   15  C   UNK N   1      31.806  17.402   5.520  0.00  0.00     0.016 C 
HETATM   16  C   UNK N   1      25.716  13.627   5.096  0.00  0.00     0.037 C 
HETATM   17  C   UNK N   1      28.190  15.576   3.249  0.00  0.00     0.016 C 
HETATM   18  C   UNK N   1      27.054  12.750   3.100  0.00  0.00     0.032 C 
HETATM   19  C   UNK N   1      25.667  12.959   3.717  0.00  0.00     0.118 C 
ENDROOT
BRANCH   6  20
HETATM   20  C   UNK N   1      33.810  16.692   7.803  0.00  0.00    -0.013 C 
HETATM   21  C   UNK N   1      34.373  18.071   8.118  0.00  0.00     0.010 C 
BRANCH  20  22
HETATM   22  C   UNK N   1      34.552  15.599   8.564  0.00  0.00     0.015 C 
BRANCH  22  23
HETATM   23  C   UNK N   1      35.118  16.169   9.864  0.00  0.00     0.110 C 
BRANCH  23  24
HETATM   24  C   UNK N   1      34.684  15.388  11.077  0.00  0.00     0.139 C 
HETATM   25  O   UNK N   1      35.474  15.134  11.974  0.00  0.00    -0.650 OA
BRANCH  24  26
HETATM   26  O   UNK N   1      33.407  14.981  11.181  0.00  0.00    -0.776 OA
HETATM   27  H   UNK N   1      32.920  14.528  10.519  0.00  0.00     0.167 HD
ENDBRANCH  24  26
ENDBRANCH  23  24
ENDBRANCH  22  23
ENDBRANCH  20  22
ENDBRANCH   6  20
BRANCH  10  28
HETATM   28  O   UNK N   1      27.433  17.232   7.890  0.00  0.00    -0.395 OA
HETATM   29  H   UNK N   1      26.670  17.722   8.234  0.00  0.00     0.210 HD
ENDBRANCH  10  28
BRANCH  19  30
HETATM   30  O   UNK N   1      24.880  13.709   2.843  0.00  0.00    -0.396 OA
HETATM   31  H   UNK N   1      24.478  13.723   1.960  0.00  0.00     0.210 HD
ENDBRANCH  19  30
TORSDOF 7
ENDMDL
