REMARK  1 active torsions:
REMARK  status: ('A' for Active; 'I' for Inactive)
REMARK    1  A    between atoms: C_7  and  C_9 
ROOT
HETATM    1 Cl   UNK N   1      -0.864   0.063  -0.147  0.00  0.00    -0.084 Cl
HETATM    2  O   UNK N   1       4.954  -0.425   1.364  0.00  0.00    -0.315 OA
HETATM    3  O   UNK N   1       7.592   0.028  -1.443  0.00  0.00    -0.268 OA
HETATM    4  O   UNK N   1       6.401   3.243  -0.625  0.00  0.00    -0.271 OA
HETATM    5  N   UNK N   1       5.437   0.210  -0.799  0.00  0.00    -0.299 N 
HETATM    6  N   UNK N   1       4.438   2.788   0.371  0.00  0.00    -0.320 N 
HETATM    7  C   UNK N   1       4.386  -0.286   0.099  0.00  0.00     0.204 C 
HETATM    8  C   UNK N   1       3.137   0.645   0.149  0.00  0.00     0.031 A 
HETATM    9  C   UNK N   1       5.260   1.415  -1.556  0.00  0.00     0.233 C 
HETATM   10  C   UNK N   1       3.209   2.055   0.382  0.00  0.00     0.048 A 
HETATM   11  C   UNK N   1       6.694  -0.316  -0.687  0.00  0.00     0.249 C 
HETATM   12  C   UNK N   1       5.405   2.537  -0.565  0.00  0.00     0.242 C 
HETATM   13  C   UNK N   1       1.855   0.074  -0.010  0.00  0.00     0.038 A 
HETATM   14  C   UNK N   1       6.128  -1.119   1.506  0.00  0.00     0.051 C 
HETATM   15  C   UNK N   1       7.011  -1.142   0.493  0.00  0.00     0.106 C 
HETATM   16  C   UNK N   1       2.014   2.786   0.531  0.00  0.00     0.032 A 
HETATM   17  C   UNK N   1       4.560   3.962   1.210  0.00  0.00     0.159 C 
HETATM   18  C   UNK N   1       0.692   0.827   0.092  0.00  0.00     0.034 A 
HETATM   19  C   UNK N   1       0.769   2.180   0.390  0.00  0.00     0.026 A 
HETATM   20  C   UNK N   1       6.437  -1.822   2.780  0.00  0.00     0.076 C 
ENDROOT
BRANCH   7  21
HETATM   21  C   UNK N   1       3.954  -1.706  -0.324  0.00  0.00     0.002 A 
HETATM   22  C   UNK N   1       4.344  -2.265  -1.552  0.00  0.00     0.012 A 
HETATM   23  C   UNK N   1       3.930  -3.554  -1.905  0.00  0.00     0.001 A 
HETATM   24  C   UNK N   1       3.131  -4.299  -1.034  0.00  0.00     0.000 A 
HETATM   25  C   UNK N   1       2.746  -3.760   0.194  0.00  0.00     0.001 A 
HETATM   26  C   UNK N   1       3.154  -2.474   0.547  0.00  0.00     0.012 A 
ENDBRANCH   7  21
TORSDOF 1
