MODEL 1
REMARK VINA RESULT:      -7.6      0.000      0.000
REMARK  1 active torsions:
REMARK  status: ('A' for Active; 'I' for Inactive)
REMARK    1  A    between atoms: C_7  and  C_9 
ROOT
HETATM    1 Cl   UNK N   1      30.476  20.949  -4.206  0.00  0.00    -0.084 Cl
HETATM    2  O   UNK N   1      27.969  25.610  -7.097  0.00  0.00    -0.315 OA
HETATM    3  O   UNK N   1      24.606  26.981  -5.736  0.00  0.00    -0.268 OA
HETATM    4  O   UNK N   1      27.136  28.129  -3.567  0.00  0.00    -0.271 OA
HETATM    5  N   UNK N   1      26.393  25.641  -5.415  0.00  0.00    -0.299 N 
HETATM    6  N   UNK N   1      28.814  26.693  -3.984  0.00  0.00    -0.320 N 
HETATM    7  C   UNK N   1      27.453  24.848  -6.051  0.00  0.00     0.204 C 
HETATM    8  C   UNK N   1      28.580  24.429  -5.059  0.00  0.00     0.031 A 
HETATM    9  C   UNK N   1      26.426  25.937  -4.012  0.00  0.00     0.233 C 
HETATM   10  C   UNK N   1      29.253  25.347  -4.192  0.00  0.00     0.048 A 
HETATM   11  C   UNK N   1      25.535  26.345  -6.214  0.00  0.00     0.249 C 
HETATM   12  C   UNK N   1      27.485  26.992  -3.848  0.00  0.00     0.242 C 
HETATM   13  C   UNK N   1      28.992  23.078  -5.027  0.00  0.00     0.038 A 
HETATM   14  C   UNK N   1      27.115  26.166  -8.015  0.00  0.00     0.051 C 
HETATM   15  C   UNK N   1      25.869  26.504  -7.641  0.00  0.00     0.106 C 
HETATM   16  C   UNK N   1      30.341  24.889  -3.423  0.00  0.00     0.032 A 
HETATM   17  C   UNK N   1      29.798  27.711  -3.681  0.00  0.00     0.159 C 
HETATM   18  C   UNK N   1      30.036  22.642  -4.222  0.00  0.00     0.034 A 
HETATM   19  C   UNK N   1      30.731  23.553  -3.438  0.00  0.00     0.026 A 
HETATM   20  C   UNK N   1      27.570  26.418  -9.409  0.00  0.00     0.076 C 
ENDROOT
BRANCH   7  21
HETATM   21  C   UNK N   1      26.850  23.589  -6.709  0.00  0.00     0.002 A 
HETATM   22  C   UNK N   1      25.642  23.027  -6.266  0.00  0.00     0.012 A 
HETATM   23  C   UNK N   1      25.127  21.881  -6.883  0.00  0.00     0.001 A 
HETATM   24  C   UNK N   1      25.808  21.292  -7.951  0.00  0.00     0.000 A 
HETATM   25  C   UNK N   1      27.004  21.846  -8.408  0.00  0.00     0.001 A 
HETATM   26  C   UNK N   1      27.522  22.986  -7.792  0.00  0.00     0.012 A 
ENDBRANCH   7  21
TORSDOF 1
ENDMDL
MODEL 2
REMARK VINA RESULT:      -7.2      3.298      5.592
REMARK  1 active torsions:
REMARK  status: ('A' for Active; 'I' for Inactive)
REMARK    1  A    between atoms: C_7  and  C_9 
ROOT
HETATM    1 Cl   UNK N   1      26.364  21.209  -8.847  0.00  0.00    -0.084 Cl
HETATM    2  O   UNK N   1      30.548  24.071  -5.580  0.00  0.00    -0.315 OA
HETATM    3  O   UNK N   1      30.812  23.188  -1.813  0.00  0.00    -0.268 OA
HETATM    4  O   UNK N   1      32.288  20.530  -3.596  0.00  0.00    -0.271 OA
HETATM    5  N   UNK N   1      29.952  22.685  -3.837  0.00  0.00    -0.299 N 
HETATM    6  N   UNK N   1      31.402  20.778  -5.647  0.00  0.00    -0.320 N 
HETATM    7  C   UNK N   1      29.550  23.197  -5.153  0.00  0.00     0.204 C 
HETATM    8  C   UNK N   1      29.313  22.068  -6.201  0.00  0.00     0.031 A 
HETATM    9  C   UNK N   1      30.062  21.276  -3.590  0.00  0.00     0.233 C 
HETATM   10  C   UNK N   1      30.254  21.023  -6.466  0.00  0.00     0.048 A 
HETATM   11  C   UNK N   1      30.505  23.554  -2.938  0.00  0.00     0.249 C 
HETATM   12  C   UNK N   1      31.326  20.845  -4.282  0.00  0.00     0.242 C 
HETATM   13  C   UNK N   1      28.123  22.083  -6.962  0.00  0.00     0.038 A 
HETATM   14  C   UNK N   1      30.976  25.069  -4.743  0.00  0.00     0.051 C 
HETATM   15  C   UNK N   1      30.928  24.885  -3.413  0.00  0.00     0.106 C 
HETATM   16  C   UNK N   1      29.999  20.123  -7.519  0.00  0.00     0.032 A 
HETATM   17  C   UNK N   1      32.593  20.226  -6.259  0.00  0.00     0.159 C 
HETATM   18  C   UNK N   1      27.873  21.152  -7.962  0.00  0.00     0.034 A 
HETATM   19  C   UNK N   1      28.823  20.187  -8.261  0.00  0.00     0.026 A 
HETATM   20  C   UNK N   1      31.515  26.339  -5.301  0.00  0.00     0.076 C 
ENDROOT
BRANCH   7  21
HETATM   21  C   UNK N   1      28.272  24.054  -5.021  0.00  0.00     0.002 A 
HETATM   22  C   UNK N   1      27.413  23.938  -3.916  0.00  0.00     0.012 A 
HETATM   23  C   UNK N   1      26.261  24.727  -3.831  0.00  0.00     0.001 A 
HETATM   24  C   UNK N   1      25.961  25.644  -4.842  0.00  0.00     0.000 A 
HETATM   25  C   UNK N   1      26.812  25.777  -5.939  0.00  0.00     0.001 A 
HETATM   26  C   UNK N   1      27.959  24.989  -6.028  0.00  0.00     0.012 A 
ENDBRANCH   7  21
TORSDOF 1
ENDMDL
MODEL 3
REMARK VINA RESULT:      -6.7     11.949     14.128
REMARK  1 active torsions:
REMARK  status: ('A' for Active; 'I' for Inactive)
REMARK    1  A    between atoms: C_7  and  C_9 
ROOT
HETATM    1 Cl   UNK N   1      28.730  13.000   2.419  0.00  0.00    -0.084 Cl
HETATM    2  O   UNK N   1      27.616  16.994   6.799  0.00  0.00    -0.315 OA
HETATM    3  O   UNK N   1      27.699  20.759   5.872  0.00  0.00    -0.268 OA
HETATM    4  O   UNK N   1      24.668  19.462   4.626  0.00  0.00    -0.271 OA
HETATM    5  N   UNK N   1      27.694  18.617   5.163  0.00  0.00    -0.299 N 
HETATM    6  N   UNK N   1      25.093  17.256   4.532  0.00  0.00    -0.320 N 
HETATM    7  C   UNK N   1      28.028  17.224   5.487  0.00  0.00     0.204 C 
HETATM    8  C   UNK N   1      27.376  16.198   4.512  0.00  0.00     0.031 A 
HETATM    9  C   UNK N   1      26.877  18.941   4.030  0.00  0.00     0.233 C 
HETATM   10  C   UNK N   1      25.984  16.193   4.181  0.00  0.00     0.048 A 
HETATM   11  C   UNK N   1      27.915  19.579   6.110  0.00  0.00     0.249 C 
HETATM   12  C   UNK N   1      25.475  18.567   4.424  0.00  0.00     0.242 C 
HETATM   13  C   UNK N   1      28.186  15.191   3.941  0.00  0.00     0.038 A 
HETATM   14  C   UNK N   1      27.996  17.862   7.789  0.00  0.00     0.051 C 
HETATM   15  C   UNK N   1      28.210  19.155   7.491  0.00  0.00     0.106 C 
HETATM   16  C   UNK N   1      25.473  15.148   3.386  0.00  0.00     0.032 A 
HETATM   17  C   UNK N   1      23.699  16.949   4.779  0.00  0.00     0.159 C 
HETATM   18  C   UNK N   1      27.665  14.200   3.119  0.00  0.00     0.034 A 
HETATM   19  C   UNK N   1      26.302  14.161   2.862  0.00  0.00     0.026 A 
HETATM   20  C   UNK N   1      28.148  17.386   9.191  0.00  0.00     0.076 C 
ENDROOT
BRANCH   7  21
HETATM   21  C   UNK N   1      29.559  17.032   5.490  0.00  0.00     0.002 A 
HETATM   22  C   UNK N   1      30.198  16.174   6.400  0.00  0.00     0.012 A 
HETATM   23  C   UNK N   1      31.589  16.029   6.376  0.00  0.00     0.001 A 
HETATM   24  C   UNK N   1      32.354  16.730   5.440  0.00  0.00     0.000 A 
HETATM   25  C   UNK N   1      31.731  17.577   4.523  0.00  0.00     0.001 A 
HETATM   26  C   UNK N   1      30.344  17.727   4.547  0.00  0.00     0.012 A 
ENDBRANCH   7  21
TORSDOF 1
ENDMDL
MODEL 4
REMARK VINA RESULT:      -6.7      2.137      3.362
REMARK  1 active torsions:
REMARK  status: ('A' for Active; 'I' for Inactive)
REMARK    1  A    between atoms: C_7  and  C_9 
ROOT
HETATM    1 Cl   UNK N   1      29.220  21.067  -9.548  0.00  0.00    -0.084 Cl
HETATM    2  O   UNK N   1      28.248  26.310  -6.731  0.00  0.00    -0.315 OA
HETATM    3  O   UNK N   1      24.811  26.823  -5.008  0.00  0.00    -0.268 OA
HETATM    4  O   UNK N   1      26.687  24.673  -2.938  0.00  0.00    -0.271 OA
HETATM    5  N   UNK N   1      26.254  25.406  -6.010  0.00  0.00    -0.299 N 
HETATM    6  N   UNK N   1      28.237  23.874  -4.356  0.00  0.00    -0.320 N 
HETATM    7  C   UNK N   1      27.358  25.264  -6.968  0.00  0.00     0.204 C 
HETATM    8  C   UNK N   1      28.079  23.886  -6.868  0.00  0.00     0.031 A 
HETATM    9  C   UNK N   1      25.898  24.336  -5.123  0.00  0.00     0.233 C 
HETATM   10  C   UNK N   1      28.561  23.331  -5.640  0.00  0.00     0.048 A 
HETATM   11  C   UNK N   1      25.761  26.657  -5.760  0.00  0.00     0.249 C 
HETATM   12  C   UNK N   1      26.972  24.312  -4.071  0.00  0.00     0.242 C 
HETATM   13  C   UNK N   1      28.305  23.148  -8.051  0.00  0.00     0.038 A 
HETATM   14  C   UNK N   1      27.779  27.596  -6.667  0.00  0.00     0.051 C 
HETATM   15  C   UNK N   1      26.525  27.824  -6.239  0.00  0.00     0.106 C 
HETATM   16  C   UNK N   1      29.308  22.137  -5.675  0.00  0.00     0.032 A 
HETATM   17  C   UNK N   1      29.194  23.740  -3.278  0.00  0.00     0.159 C 
HETATM   18  C   UNK N   1      29.002  21.947  -8.052  0.00  0.00     0.034 A 
HETATM   19  C   UNK N   1      29.529  21.453  -6.867  0.00  0.00     0.026 A 
HETATM   20  C   UNK N   1      28.656  28.737  -7.044  0.00  0.00     0.076 C 
ENDROOT
BRANCH   7  21
HETATM   21  C   UNK N   1      26.840  25.472  -8.407  0.00  0.00     0.002 A 
HETATM   22  C   UNK N   1      27.612  26.120  -9.386  0.00  0.00     0.012 A 
HETATM   23  C   UNK N   1      27.109  26.295 -10.680  0.00  0.00     0.001 A 
HETATM   24  C   UNK N   1      25.837  25.820 -11.011  0.00  0.00     0.000 A 
HETATM   25  C   UNK N   1      25.066  25.164 -10.051  0.00  0.00     0.001 A 
HETATM   26  C   UNK N   1      25.562  24.991  -8.759  0.00  0.00     0.012 A 
ENDBRANCH   7  21
TORSDOF 1
ENDMDL
MODEL 5
REMARK VINA RESULT:      -6.7     13.119     14.480
REMARK  1 active torsions:
REMARK  status: ('A' for Active; 'I' for Inactive)
REMARK    1  A    between atoms: C_7  and  C_9 
ROOT
HETATM    1 Cl   UNK N   1      25.748  20.690   2.674  0.00  0.00    -0.084 Cl
HETATM    2  O   UNK N   1      22.269  17.208   6.159  0.00  0.00    -0.315 OA
HETATM    3  O   UNK N   1      21.216  13.743   4.770  0.00  0.00    -0.268 OA
HETATM    4  O   UNK N   1      24.584  13.468   5.773  0.00  0.00    -0.271 OA
HETATM    5  N   UNK N   1      22.522  15.571   4.556  0.00  0.00    -0.299 N 
HETATM    6  N   UNK N   1      25.253  15.613   5.803  0.00  0.00    -0.320 N 
HETATM    7  C   UNK N   1      22.671  17.004   4.840  0.00  0.00     0.204 C 
HETATM    8  C   UNK N   1      24.123  17.523   4.615  0.00  0.00     0.031 A 
HETATM    9  C   UNK N   1      23.627  14.788   4.085  0.00  0.00     0.233 C 
HETATM   10  C   UNK N   1      25.283  16.897   5.172  0.00  0.00     0.048 A 
HETATM   11  C   UNK N   1      21.411  14.924   5.021  0.00  0.00     0.249 C 
HETATM   12  C   UNK N   1      24.515  14.585   5.282  0.00  0.00     0.242 C 
HETATM   13  C   UNK N   1      24.317  18.694   3.848  0.00  0.00     0.038 A 
HETATM   14  C   UNK N   1      21.060  16.718   6.581  0.00  0.00     0.051 C 
HETATM   15  C   UNK N   1      20.558  15.609   6.011  0.00  0.00     0.106 C 
HETATM   16  C   UNK N   1      26.539  17.516   5.010  0.00  0.00     0.032 A 
HETATM   17  C   UNK N   1      26.194  15.334   6.867  0.00  0.00     0.159 C 
HETATM   18  C   UNK N   1      25.573  19.256   3.662  0.00  0.00     0.034 A 
HETATM   19  C   UNK N   1      26.683  18.683   4.266  0.00  0.00     0.026 A 
HETATM   20  C   UNK N   1      20.317  17.392   7.680  0.00  0.00     0.076 C 
ENDROOT
BRANCH   7  21
HETATM   21  C   UNK N   1      21.691  17.822   3.973  0.00  0.00     0.002 A 
HETATM   22  C   UNK N   1      21.110  17.291   2.809  0.00  0.00     0.012 A 
HETATM   23  C   UNK N   1      20.229  18.062   2.044  0.00  0.00     0.001 A 
HETATM   24  C   UNK N   1      19.913  19.365   2.436  0.00  0.00     0.000 A 
HETATM   25  C   UNK N   1      20.473  19.901   3.596  0.00  0.00     0.001 A 
HETATM   26  C   UNK N   1      21.355  19.136   4.359  0.00  0.00     0.012 A 
ENDBRANCH   7  21
TORSDOF 1
ENDMDL
MODEL 6
REMARK VINA RESULT:      -6.6      2.661      5.993
REMARK  1 active torsions:
REMARK  status: ('A' for Active; 'I' for Inactive)
REMARK    1  A    between atoms: C_7  and  C_9 
ROOT
HETATM    1 Cl   UNK N   1      29.472  29.593  -8.560  0.00  0.00    -0.084 Cl
HETATM    2  O   UNK N   1      29.377  24.558  -5.242  0.00  0.00    -0.315 OA
HETATM    3  O   UNK N   1      26.312  23.973  -2.937  0.00  0.00    -0.268 OA
HETATM    4  O   UNK N   1      25.271  23.265  -6.229  0.00  0.00    -0.271 OA
HETATM    5  N   UNK N   1      27.246  25.169  -4.607  0.00  0.00    -0.299 N 
HETATM    6  N   UNK N   1      26.807  24.349  -7.461  0.00  0.00    -0.320 N 
HETATM    7  C   UNK N   1      28.495  25.637  -5.222  0.00  0.00     0.204 C 
HETATM    8  C   UNK N   1      28.291  26.215  -6.655  0.00  0.00     0.031 A 
HETATM    9  C   UNK N   1      25.991  25.292  -5.289  0.00  0.00     0.233 C 
HETATM   10  C   UNK N   1      27.584  25.528  -7.693  0.00  0.00     0.048 A 
HETATM   11  C   UNK N   1      27.322  24.351  -3.515  0.00  0.00     0.249 C 
HETATM   12  C   UNK N   1      26.008  24.232  -6.356  0.00  0.00     0.242 C 
HETATM   13  C   UNK N   1      28.856  27.471  -6.970  0.00  0.00     0.038 A 
HETATM   14  C   UNK N   1      29.600  23.845  -4.092  0.00  0.00     0.051 C 
HETATM   15  C   UNK N   1      28.626  23.753  -3.170  0.00  0.00     0.106 C 
HETATM   16  C   UNK N   1      27.562  26.082  -8.988  0.00  0.00     0.032 A 
HETATM   17  C   UNK N   1      26.684  23.373  -8.524  0.00  0.00     0.159 C 
HETATM   18  C   UNK N   1      28.777  28.019  -8.244  0.00  0.00     0.034 A 
HETATM   19  C   UNK N   1      28.152  27.312  -9.263  0.00  0.00     0.026 A 
HETATM   20  C   UNK N   1      30.900  23.157  -3.874  0.00  0.00     0.076 C 
ENDROOT
BRANCH   7  21
HETATM   21  C   UNK N   1      29.160  26.704  -4.326  0.00  0.00     0.002 A 
HETATM   22  C   UNK N   1      30.543  26.709  -4.080  0.00  0.00     0.012 A 
HETATM   23  C   UNK N   1      31.111  27.689  -3.259  0.00  0.00     0.001 A 
HETATM   24  C   UNK N   1      30.307  28.676  -2.682  0.00  0.00     0.000 A 
HETATM   25  C   UNK N   1      28.934  28.689  -2.927  0.00  0.00     0.001 A 
HETATM   26  C   UNK N   1      28.364  27.711  -3.743  0.00  0.00     0.012 A 
ENDBRANCH   7  21
TORSDOF 1
ENDMDL
MODEL 7
REMARK VINA RESULT:      -6.6     14.552     15.884
REMARK  1 active torsions:
REMARK  status: ('A' for Active; 'I' for Inactive)
REMARK    1  A    between atoms: C_7  and  C_9 
ROOT
HETATM    1 Cl   UNK N   1      26.576  18.313   3.795  0.00  0.00    -0.084 Cl
HETATM    2  O   UNK N   1      21.858  16.599   7.138  0.00  0.00    -0.315 OA
HETATM    3  O   UNK N   1      19.826  13.518   5.946  0.00  0.00    -0.268 OA
HETATM    4  O   UNK N   1      22.812  12.292   7.361  0.00  0.00    -0.271 OA
HETATM    5  N   UNK N   1      21.680  14.784   5.727  0.00  0.00    -0.299 N 
HETATM    6  N   UNK N   1      24.155  14.093   7.280  0.00  0.00    -0.320 N 
HETATM    7  C   UNK N   1      22.276  16.115   5.900  0.00  0.00     0.204 C 
HETATM    8  C   UNK N   1      23.832  16.105   5.803  0.00  0.00     0.031 A 
HETATM    9  C   UNK N   1      22.495  13.634   5.461  0.00  0.00     0.233 C 
HETATM   10  C   UNK N   1      24.665  15.210   6.546  0.00  0.00     0.048 A 
HETATM   11  C   UNK N   1      20.383  14.594   6.114  0.00  0.00     0.249 C 
HETATM   12  C   UNK N   1      23.161  13.303   6.768  0.00  0.00     0.242 C 
HETATM   13  C   UNK N   1      24.468  17.046   4.964  0.00  0.00     0.038 A 
HETATM   14  C   UNK N   1      20.524  16.582   7.456  0.00  0.00     0.051 C 
HETATM   15  C   UNK N   1      19.730  15.633   6.931  0.00  0.00     0.106 C 
HETATM   16  C   UNK N   1      26.064  15.365   6.480  0.00  0.00     0.032 A 
HETATM   17  C   UNK N   1      24.858  13.657   8.468  0.00  0.00     0.159 C 
HETATM   18  C   UNK N   1      25.851  17.145   4.879  0.00  0.00     0.034 A 
HETATM   19  C   UNK N   1      26.652  16.322   5.658  0.00  0.00     0.026 A 
HETATM   20  C   UNK N   1      19.962  17.589   8.395  0.00  0.00     0.076 C 
ENDROOT
BRANCH   7  21
HETATM   21  C   UNK N   1      21.701  17.093   4.853  0.00  0.00     0.002 A 
HETATM   22  C   UNK N   1      21.585  18.469   5.109  0.00  0.00     0.012 A 
HETATM   23  C   UNK N   1      21.055  19.326   4.138  0.00  0.00     0.001 A 
HETATM   24  C   UNK N   1      20.642  18.820   2.903  0.00  0.00     0.000 A 
HETATM   25  C   UNK N   1      20.762  17.456   2.632  0.00  0.00     0.001 A 
HETATM   26  C   UNK N   1      21.287  16.599   3.599  0.00  0.00     0.012 A 
ENDBRANCH   7  21
TORSDOF 1
ENDMDL
MODEL 8
REMARK VINA RESULT:      -6.5      2.952      6.027
REMARK  1 active torsions:
REMARK  status: ('A' for Active; 'I' for Inactive)
REMARK    1  A    between atoms: C_7  and  C_9 
ROOT
HETATM    1 Cl   UNK N   1      29.866  30.809  -8.162  0.00  0.00    -0.084 Cl
HETATM    2  O   UNK N   1      28.560  25.556  -5.502  0.00  0.00    -0.315 OA
HETATM    3  O   UNK N   1      24.834  24.488  -5.349  0.00  0.00    -0.268 OA
HETATM    4  O   UNK N   1      25.929  23.926  -8.652  0.00  0.00    -0.271 OA
HETATM    5  N   UNK N   1      26.385  25.896  -6.188  0.00  0.00    -0.299 N 
HETATM    6  N   UNK N   1      27.739  25.251  -8.789  0.00  0.00    -0.320 N 
HETATM    7  C   UNK N   1      27.692  26.535  -5.983  0.00  0.00     0.204 C 
HETATM    8  C   UNK N   1      28.258  27.194  -7.277  0.00  0.00     0.031 A 
HETATM    9  C   UNK N   1      25.729  25.940  -7.462  0.00  0.00     0.233 C 
HETATM   10  C   UNK N   1      28.354  26.518  -8.534  0.00  0.00     0.048 A 
HETATM   11  C   UNK N   1      25.936  25.010  -5.249  0.00  0.00     0.249 C 
HETATM   12  C   UNK N   1      26.478  24.970  -8.334  0.00  0.00     0.242 C 
HETATM   13  C   UNK N   1      28.738  28.521  -7.211  0.00  0.00     0.038 A 
HETATM   14  C   UNK N   1      28.185  24.786  -4.431  0.00  0.00     0.051 C 
HETATM   15  C   UNK N   1      26.882  24.525  -4.227  0.00  0.00     0.106 C 
HETATM   16  C   UNK N   1      28.994  27.162  -9.611  0.00  0.00     0.032 A 
HETATM   17  C   UNK N   1      28.361  24.349  -9.736  0.00  0.00     0.159 C 
HETATM   18  C   UNK N   1      29.321  29.152  -8.303  0.00  0.00     0.034 A 
HETATM   19  C   UNK N   1      29.475  28.463  -9.497  0.00  0.00     0.026 A 
HETATM   20  C   UNK N   1      29.211  24.221  -3.515  0.00  0.00     0.076 C 
ENDROOT
BRANCH   7  21
HETATM   21  C   UNK N   1      27.594  27.594  -4.865  0.00  0.00     0.002 A 
HETATM   22  C   UNK N   1      28.673  27.871  -4.009  0.00  0.00     0.012 A 
HETATM   23  C   UNK N   1      28.547  28.835  -3.003  0.00  0.00     0.001 A 
HETATM   24  C   UNK N   1      27.349  29.536  -2.846  0.00  0.00     0.000 A 
HETATM   25  C   UNK N   1      26.273  29.278  -3.697  0.00  0.00     0.001 A 
HETATM   26  C   UNK N   1      26.394  28.316  -4.698  0.00  0.00     0.012 A 
ENDBRANCH   7  21
TORSDOF 1
ENDMDL
MODEL 9
REMARK VINA RESULT:      -6.5      2.393      3.919
REMARK  1 active torsions:
REMARK  status: ('A' for Active; 'I' for Inactive)
REMARK    1  A    between atoms: C_7  and  C_9 
ROOT
HETATM    1 Cl   UNK N   1      33.867  24.996  -6.859  0.00  0.00    -0.084 Cl
HETATM    2  O   UNK N   1      27.896  24.506  -6.165  0.00  0.00    -0.315 OA
HETATM    3  O   UNK N   1      26.351  25.812  -2.856  0.00  0.00    -0.268 OA
HETATM    4  O   UNK N   1      27.107  28.639  -4.822  0.00  0.00    -0.271 OA
HETATM    5  N   UNK N   1      28.156  25.693  -4.205  0.00  0.00    -0.299 N 
HETATM    6  N   UNK N   1      28.629  27.827  -6.262  0.00  0.00    -0.320 N 
HETATM    7  C   UNK N   1      28.855  24.923  -5.242  0.00  0.00     0.204 C 
HETATM    8  C   UNK N   1      29.987  25.732  -5.944  0.00  0.00     0.031 A 
HETATM    9  C   UNK N   1      28.545  27.036  -3.887  0.00  0.00     0.233 C 
HETATM   10  C   UNK N   1      29.802  27.040  -6.494  0.00  0.00     0.048 A 
HETATM   11  C   UNK N   1      26.950  25.235  -3.752  0.00  0.00     0.249 C 
HETATM   12  C   UNK N   1      28.043  27.880  -5.027  0.00  0.00     0.242 C 
HETATM   13  C   UNK N   1      31.263  25.141  -6.080  0.00  0.00     0.038 A 
HETATM   14  C   UNK N   1      26.763  23.873  -5.723  0.00  0.00     0.051 C 
HETATM   15  C   UNK N   1      26.275  24.160  -4.504  0.00  0.00     0.106 C 
HETATM   16  C   UNK N   1      30.856  27.634  -7.215  0.00  0.00     0.032 A 
HETATM   17  C   UNK N   1      28.199  28.758  -7.285  0.00  0.00     0.159 C 
HETATM   18  C   UNK N   1      32.301  25.770  -6.754  0.00  0.00     0.034 A 
HETATM   19  C   UNK N   1      32.091  27.007  -7.346  0.00  0.00     0.026 A 
HETATM   20  C   UNK N   1      26.061  22.893  -6.595  0.00  0.00     0.076 C 
ENDROOT
BRANCH   7  21
HETATM   21  C   UNK N   1      29.443  23.630  -4.637  0.00  0.00     0.002 A 
HETATM   22  C   UNK N   1      29.820  23.548  -3.287  0.00  0.00     0.012 A 
HETATM   23  C   UNK N   1      30.354  22.362  -2.773  0.00  0.00     0.001 A 
HETATM   24  C   UNK N   1      30.509  21.245  -3.599  0.00  0.00     0.000 A 
HETATM   25  C   UNK N   1      30.128  21.310  -4.939  0.00  0.00     0.001 A 
HETATM   26  C   UNK N   1      29.599  22.493  -5.455  0.00  0.00     0.012 A 
ENDBRANCH   7  21
TORSDOF 1
ENDMDL
