MODEL 1
REMARK VINA RESULT:      -7.4      0.000      0.000
REMARK  3 active torsions:
REMARK  status: ('A' for Active; 'I' for Inactive)
REMARK    1  A    between atoms: N_3  and  C_9 
REMARK    2  A    between atoms: C_6  and  C_9 
REMARK    3  A    between atoms: C_15  and  C_18 
ROOT
HETATM    1 Cl   UNK N   1      29.115  15.160   2.514  0.00  0.00    -0.084 Cl
HETATM    2  O   UNK N   1      30.107  18.876   9.700  0.00  0.00    -0.271 OA
HETATM    3  N   UNK N   1      30.407  17.633   7.854  0.00  0.00    -0.315 N 
HETATM    4  N   UNK N   1      27.683  19.083   7.340  0.00  0.00    -0.380 N 
ATOM      5  HN  UNK N   1      27.152  19.948   7.450  1.00  0.00     0.160 HD
HETATM    6  C   UNK N   1      29.955  17.066   6.598  0.00  0.00     0.049 A 
HETATM    7  C   UNK N   1      29.630  18.390   8.685  0.00  0.00     0.242 C 
HETATM    8  C   UNK N   1      28.817  17.511   5.808  0.00  0.00     0.020 A 
HETATM    9  C   UNK N   1      28.172  18.470   8.528  0.00  0.00     0.223 C 
HETATM   10  C   UNK N   1      30.767  16.039   6.056  0.00  0.00     0.032 A 
HETATM   11  C   UNK N   1      27.849  18.649   6.141  0.00  0.00     0.051 C 
HETATM   12  C   UNK N   1      28.617  16.880   4.566  0.00  0.00     0.040 A 
HETATM   13  C   UNK N   1      30.513  15.447   4.829  0.00  0.00     0.026 A 
HETATM   14  C   UNK N   1      29.435  15.872   4.080  0.00  0.00     0.035 A 
ENDROOT
BRANCH  11  15
HETATM   15  C   UNK N   1      26.892  19.234   5.117  0.00  0.00    -0.009 A 
HETATM   16  C   UNK N   1      25.579  18.724   5.045  0.00  0.00     0.014 A 
HETATM   17  C   UNK N   1      24.690  19.154   4.056  0.00  0.00     0.001 A 
HETATM   18  C   UNK N   1      25.099  20.093   3.108  0.00  0.00     0.000 A 
HETATM   19  C   UNK N   1      26.391  20.614   3.162  0.00  0.00     0.001 A 
HETATM   20  C   UNK N   1      27.276  20.188   4.157  0.00  0.00     0.014 A 
ENDBRANCH  11  15
BRANCH   3  21
HETATM   21  C   UNK N   1      31.725  17.217   8.341  0.00  0.00     0.137 C 
BRANCH  21  22
HETATM   22  C   UNK N   1      32.844  18.212   8.102  0.00  0.00     0.004 A 
HETATM   23  C   UNK N   1      34.143  17.603   8.603  0.00  0.00     0.007 A 
HETATM   24  C   UNK N   1      33.821  17.577   7.128  0.00  0.00     0.007 A 
ENDBRANCH  21  22
ENDBRANCH   3  21
TORSDOF 3
ENDMDL
MODEL 2
REMARK VINA RESULT:      -7.1     10.633     12.425
REMARK  3 active torsions:
REMARK  status: ('A' for Active; 'I' for Inactive)
REMARK    1  A    between atoms: N_3  and  C_9 
REMARK    2  A    between atoms: C_6  and  C_9 
REMARK    3  A    between atoms: C_15  and  C_18 
ROOT
HETATM    1 Cl   UNK N   1      27.758  21.497  -9.083  0.00  0.00    -0.084 Cl
HETATM    2  O   UNK N   1      30.812  22.812  -1.642  0.00  0.00    -0.271 OA
HETATM    3  N   UNK N   1      30.464  22.063  -3.730  0.00  0.00    -0.315 N 
HETATM    4  N   UNK N   1      28.258  24.247  -3.346  0.00  0.00    -0.380 N 
ATOM      5  HN  UNK N   1      28.032  25.159  -2.947  1.00  0.00     0.160 HD
HETATM    6  C   UNK N   1      29.693  21.981  -4.955  0.00  0.00     0.049 A 
HETATM    7  C   UNK N   1      30.075  22.748  -2.615  0.00  0.00     0.242 C 
HETATM    8  C   UNK N   1      28.642  22.896  -5.378  0.00  0.00     0.020 A 
HETATM    9  C   UNK N   1      28.701  23.239  -2.443  0.00  0.00     0.223 C 
HETATM   10  C   UNK N   1      30.075  20.960  -5.859  0.00  0.00     0.032 A 
HETATM   11  C   UNK N   1      28.117  24.115  -4.618  0.00  0.00     0.051 C 
HETATM   12  C   UNK N   1      28.091  22.686  -6.656  0.00  0.00     0.040 A 
HETATM   13  C   UNK N   1      29.486  20.797  -7.104  0.00  0.00     0.026 A 
HETATM   14  C   UNK N   1      28.492  21.665  -7.504  0.00  0.00     0.035 A 
ENDROOT
BRANCH  11  15
HETATM   15  C   UNK N   1      27.247  25.174  -5.272  0.00  0.00    -0.009 A 
HETATM   16  C   UNK N   1      27.870  26.230  -5.970  0.00  0.00     0.014 A 
HETATM   17  C   UNK N   1      27.122  27.284  -6.503  0.00  0.00     0.001 A 
HETATM   18  C   UNK N   1      25.737  27.312  -6.338  0.00  0.00     0.000 A 
HETATM   19  C   UNK N   1      25.099  26.277  -5.656  0.00  0.00     0.001 A 
HETATM   20  C   UNK N   1      25.848  25.220  -5.130  0.00  0.00     0.014 A 
ENDBRANCH  11  15
BRANCH   3  21
HETATM   21  C   UNK N   1      31.651  21.209  -3.628  0.00  0.00     0.137 C 
BRANCH  21  22
HETATM   22  C   UNK N   1      32.948  21.851  -4.083  0.00  0.00     0.004 A 
HETATM   23  C   UNK N   1      34.100  20.952  -3.666  0.00  0.00     0.007 A 
HETATM   24  C   UNK N   1      33.595  20.915  -5.088  0.00  0.00     0.007 A 
ENDBRANCH  21  22
ENDBRANCH   3  21
TORSDOF 3
ENDMDL
MODEL 3
REMARK VINA RESULT:      -6.6      2.142      6.619
REMARK  3 active torsions:
REMARK  status: ('A' for Active; 'I' for Inactive)
REMARK    1  A    between atoms: N_3  and  C_9 
REMARK    2  A    between atoms: C_6  and  C_9 
REMARK    3  A    between atoms: C_15  and  C_18 
ROOT
HETATM    1 Cl   UNK N   1      33.439  15.781   3.443  0.00  0.00    -0.084 Cl
HETATM    2  O   UNK N   1      28.018  18.664   8.802  0.00  0.00    -0.271 OA
HETATM    3  N   UNK N   1      29.048  17.997   6.922  0.00  0.00    -0.315 N 
HETATM    4  N   UNK N   1      31.066  17.231   9.187  0.00  0.00    -0.380 N 
ATOM      5  HN  UNK N   1      31.174  16.874  10.137  1.00  0.00     0.160 HD
HETATM    6  C   UNK N   1      30.197  17.496   6.193  0.00  0.00     0.049 A 
HETATM    7  C   UNK N   1      29.048  18.299   8.254  0.00  0.00     0.242 C 
HETATM    8  C   UNK N   1      31.366  16.843   6.766  0.00  0.00     0.020 A 
HETATM    9  C   UNK N   1      30.292  18.415   9.026  0.00  0.00     0.223 C 
HETATM   10  C   UNK N   1      30.117  17.574   4.782  0.00  0.00     0.032 A 
HETATM   11  C   UNK N   1      31.639  16.568   8.246  0.00  0.00     0.051 C 
HETATM   12  C   UNK N   1      32.323  16.343   5.863  0.00  0.00     0.040 A 
HETATM   13  C   UNK N   1      31.098  17.071   3.942  0.00  0.00     0.026 A 
HETATM   14  C   UNK N   1      32.204  16.451   4.485  0.00  0.00     0.035 A 
ENDROOT
BRANCH  11  15
HETATM   15  C   UNK N   1      32.727  15.617   8.713  0.00  0.00    -0.009 A 
HETATM   16  C   UNK N   1      33.992  16.142   9.047  0.00  0.00     0.014 A 
HETATM   17  C   UNK N   1      35.058  15.303   9.385  0.00  0.00     0.001 A 
HETATM   18  C   UNK N   1      34.885  13.918   9.382  0.00  0.00     0.000 A 
HETATM   19  C   UNK N   1      33.641  13.376   9.060  0.00  0.00     0.001 A 
HETATM   20  C   UNK N   1      32.576  14.218   8.729  0.00  0.00     0.014 A 
ENDBRANCH  11  15
BRANCH   3  21
HETATM   21  C   UNK N   1      27.867  18.367   6.137  0.00  0.00     0.137 C 
BRANCH  21  22
HETATM   22  C   UNK N   1      27.737  19.846   5.827  0.00  0.00     0.004 A 
HETATM   23  C   UNK N   1      27.339  19.997   4.368  0.00  0.00     0.007 A 
HETATM   24  C   UNK N   1      26.290  20.109   5.449  0.00  0.00     0.007 A 
ENDBRANCH  21  22
ENDBRANCH   3  21
TORSDOF 3
ENDMDL
MODEL 4
REMARK VINA RESULT:      -6.6     10.534     13.554
REMARK  3 active torsions:
REMARK  status: ('A' for Active; 'I' for Inactive)
REMARK    1  A    between atoms: N_3  and  C_9 
REMARK    2  A    between atoms: C_6  and  C_9 
REMARK    3  A    between atoms: C_15  and  C_18 
ROOT
HETATM    1 Cl   UNK N   1      33.650  26.599  -5.324  0.00  0.00    -0.084 Cl
HETATM    2  O   UNK N   1      26.345  23.889  -2.934  0.00  0.00    -0.271 OA
HETATM    3  N   UNK N   1      28.012  25.115  -3.804  0.00  0.00    -0.315 N 
HETATM    4  N   UNK N   1      29.429  22.485  -2.877  0.00  0.00    -0.380 N 
ATOM      5  HN  UNK N   1      29.357  21.470  -2.794  1.00  0.00     0.160 HD
HETATM    6  C   UNK N   1      29.414  25.377  -4.069  0.00  0.00     0.049 A 
HETATM    7  C   UNK N   1      27.547  24.068  -3.061  0.00  0.00     0.242 C 
HETATM    8  C   UNK N   1      30.504  24.417  -3.979  0.00  0.00     0.020 A 
HETATM    9  C   UNK N   1      28.435  23.259  -2.215  0.00  0.00     0.223 C 
HETATM   10  C   UNK N   1      29.721  26.674  -4.548  0.00  0.00     0.032 A 
HETATM   11  C   UNK N   1      30.409  22.945  -3.572  0.00  0.00     0.051 C 
HETATM   12  C   UNK N   1      31.779  24.861  -4.378  0.00  0.00     0.040 A 
HETATM   13  C   UNK N   1      31.001  27.057  -4.916  0.00  0.00     0.026 A 
HETATM   14  C   UNK N   1      32.033  26.146  -4.834  0.00  0.00     0.035 A 
ENDROOT
BRANCH  11  15
HETATM   15  C   UNK N   1      31.538  21.957  -3.806  0.00  0.00    -0.009 A 
HETATM   16  C   UNK N   1      31.518  21.166  -4.974  0.00  0.00     0.014 A 
HETATM   17  C   UNK N   1      32.476  20.172  -5.190  0.00  0.00     0.001 A 
HETATM   18  C   UNK N   1      33.467  19.936  -4.236  0.00  0.00     0.000 A 
HETATM   19  C   UNK N   1      33.509  20.709  -3.077  0.00  0.00     0.001 A 
HETATM   20  C   UNK N   1      32.555  21.708  -2.867  0.00  0.00     0.014 A 
ENDBRANCH  11  15
BRANCH   3  21
HETATM   21  C   UNK N   1      27.050  26.141  -4.216  0.00  0.00     0.137 C 
BRANCH  21  22
HETATM   22  C   UNK N   1      26.340  25.870  -5.529  0.00  0.00     0.004 A 
HETATM   23  C   UNK N   1      25.159  26.820  -5.640  0.00  0.00     0.007 A 
HETATM   24  C   UNK N   1      26.443  27.128  -6.374  0.00  0.00     0.007 A 
ENDBRANCH  21  22
ENDBRANCH   3  21
TORSDOF 3
ENDMDL
MODEL 5
REMARK VINA RESULT:      -6.5     13.612     15.650
REMARK  3 active torsions:
REMARK  status: ('A' for Active; 'I' for Inactive)
REMARK    1  A    between atoms: N_3  and  C_9 
REMARK    2  A    between atoms: C_6  and  C_9 
REMARK    3  A    between atoms: C_15  and  C_18 
ROOT
HETATM    1 Cl   UNK N   1      29.856  24.070  -3.416  0.00  0.00    -0.084 Cl
HETATM    2  O   UNK N   1      25.475  24.037 -10.289  0.00  0.00    -0.271 OA
HETATM    3  N   UNK N   1      26.704  23.429  -8.511  0.00  0.00    -0.315 N 
HETATM    4  N   UNK N   1      26.205  26.485  -8.060  0.00  0.00    -0.380 N 
ATOM      5  HN  UNK N   1      25.540  27.254  -8.146  1.00  0.00     0.160 HD
HETATM    6  C   UNK N   1      27.477  23.725  -7.320  0.00  0.00     0.049 A 
HETATM    7  C   UNK N   1      26.161  24.374  -9.334  0.00  0.00     0.242 C 
HETATM    8  C   UNK N   1      27.465  24.971  -6.569  0.00  0.00     0.020 A 
HETATM    9  C   UNK N   1      26.545  25.789  -9.256  0.00  0.00     0.223 C 
HETATM   10  C   UNK N   1      28.243  22.654  -6.798  0.00  0.00     0.032 A 
HETATM   11  C   UNK N   1      26.658  26.233  -6.883  0.00  0.00     0.051 C 
HETATM   12  C   UNK N   1      28.221  25.008  -5.382  0.00  0.00     0.040 A 
HETATM   13  C   UNK N   1      28.977  22.753  -5.626  0.00  0.00     0.026 A 
HETATM   14  C   UNK N   1      28.963  23.934  -4.914  0.00  0.00     0.035 A 
ENDROOT
BRANCH  11  15
HETATM   15  C   UNK N   1      26.477  27.358  -5.880  0.00  0.00    -0.009 A 
HETATM   16  C   UNK N   1      27.255  28.526  -6.021  0.00  0.00     0.014 A 
HETATM   17  C   UNK N   1      27.202  29.550  -5.070  0.00  0.00     0.001 A 
HETATM   18  C   UNK N   1      26.380  29.421  -3.950  0.00  0.00     0.000 A 
HETATM   19  C   UNK N   1      25.598  28.277  -3.792  0.00  0.00     0.001 A 
HETATM   20  C   UNK N   1      25.648  27.259  -4.748  0.00  0.00     0.014 A 
ENDBRANCH  11  15
BRANCH   3  21
HETATM   21  C   UNK N   1      26.656  22.032  -8.947  0.00  0.00     0.137 C 
BRANCH  21  22
HETATM   22  C   UNK N   1      25.307  21.354  -8.796  0.00  0.00     0.004 A 
HETATM   23  C   UNK N   1      25.447  20.229  -7.785  0.00  0.00     0.007 A 
HETATM   24  C   UNK N   1      24.854  21.551  -7.360  0.00  0.00     0.007 A 
ENDBRANCH  21  22
ENDBRANCH   3  21
TORSDOF 3
ENDMDL
MODEL 6
REMARK VINA RESULT:      -6.4      6.202     10.575
REMARK  3 active torsions:
REMARK  status: ('A' for Active; 'I' for Inactive)
REMARK    1  A    between atoms: N_3  and  C_9 
REMARK    2  A    between atoms: C_6  and  C_9 
REMARK    3  A    between atoms: C_15  and  C_18 
ROOT
HETATM    1 Cl   UNK N   1      33.805   9.442  10.342  0.00  0.00    -0.084 Cl
HETATM    2  O   UNK N   1      35.297  17.446   9.973  0.00  0.00    -0.271 OA
HETATM    3  N   UNK N   1      34.505  15.379   9.596  0.00  0.00    -0.315 N 
HETATM    4  N   UNK N   1      36.278  15.040  12.151  0.00  0.00    -0.380 N 
ATOM      5  HN  UNK N   1      36.581  15.459  13.031  1.00  0.00     0.160 HD
HETATM    6  C   UNK N   1      34.464  13.951   9.847  0.00  0.00     0.049 A 
HETATM    7  C   UNK N   1      35.368  16.247  10.202  0.00  0.00     0.242 C 
HETATM    8  C   UNK N   1      34.985  13.265  11.020  0.00  0.00     0.020 A 
HETATM    9  C   UNK N   1      36.535  15.780  10.962  0.00  0.00     0.223 C 
HETATM   10  C   UNK N   1      33.764  13.175   8.891  0.00  0.00     0.032 A 
HETATM   11  C   UNK N   1      35.699  13.893  12.218  0.00  0.00     0.051 C 
HETATM   12  C   UNK N   1      34.749  11.880  11.105  0.00  0.00     0.040 A 
HETATM   13  C   UNK N   1      33.572  11.809   9.025  0.00  0.00     0.026 A 
HETATM   14  C   UNK N   1      34.064  11.160  10.138  0.00  0.00     0.035 A 
ENDROOT
BRANCH  11  15
HETATM   15  C   UNK N   1      35.926  13.145  13.519  0.00  0.00    -0.009 A 
HETATM   16  C   UNK N   1      37.052  12.303  13.632  0.00  0.00     0.014 A 
HETATM   17  C   UNK N   1      37.254  11.513  14.768  0.00  0.00     0.001 A 
HETATM   18  C   UNK N   1      36.327  11.538  15.810  0.00  0.00     0.000 A 
HETATM   19  C   UNK N   1      35.208  12.366  15.723  0.00  0.00     0.001 A 
HETATM   20  C   UNK N   1      35.013  13.160  14.589  0.00  0.00     0.014 A 
ENDBRANCH  11  15
BRANCH   3  21
HETATM   21  C   UNK N   1      33.686  15.888   8.493  0.00  0.00     0.137 C 
BRANCH  21  22
HETATM   22  C   UNK N   1      32.287  16.330   8.878  0.00  0.00     0.004 A 
HETATM   23  C   UNK N   1      32.081  17.753   8.386  0.00  0.00     0.007 A 
HETATM   24  C   UNK N   1      31.520  16.595   7.594  0.00  0.00     0.007 A 
ENDBRANCH  21  22
ENDBRANCH   3  21
TORSDOF 3
ENDMDL
MODEL 7
REMARK VINA RESULT:      -6.3     12.661     14.896
REMARK  3 active torsions:
REMARK  status: ('A' for Active; 'I' for Inactive)
REMARK    1  A    between atoms: N_3  and  C_9 
REMARK    2  A    between atoms: C_6  and  C_9 
REMARK    3  A    between atoms: C_15  and  C_18 
ROOT
HETATM    1 Cl   UNK N   1      31.719  22.248  -3.612  0.00  0.00    -0.084 Cl
HETATM    2  O   UNK N   1      25.213  24.418  -8.015  0.00  0.00    -0.271 OA
HETATM    3  N   UNK N   1      26.941  24.405  -6.582  0.00  0.00    -0.315 N 
HETATM    4  N   UNK N   1      27.167  21.648  -8.045  0.00  0.00    -0.380 N 
ATOM      5  HN  UNK N   1      27.066  21.151  -8.930  1.00  0.00     0.160 HD
HETATM    6  C   UNK N   1      28.043  23.752  -5.901  0.00  0.00     0.049 A 
HETATM    7  C   UNK N   1      26.083  23.779  -7.440  0.00  0.00     0.242 C 
HETATM    8  C   UNK N   1      28.685  22.506  -6.295  0.00  0.00     0.020 A 
HETATM    9  C   UNK N   1      26.013  22.316  -7.543  0.00  0.00     0.223 C 
HETATM   10  C   UNK N   1      28.596  24.455  -4.804  0.00  0.00     0.032 A 
HETATM   11  C   UNK N   1      28.325  21.616  -7.486  0.00  0.00     0.051 C 
HETATM   12  C   UNK N   1      29.807  22.103  -5.545  0.00  0.00     0.040 A 
HETATM   13  C   UNK N   1      29.699  24.002  -4.096  0.00  0.00     0.026 A 
HETATM   14  C   UNK N   1      30.307  22.822  -4.471  0.00  0.00     0.035 A 
ENDROOT
BRANCH  11  15
HETATM   15  C   UNK N   1      29.240  20.513  -7.988  0.00  0.00    -0.009 A 
HETATM   16  C   UNK N   1      30.262  20.842  -8.903  0.00  0.00     0.014 A 
HETATM   17  C   UNK N   1      31.067  19.852  -9.475  0.00  0.00     0.001 A 
HETATM   18  C   UNK N   1      30.858  18.510  -9.155  0.00  0.00     0.000 A 
HETATM   19  C   UNK N   1      29.856  18.162  -8.249  0.00  0.00     0.001 A 
HETATM   20  C   UNK N   1      29.058  19.154  -7.674  0.00  0.00     0.014 A 
ENDBRANCH  11  15
BRANCH   3  21
HETATM   21  C   UNK N   1      26.629  25.779  -6.183  0.00  0.00     0.137 C 
BRANCH  21  22
HETATM   22  C   UNK N   1      25.443  25.926  -5.249  0.00  0.00     0.004 A 
HETATM   23  C   UNK N   1      25.606  27.217  -4.464  0.00  0.00     0.007 A 
HETATM   24  C   UNK N   1      24.686  27.176  -5.661  0.00  0.00     0.007 A 
ENDBRANCH  21  22
ENDBRANCH   3  21
TORSDOF 3
ENDMDL
MODEL 8
REMARK VINA RESULT:      -6.3      9.325     11.354
REMARK  3 active torsions:
REMARK  status: ('A' for Active; 'I' for Inactive)
REMARK    1  A    between atoms: N_3  and  C_9 
REMARK    2  A    between atoms: C_6  and  C_9 
REMARK    3  A    between atoms: C_15  and  C_18 
ROOT
HETATM    1 Cl   UNK N   1      33.159   9.212  10.919  0.00  0.00    -0.084 Cl
HETATM    2  O   UNK N   1      37.205  14.882  15.151  0.00  0.00    -0.271 OA
HETATM    3  N   UNK N   1      36.043  13.056  14.553  0.00  0.00    -0.315 N 
HETATM    4  N   UNK N   1      36.660  14.470  11.830  0.00  0.00    -0.380 N 
ATOM      5  HN  UNK N   1      37.344  14.998  11.289  1.00  0.00     0.160 HD
HETATM    6  C   UNK N   1      35.337  12.241  13.583  0.00  0.00     0.049 A 
HETATM    7  C   UNK N   1      36.576  14.286  14.288  0.00  0.00     0.242 C 
HETATM    8  C   UNK N   1      35.425  12.352  12.134  0.00  0.00     0.020 A 
HETATM    9  C   UNK N   1      36.241  15.034  13.069  0.00  0.00     0.223 C 
HETATM   10  C   UNK N   1      34.564  11.180  14.113  0.00  0.00     0.032 A 
HETATM   11  C   UNK N   1      36.256  13.355  11.332  0.00  0.00     0.051 C 
HETATM   12  C   UNK N   1      34.728  11.390  11.378  0.00  0.00     0.040 A 
HETATM   13  C   UNK N   1      33.890  10.267  13.316  0.00  0.00     0.026 A 
HETATM   14  C   UNK N   1      33.975  10.372  11.944  0.00  0.00     0.035 A 
ENDROOT
BRANCH  11  15
HETATM   15  C   UNK N   1      36.520  13.193   9.845  0.00  0.00    -0.009 A 
HETATM   16  C   UNK N   1      37.430  12.202   9.421  0.00  0.00     0.014 A 
HETATM   17  C   UNK N   1      37.787  12.078   8.075  0.00  0.00     0.001 A 
HETATM   18  C   UNK N   1      37.254  12.951   7.126  0.00  0.00     0.000 A 
HETATM   19  C   UNK N   1      36.349  13.935   7.522  0.00  0.00     0.001 A 
HETATM   20  C   UNK N   1      35.988  14.053   8.867  0.00  0.00     0.014 A 
ENDBRANCH  11  15
BRANCH   3  21
HETATM   21  C   UNK N   1      36.026  12.604  15.946  0.00  0.00     0.137 C 
BRANCH  21  22
HETATM   22  C   UNK N   1      34.857  13.104  16.773  0.00  0.00     0.004 A 
HETATM   23  C   UNK N   1      35.016  12.586  18.192  0.00  0.00     0.007 A 
HETATM   24  C   UNK N   1      35.416  14.004  17.860  0.00  0.00     0.007 A 
ENDBRANCH  21  22
ENDBRANCH   3  21
TORSDOF 3
ENDMDL
MODEL 9
REMARK VINA RESULT:      -6.1      4.805      6.554
REMARK  3 active torsions:
REMARK  status: ('A' for Active; 'I' for Inactive)
REMARK    1  A    between atoms: N_3  and  C_9 
REMARK    2  A    between atoms: C_6  and  C_9 
REMARK    3  A    between atoms: C_15  and  C_18 
ROOT
HETATM    1 Cl   UNK N   1      32.769  11.157   6.008  0.00  0.00    -0.084 Cl
HETATM    2  O   UNK N   1      35.656  17.310  10.506  0.00  0.00    -0.271 OA
HETATM    3  N   UNK N   1      35.176  15.274   9.689  0.00  0.00    -0.315 N 
HETATM    4  N   UNK N   1      33.919  17.230   7.596  0.00  0.00    -0.380 N 
ATOM      5  HN  UNK N   1      34.024  18.113   7.095  1.00  0.00     0.160 HD
HETATM    6  C   UNK N   1      34.502  14.386   8.762  0.00  0.00     0.049 A 
HETATM    7  C   UNK N   1      35.005  16.629   9.727  0.00  0.00     0.242 C 
HETATM    8  C   UNK N   1      33.892  14.762   7.495  0.00  0.00     0.020 A 
HETATM    9  C   UNK N   1      33.904  17.294   9.019  0.00  0.00     0.223 C 
HETATM   10  C   UNK N   1      34.530  13.010   9.092  0.00  0.00     0.032 A 
HETATM   11  C   UNK N   1      33.813  16.163   6.886  0.00  0.00     0.051 C 
HETATM   12  C   UNK N   1      33.377  13.720   6.701  0.00  0.00     0.040 A 
HETATM   13  C   UNK N   1      33.996  12.027   8.273  0.00  0.00     0.026 A 
HETATM   14  C   UNK N   1      33.420  12.384   7.072  0.00  0.00     0.035 A 
ENDROOT
BRANCH  11  15
HETATM   15  C   UNK N   1      33.437  16.404   5.434  0.00  0.00    -0.009 A 
HETATM   16  C   UNK N   1      32.486  17.402   5.135  0.00  0.00     0.014 A 
HETATM   17  C   UNK N   1      32.029  17.596   3.828  0.00  0.00     0.001 A 
HETATM   18  C   UNK N   1      32.502  16.787   2.794  0.00  0.00     0.000 A 
HETATM   19  C   UNK N   1      33.445  15.797   3.066  0.00  0.00     0.001 A 
HETATM   20  C   UNK N   1      33.906  15.610   4.372  0.00  0.00     0.014 A 
ENDBRANCH  11  15
BRANCH   3  21
HETATM   21  C   UNK N   1      35.954  14.653  10.765  0.00  0.00     0.137 C 
BRANCH  21  22
HETATM   22  C   UNK N   1      35.208  14.459  12.071  0.00  0.00     0.004 A 
HETATM   23  C   UNK N   1      35.657  13.146  12.690  0.00  0.00     0.007 A 
HETATM   24  C   UNK N   1      36.236  14.449  13.189  0.00  0.00     0.007 A 
ENDBRANCH  21  22
ENDBRANCH   3  21
TORSDOF 3
ENDMDL
