MODEL 1
REMARK VINA RESULT:      -7.0      0.000      0.000
REMARK  3 active torsions:
REMARK  status: ('A' for Active; 'I' for Inactive)
REMARK    1  A    between atoms: N_7  and  C_13 
REMARK    2  A    between atoms: C_12  and  C_18 
REMARK    3  A    between atoms: C_13  and  C_19 
ROOT
HETATM    1 Cl   UNK N   1      27.914  18.154   9.375  0.00  0.00    -0.084 Cl
HETATM    2  S   UNK N   1      32.852  16.037   2.989  0.00  0.00    -0.063 SA
HETATM    3  N   UNK N   1      31.865  16.177   5.283  0.00  0.00    -0.331 N 
HETATM    4  N   UNK N   1      29.471  16.828   3.323  0.00  0.00    -0.382 N 
ATOM      5  HN  UNK N   1      29.124  17.125   2.411  1.00  0.00     0.160 HD
HETATM    6  C   UNK N   1      30.802  16.607   6.174  0.00  0.00     0.048 A 
HETATM    7  C   UNK N   1      29.538  17.217   5.774  0.00  0.00     0.020 A 
HETATM    8  C   UNK N   1      29.007  17.460   4.346  0.00  0.00     0.054 C 
HETATM    9  C   UNK N   1      31.711  16.157   3.866  0.00  0.00     0.098 C 
HETATM   10  C   UNK N   1      30.414  15.762   3.325  0.00  0.00     0.189 C 
HETATM   11  C   UNK N   1      31.066  16.482   7.558  0.00  0.00     0.032 A 
HETATM   12  C   UNK N   1      28.701  17.664   6.816  0.00  0.00     0.040 A 
HETATM   13  C   UNK N   1      30.193  16.935   8.534  0.00  0.00     0.026 A 
HETATM   14  C   UNK N   1      29.013  17.538   8.161  0.00  0.00     0.035 A 
ENDROOT
BRANCH   8  15
HETATM   15  C   UNK N   1      27.788  18.339   4.058  0.00  0.00     0.030 A 
HETATM   16  C   UNK N   1      26.520  17.761   3.757  0.00  0.00     0.128 A 
HETATM   17  F   UNK N   1      26.356  16.418   3.652  0.00  0.00    -0.205 F 
HETATM   18  C   UNK N   1      25.395  18.570   3.566  0.00  0.00     0.043 A 
HETATM   19  C   UNK N   1      25.492  19.955   3.668  0.00  0.00     0.003 A 
HETATM   20  C   UNK N   1      26.722  20.542   3.949  0.00  0.00     0.001 A 
HETATM   21  C   UNK N   1      27.851  19.743   4.138  0.00  0.00     0.017 A 
ENDBRANCH   8  15
BRANCH   3  22
HETATM   22  C   UNK N   1      33.041  15.516   5.854  0.00  0.00     0.247 C 
BRANCH  22  23
HETATM   23  C   UNK N   1      34.196  16.448   6.213  0.00  0.00     0.403 C 
HETATM   24  F   UNK N   1      34.401  16.489   7.577  0.00  0.00    -0.169 F 
HETATM   25  F   UNK N   1      35.339  15.960   5.608  0.00  0.00    -0.169 F 
HETATM   26  F   UNK N   1      33.953  17.723   5.745  0.00  0.00    -0.169 F 
ENDBRANCH  22  23
ENDBRANCH   3  22
TORSDOF 3
ENDMDL
MODEL 2
REMARK VINA RESULT:      -6.9      3.425      4.862
REMARK  3 active torsions:
REMARK  status: ('A' for Active; 'I' for Inactive)
REMARK    1  A    between atoms: N_7  and  C_13 
REMARK    2  A    between atoms: C_12  and  C_18 
REMARK    3  A    between atoms: C_13  and  C_19 
ROOT
HETATM    1 Cl   UNK N   1      25.570  15.021   1.133  0.00  0.00    -0.084 Cl
HETATM    2  S   UNK N   1      28.438  18.524   8.143  0.00  0.00    -0.063 SA
HETATM    3  N   UNK N   1      28.313  17.167   6.045  0.00  0.00    -0.331 N 
HETATM    4  N   UNK N   1      26.229  19.510   5.630  0.00  0.00    -0.382 N 
ATOM      5  HN  UNK N   1      25.627  20.242   6.007  1.00  0.00     0.160 HD
HETATM    6  C   UNK N   1      27.620  16.796   4.824  0.00  0.00     0.048 A 
HETATM    7  C   UNK N   1      26.419  17.430   4.289  0.00  0.00     0.020 A 
HETATM    8  C   UNK N   1      25.673  18.667   4.829  0.00  0.00     0.054 C 
HETATM    9  C   UNK N   1      27.973  18.335   6.789  0.00  0.00     0.098 C 
HETATM   10  C   UNK N   1      27.590  19.532   6.046  0.00  0.00     0.189 C 
HETATM   11  C   UNK N   1      28.130  15.666   4.143  0.00  0.00     0.032 A 
HETATM   12  C   UNK N   1      25.849  16.828   3.150  0.00  0.00     0.040 A 
HETATM   13  C   UNK N   1      27.525  15.129   3.018  0.00  0.00     0.026 A 
HETATM   14  C   UNK N   1      26.374  15.705   2.528  0.00  0.00     0.035 A 
ENDROOT
BRANCH   8  15
HETATM   15  C   UNK N   1      24.285  19.076   4.332  0.00  0.00     0.030 A 
HETATM   16  C   UNK N   1      24.130  20.079   3.331  0.00  0.00     0.128 A 
HETATM   17  F   UNK N   1      25.193  20.754   2.827  0.00  0.00    -0.205 F 
HETATM   18  C   UNK N   1      22.861  20.395   2.831  0.00  0.00     0.043 A 
HETATM   19  C   UNK N   1      21.729  19.735   3.298  0.00  0.00     0.003 A 
HETATM   20  C   UNK N   1      21.856  18.760   4.283  0.00  0.00     0.001 A 
HETATM   21  C   UNK N   1      23.116  18.441   4.791  0.00  0.00     0.017 A 
ENDBRANCH   8  15
BRANCH   3  22
HETATM   22  C   UNK N   1      29.550  16.467   6.397  0.00  0.00     0.247 C 
BRANCH  22  23
HETATM   23  C   UNK N   1      30.816  17.031   5.755  0.00  0.00     0.403 C 
HETATM   24  F   UNK N   1      30.515  17.995   4.815  0.00  0.00    -0.169 F 
HETATM   25  F   UNK N   1      31.577  17.609   6.754  0.00  0.00    -0.169 F 
HETATM   26  F   UNK N   1      31.549  16.023   5.163  0.00  0.00    -0.169 F 
ENDBRANCH  22  23
ENDBRANCH   3  22
TORSDOF 3
ENDMDL
MODEL 3
REMARK VINA RESULT:      -6.8      9.090     11.140
REMARK  3 active torsions:
REMARK  status: ('A' for Active; 'I' for Inactive)
REMARK    1  A    between atoms: N_7  and  C_13 
REMARK    2  A    between atoms: C_12  and  C_18 
REMARK    3  A    between atoms: C_13  and  C_19 
ROOT
HETATM    1 Cl   UNK N   1      20.849   9.838   5.690  0.00  0.00    -0.084 Cl
HETATM    2  S   UNK N   1      21.277  18.151   6.293  0.00  0.00    -0.063 SA
HETATM    3  N   UNK N   1      20.709  15.855   5.479  0.00  0.00    -0.331 N 
HETATM    4  N   UNK N   1      21.201  15.522   8.585  0.00  0.00    -0.382 N 
ATOM      5  HN  UNK N   1      21.597  15.857   9.463  1.00  0.00     0.160 HD
HETATM    6  C   UNK N   1      20.693  14.416   5.674  0.00  0.00     0.048 A 
HETATM    7  C   UNK N   1      21.074  13.709   6.894  0.00  0.00     0.020 A 
HETATM    8  C   UNK N   1      21.484  14.309   8.254  0.00  0.00     0.054 C 
HETATM    9  C   UNK N   1      20.951  16.767   6.547  0.00  0.00     0.098 C 
HETATM   10  C   UNK N   1      20.397  16.446   7.859  0.00  0.00     0.189 C 
HETATM   11  C   UNK N   1      20.344  13.641   4.544  0.00  0.00     0.032 A 
HETATM   12  C   UNK N   1      21.094  12.302   6.821  0.00  0.00     0.040 A 
HETATM   13  C   UNK N   1      20.375  12.256   4.542  0.00  0.00     0.026 A 
HETATM   14  C   UNK N   1      20.763  11.586   5.681  0.00  0.00     0.035 A 
ENDROOT
BRANCH   8  15
HETATM   15  C   UNK N   1      22.108  13.469   9.372  0.00  0.00     0.030 A 
HETATM   16  C   UNK N   1      21.305  12.926  10.417  0.00  0.00     0.128 A 
HETATM   17  F   UNK N   1      19.975  13.181  10.500  0.00  0.00    -0.205 F 
HETATM   18  C   UNK N   1      21.872  12.100  11.394  0.00  0.00     0.043 A 
HETATM   19  C   UNK N   1      23.228  11.791  11.362  0.00  0.00     0.003 A 
HETATM   20  C   UNK N   1      24.034  12.320  10.358  0.00  0.00     0.001 A 
HETATM   21  C   UNK N   1      23.478  13.148   9.381  0.00  0.00     0.017 A 
ENDBRANCH   8  15
BRANCH   3  22
HETATM   22  C   UNK N   1      20.224  16.400   4.209  0.00  0.00     0.247 C 
BRANCH  22  23
HETATM   23  C   UNK N   1      21.300  16.623   3.149  0.00  0.00     0.403 C 
HETATM   24  F   UNK N   1      22.545  16.252   3.612  0.00  0.00    -0.169 F 
HETATM   25  F   UNK N   1      20.985  15.841   2.052  0.00  0.00    -0.169 F 
HETATM   26  F   UNK N   1      21.329  17.946   2.758  0.00  0.00    -0.169 F 
ENDBRANCH  22  23
ENDBRANCH   3  22
TORSDOF 3
ENDMDL
MODEL 4
REMARK VINA RESULT:      -6.7      2.608      6.635
REMARK  3 active torsions:
REMARK  status: ('A' for Active; 'I' for Inactive)
REMARK    1  A    between atoms: N_7  and  C_13 
REMARK    2  A    between atoms: C_12  and  C_18 
REMARK    3  A    between atoms: C_13  and  C_19 
ROOT
HETATM    1 Cl   UNK N   1      29.449  18.532   9.969  0.00  0.00    -0.084 Cl
HETATM    2  S   UNK N   1      32.776  14.808   3.282  0.00  0.00    -0.063 SA
HETATM    3  N   UNK N   1      31.315  16.240   4.722  0.00  0.00    -0.331 N 
HETATM    4  N   UNK N   1      34.026  15.962   6.328  0.00  0.00    -0.382 N 
ATOM      5  HN  UNK N   1      34.903  15.476   6.514  1.00  0.00     0.160 HD
HETATM    6  C   UNK N   1      31.011  16.835   6.012  0.00  0.00     0.048 A 
HETATM    7  C   UNK N   1      31.854  16.786   7.202  0.00  0.00     0.020 A 
HETATM    8  C   UNK N   1      33.267  16.186   7.345  0.00  0.00     0.054 C 
HETATM    9  C   UNK N   1      32.587  15.665   4.429  0.00  0.00     0.098 C 
HETATM   10  C   UNK N   1      33.774  16.318   4.972  0.00  0.00     0.189 C 
HETATM   11  C   UNK N   1      29.743  17.452   6.125  0.00  0.00     0.032 A 
HETATM   12  C   UNK N   1      31.305  17.331   8.380  0.00  0.00     0.040 A 
HETATM   13  C   UNK N   1      29.267  17.980   7.314  0.00  0.00     0.026 A 
HETATM   14  C   UNK N   1      30.046  17.908   8.447  0.00  0.00     0.035 A 
ENDROOT
BRANCH   8  15
HETATM   15  C   UNK N   1      33.937  15.966   8.704  0.00  0.00     0.030 A 
HETATM   16  C   UNK N   1      34.749  16.978   9.294  0.00  0.00     0.128 A 
HETATM   17  F   UNK N   1      35.012  18.145   8.654  0.00  0.00    -0.205 F 
HETATM   18  C   UNK N   1      35.298  16.797  10.569  0.00  0.00     0.043 A 
HETATM   19  C   UNK N   1      35.060  15.627  11.284  0.00  0.00     0.003 A 
HETATM   20  C   UNK N   1      34.281  14.621  10.722  0.00  0.00     0.001 A 
HETATM   21  C   UNK N   1      33.732  14.791   9.450  0.00  0.00     0.017 A 
ENDBRANCH   8  15
BRANCH   3  22
HETATM   22  C   UNK N   1      30.385  16.449   3.611  0.00  0.00     0.247 C 
BRANCH  22  23
HETATM   23  C   UNK N   1      29.328  15.361   3.440  0.00  0.00     0.403 C 
HETATM   24  F   UNK N   1      29.456  14.382   4.403  0.00  0.00    -0.169 F 
HETATM   25  F   UNK N   1      28.085  15.952   3.571  0.00  0.00    -0.169 F 
HETATM   26  F   UNK N   1      29.419  14.789   2.186  0.00  0.00    -0.169 F 
ENDBRANCH  22  23
ENDBRANCH   3  22
TORSDOF 3
ENDMDL
MODEL 5
REMARK VINA RESULT:      -6.7     11.108     13.767
REMARK  3 active torsions:
REMARK  status: ('A' for Active; 'I' for Inactive)
REMARK    1  A    between atoms: N_7  and  C_13 
REMARK    2  A    between atoms: C_12  and  C_18 
REMARK    3  A    between atoms: C_13  and  C_19 
ROOT
HETATM    1 Cl   UNK N   1      29.865  19.088  -7.654  0.00  0.00    -0.084 Cl
HETATM    2  S   UNK N   1      28.786  26.798  -4.648  0.00  0.00    -0.063 SA
HETATM    3  N   UNK N   1      28.335  24.578  -5.709  0.00  0.00    -0.331 N 
HETATM    4  N   UNK N   1      30.780  24.075  -3.768  0.00  0.00    -0.382 N 
ATOM      5  HN  UNK N   1      31.567  24.423  -3.220  1.00  0.00     0.160 HD
HETATM    6  C   UNK N   1      28.759  23.228  -6.037  0.00  0.00     0.048 A 
HETATM    7  C   UNK N   1      29.979  22.573  -5.575  0.00  0.00     0.020 A 
HETATM    8  C   UNK N   1      31.033  23.110  -4.585  0.00  0.00     0.054 C 
HETATM    9  C   UNK N   1      29.009  25.373  -4.737  0.00  0.00     0.098 C 
HETATM   10  C   UNK N   1      29.524  24.707  -3.545  0.00  0.00     0.189 C 
HETATM   11  C   UNK N   1      27.937  22.525  -6.949  0.00  0.00     0.032 A 
HETATM   12  C   UNK N   1      30.249  21.300  -6.115  0.00  0.00     0.040 A 
HETATM   13  C   UNK N   1      28.256  21.267  -7.434  0.00  0.00     0.026 A 
HETATM   14  C   UNK N   1      29.421  20.659  -7.024  0.00  0.00     0.035 A 
ENDROOT
BRANCH   8  15
HETATM   15  C   UNK N   1      32.393  22.439  -4.382  0.00  0.00     0.030 A 
HETATM   16  C   UNK N   1      32.590  21.477  -3.349  0.00  0.00     0.128 A 
HETATM   17  F   UNK N   1      31.607  21.165  -2.468  0.00  0.00    -0.205 F 
HETATM   18  C   UNK N   1      33.816  20.815  -3.216  0.00  0.00     0.043 A 
HETATM   19  C   UNK N   1      34.864  21.081  -4.092  0.00  0.00     0.003 A 
HETATM   20  C   UNK N   1      34.698  22.025  -5.101  0.00  0.00     0.001 A 
HETATM   21  C   UNK N   1      33.480  22.693  -5.239  0.00  0.00     0.017 A 
ENDBRANCH   8  15
BRANCH   3  22
HETATM   22  C   UNK N   1      27.041  25.051  -6.204  0.00  0.00     0.247 C 
BRANCH  22  23
HETATM   23  C   UNK N   1      25.840  24.670  -5.341  0.00  0.00     0.403 C 
HETATM   24  F   UNK N   1      26.192  24.565  -4.011  0.00  0.00    -0.169 F 
HETATM   25  F   UNK N   1      24.890  25.665  -5.471  0.00  0.00    -0.169 F 
HETATM   26  F   UNK N   1      25.296  23.475  -5.769  0.00  0.00    -0.169 F 
ENDBRANCH  22  23
ENDBRANCH   3  22
TORSDOF 3
ENDMDL
MODEL 6
REMARK VINA RESULT:      -6.7     11.853     14.674
REMARK  3 active torsions:
REMARK  status: ('A' for Active; 'I' for Inactive)
REMARK    1  A    between atoms: N_7  and  C_13 
REMARK    2  A    between atoms: C_12  and  C_18 
REMARK    3  A    between atoms: C_13  and  C_19 
ROOT
HETATM    1 Cl   UNK N   1      26.045  20.800  -8.168  0.00  0.00    -0.084 Cl
HETATM    2  S   UNK N   1      28.932  27.958  -4.992  0.00  0.00    -0.063 SA
HETATM    3  N   UNK N   1      27.392  26.234  -5.947  0.00  0.00    -0.331 N 
HETATM    4  N   UNK N   1      29.689  24.584  -4.532  0.00  0.00    -0.382 N 
ATOM      5  HN  UNK N   1      30.633  24.521  -4.151  1.00  0.00     0.160 HD
HETATM    6  C   UNK N   1      27.130  24.865  -6.355  0.00  0.00     0.048 A 
HETATM    7  C   UNK N   1      28.013  23.721  -6.147  0.00  0.00     0.020 A 
HETATM    8  C   UNK N   1      29.353  23.678  -5.385  0.00  0.00     0.054 C 
HETATM    9  C   UNK N   1      28.504  26.585  -5.127  0.00  0.00     0.098 C 
HETATM   10  C   UNK N   1      28.888  25.663  -4.062  0.00  0.00     0.189 C 
HETATM   11  C   UNK N   1      25.937  24.654  -7.086  0.00  0.00     0.032 A 
HETATM   12  C   UNK N   1      27.609  22.504  -6.732  0.00  0.00     0.040 A 
HETATM   13  C   UNK N   1      25.594  23.426  -7.627  0.00  0.00     0.026 A 
HETATM   14  C   UNK N   1      26.439  22.352  -7.459  0.00  0.00     0.035 A 
ENDROOT
BRANCH   8  15
HETATM   15  C   UNK N   1      30.306  22.483  -5.458  0.00  0.00     0.030 A 
HETATM   16  C   UNK N   1      30.393  21.546  -4.388  0.00  0.00     0.128 A 
HETATM   17  F   UNK N   1      29.688  21.708  -3.240  0.00  0.00    -0.205 F 
HETATM   18  C   UNK N   1      31.213  20.417  -4.494  0.00  0.00     0.043 A 
HETATM   19  C   UNK N   1      31.957  20.187  -5.647  0.00  0.00     0.003 A 
HETATM   20  C   UNK N   1      31.897  21.094  -6.700  0.00  0.00     0.001 A 
HETATM   21  C   UNK N   1      31.085  22.225  -6.602  0.00  0.00     0.017 A 
ENDBRANCH   8  15
BRANCH   3  22
HETATM   22  C   UNK N   1      26.359  27.247  -6.173  0.00  0.00     0.247 C 
BRANCH  22  23
HETATM   23  C   UNK N   1      25.358  27.416  -5.033  0.00  0.00     0.403 C 
HETATM   24  F   UNK N   1      25.480  28.655  -4.438  0.00  0.00    -0.169 F 
HETATM   25  F   UNK N   1      24.087  27.303  -5.563  0.00  0.00    -0.169 F 
HETATM   26  F   UNK N   1      25.535  26.430  -4.083  0.00  0.00    -0.169 F 
ENDBRANCH  22  23
ENDBRANCH   3  22
TORSDOF 3
ENDMDL
MODEL 7
REMARK VINA RESULT:      -6.6      3.344      7.072
REMARK  3 active torsions:
REMARK  status: ('A' for Active; 'I' for Inactive)
REMARK    1  A    between atoms: N_7  and  C_13 
REMARK    2  A    between atoms: C_12  and  C_18 
REMARK    3  A    between atoms: C_13  and  C_19 
ROOT
HETATM    1 Cl   UNK N   1      32.460  14.844   3.302  0.00  0.00    -0.084 Cl
HETATM    2  S   UNK N   1      27.474  19.763   7.838  0.00  0.00    -0.063 SA
HETATM    3  N   UNK N   1      28.338  18.311   5.994  0.00  0.00    -0.331 N 
HETATM    4  N   UNK N   1      29.883  17.352   8.581  0.00  0.00    -0.382 N 
ATOM      5  HN  UNK N   1      30.212  17.517   9.533  1.00  0.00     0.160 HD
HETATM    6  C   UNK N   1      29.336  17.393   5.474  0.00  0.00     0.048 A 
HETATM    7  C   UNK N   1      30.450  16.819   6.224  0.00  0.00     0.020 A 
HETATM    8  C   UNK N   1      30.769  16.974   7.725  0.00  0.00     0.054 C 
HETATM    9  C   UNK N   1      28.243  18.630   7.380  0.00  0.00     0.098 C 
HETATM   10  C   UNK N   1      28.495  17.565   8.346  0.00  0.00     0.189 C 
HETATM   11  C   UNK N   1      29.248  17.099   4.094  0.00  0.00     0.032 A 
HETATM   12  C   UNK N   1      31.367  16.044   5.487  0.00  0.00     0.040 A 
HETATM   13  C   UNK N   1      30.180  16.318   3.430  0.00  0.00     0.026 A 
HETATM   14  C   UNK N   1      31.249  15.799   4.127  0.00  0.00     0.035 A 
ENDROOT
BRANCH   8  15
HETATM   15  C   UNK N   1      32.103  16.537   8.335  0.00  0.00     0.030 A 
HETATM   16  C   UNK N   1      33.202  17.439   8.419  0.00  0.00     0.128 A 
HETATM   17  F   UNK N   1      33.135  18.695   7.910  0.00  0.00    -0.205 F 
HETATM   18  C   UNK N   1      34.394  17.054   9.043  0.00  0.00     0.043 A 
HETATM   19  C   UNK N   1      34.527  15.783   9.595  0.00  0.00     0.003 A 
HETATM   20  C   UNK N   1      33.471  14.881   9.513  0.00  0.00     0.001 A 
HETATM   21  C   UNK N   1      32.279  15.255   8.889  0.00  0.00     0.017 A 
ENDBRANCH   8  15
BRANCH   3  22
HETATM   22  C   UNK N   1      27.244  18.734   5.117  0.00  0.00     0.247 C 
BRANCH  22  23
HETATM   23  C   UNK N   1      27.454  20.077   4.422  0.00  0.00     0.403 C 
HETATM   24  F   UNK N   1      26.681  21.065   4.997  0.00  0.00    -0.169 F 
HETATM   25  F   UNK N   1      28.786  20.422   4.557  0.00  0.00    -0.169 F 
HETATM   26  F   UNK N   1      27.153  19.980   3.078  0.00  0.00    -0.169 F 
ENDBRANCH  22  23
ENDBRANCH   3  22
TORSDOF 3
ENDMDL
MODEL 8
REMARK VINA RESULT:      -6.6     10.196     12.602
REMARK  3 active torsions:
REMARK  status: ('A' for Active; 'I' for Inactive)
REMARK    1  A    between atoms: N_7  and  C_13 
REMARK    2  A    between atoms: C_12  and  C_18 
REMARK    3  A    between atoms: C_13  and  C_19 
ROOT
HETATM    1 Cl   UNK N   1      38.058   8.846  15.797  0.00  0.00    -0.084 Cl
HETATM    2  S   UNK N   1      36.699  14.774  10.083  0.00  0.00    -0.063 SA
HETATM    3  N   UNK N   1      37.160  12.553  11.138  0.00  0.00    -0.331 N 
HETATM    4  N   UNK N   1      35.561  14.182  13.327  0.00  0.00    -0.382 N 
ATOM      5  HN  UNK N   1      35.233  15.067  13.714  1.00  0.00     0.160 HD
HETATM    6  C   UNK N   1      37.244  11.711  12.318  0.00  0.00     0.048 A 
HETATM    7  C   UNK N   1      36.845  12.085  13.672  0.00  0.00     0.020 A 
HETATM    8  C   UNK N   1      36.174  13.392  14.141  0.00  0.00     0.054 C 
HETATM    9  C   UNK N   1      36.505  13.820  11.150  0.00  0.00     0.098 C 
HETATM   10  C   UNK N   1      35.291  13.954  11.948  0.00  0.00     0.189 C 
HETATM   11  C   UNK N   1      37.838  10.441  12.132  0.00  0.00     0.032 A 
HETATM   12  C   UNK N   1      37.125  11.150  14.687  0.00  0.00     0.040 A 
HETATM   13  C   UNK N   1      38.077   9.562  13.176  0.00  0.00     0.026 A 
HETATM   14  C   UNK N   1      37.730   9.923  14.458  0.00  0.00     0.035 A 
ENDROOT
BRANCH   8  15
HETATM   15  C   UNK N   1      36.043  13.768  15.619  0.00  0.00     0.030 A 
HETATM   16  C   UNK N   1      36.774  14.862  16.166  0.00  0.00     0.128 A 
HETATM   17  F   UNK N   1      37.659  15.571  15.422  0.00  0.00    -0.205 F 
HETATM   18  C   UNK N   1      36.594  15.243  17.500  0.00  0.00     0.043 A 
HETATM   19  C   UNK N   1      35.694  14.564  18.317  0.00  0.00     0.003 A 
HETATM   20  C   UNK N   1      34.978  13.485  17.807  0.00  0.00     0.001 A 
HETATM   21  C   UNK N   1      35.155  13.095  16.478  0.00  0.00     0.017 A 
ENDBRANCH   8  15
BRANCH   3  22
HETATM   22  C   UNK N   1      37.539  11.990   9.841  0.00  0.00     0.247 C 
BRANCH  22  23
HETATM   23  C   UNK N   1      38.991  12.228   9.432  0.00  0.00     0.403 C 
HETATM   24  F   UNK N   1      39.069  12.879   8.217  0.00  0.00    -0.169 F 
HETATM   25  F   UNK N   1      39.580  13.022  10.398  0.00  0.00    -0.169 F 
HETATM   26  F   UNK N   1      39.676  11.032   9.358  0.00  0.00    -0.169 F 
ENDBRANCH  22  23
ENDBRANCH   3  22
TORSDOF 3
ENDMDL
MODEL 9
REMARK VINA RESULT:      -6.5      8.125      9.214
REMARK  3 active torsions:
REMARK  status: ('A' for Active; 'I' for Inactive)
REMARK    1  A    between atoms: N_7  and  C_13 
REMARK    2  A    between atoms: C_12  and  C_18 
REMARK    3  A    between atoms: C_13  and  C_19 
ROOT
HETATM    1 Cl   UNK N   1      17.891  17.185   8.686  0.00  0.00    -0.084 Cl
HETATM    2  S   UNK N   1      25.169  13.708   6.542  0.00  0.00    -0.063 SA
HETATM    3  N   UNK N   1      23.016  14.170   7.728  0.00  0.00    -0.331 N 
HETATM    4  N   UNK N   1      22.590  15.281   4.799  0.00  0.00    -0.382 N 
ATOM      5  HN  UNK N   1      22.965  15.613   3.910  1.00  0.00     0.160 HD
HETATM    6  C   UNK N   1      21.748  14.873   7.811  0.00  0.00     0.048 A 
HETATM    7  C   UNK N   1      21.179  15.745   6.788  0.00  0.00     0.020 A 
HETATM    8  C   UNK N   1      21.729  16.046   5.379  0.00  0.00     0.054 C 
HETATM    9  C   UNK N   1      23.787  14.128   6.530  0.00  0.00     0.098 C 
HETATM   10  C   UNK N   1      23.073  14.025   5.261  0.00  0.00     0.189 C 
HETATM   11  C   UNK N   1      21.049  14.748   9.035  0.00  0.00     0.032 A 
HETATM   12  C   UNK N   1      19.989  16.419   7.130  0.00  0.00     0.040 A 
HETATM   13  C   UNK N   1      19.875  15.432   9.304  0.00  0.00     0.026 A 
HETATM   14  C   UNK N   1      19.351  16.279   8.353  0.00  0.00     0.035 A 
ENDROOT
BRANCH   8  15
HETATM   15  C   UNK N   1      21.179  17.173   4.501  0.00  0.00     0.030 A 
HETATM   16  C   UNK N   1      20.107  16.939   3.592  0.00  0.00     0.128 A 
HETATM   17  F   UNK N   1      19.575  15.703   3.420  0.00  0.00    -0.205 F 
HETATM   18  C   UNK N   1      19.563  17.991   2.846  0.00  0.00     0.043 A 
HETATM   19  C   UNK N   1      20.057  19.285   2.981  0.00  0.00     0.003 A 
HETATM   20  C   UNK N   1      21.111  19.535   3.854  0.00  0.00     0.001 A 
HETATM   21  C   UNK N   1      21.663  18.491   4.599  0.00  0.00     0.017 A 
ENDBRANCH   8  15
BRANCH   3  22
HETATM   22  C   UNK N   1      23.400  13.277   8.823  0.00  0.00     0.247 C 
BRANCH  22  23
HETATM   23  C   UNK N   1      22.909  11.838   8.686  0.00  0.00     0.403 C 
HETATM   24  F   UNK N   1      23.943  10.984   8.360  0.00  0.00    -0.169 F 
HETATM   25  F   UNK N   1      22.381  11.450   9.904  0.00  0.00    -0.169 F 
HETATM   26  F   UNK N   1      21.921  11.752   7.725  0.00  0.00    -0.169 F 
ENDBRANCH  22  23
ENDBRANCH   3  22
TORSDOF 3
ENDMDL
