MODEL 1
REMARK VINA RESULT:      -1.3      0.000      0.000
REMARK  1 active torsions:
REMARK  status: ('A' for Active; 'I' for Inactive)
REMARK    1  A    between atoms: Fe_1  and  Fe_1 
ROOT
HETATM    1 Fe   UNK N   1      38.596  29.706  19.362  0.00  0.00     0.000 Fe
ENDROOT
TORSDOF 1
ENDMDL
MODEL 2
REMARK VINA RESULT:      -1.2     10.767     10.767
REMARK  1 active torsions:
REMARK  status: ('A' for Active; 'I' for Inactive)
REMARK    1  A    between atoms: Fe_1  and  Fe_1 
ROOT
HETATM    1 Fe   UNK N   1      39.964  21.073  13.075  0.00  0.00     0.000 Fe
ENDROOT
TORSDOF 1
ENDMDL
MODEL 3
REMARK VINA RESULT:      -1.2     11.042     11.042
REMARK  1 active torsions:
REMARK  status: ('A' for Active; 'I' for Inactive)
REMARK    1  A    between atoms: Fe_1  and  Fe_1 
ROOT
HETATM    1 Fe   UNK N   1      35.636  21.382  12.738  0.00  0.00     0.000 Fe
ENDROOT
TORSDOF 1
ENDMDL
MODEL 4
REMARK VINA RESULT:      -1.2     31.889     31.889
REMARK  1 active torsions:
REMARK  status: ('A' for Active; 'I' for Inactive)
REMARK    1  A    between atoms: Fe_1  and  Fe_1 
ROOT
HETATM    1 Fe   UNK N   1      21.453  21.778  -6.332  0.00  0.00     0.000 Fe
ENDROOT
TORSDOF 1
ENDMDL
MODEL 5
REMARK VINA RESULT:      -1.1     15.613     15.613
REMARK  1 active torsions:
REMARK  status: ('A' for Active; 'I' for Inactive)
REMARK    1  A    between atoms: Fe_1  and  Fe_1 
ROOT
HETATM    1 Fe   UNK N   1      43.320  25.304   5.147  0.00  0.00     0.000 Fe
ENDROOT
TORSDOF 1
ENDMDL
MODEL 6
REMARK VINA RESULT:      -1.0      9.039      9.039
REMARK  1 active torsions:
REMARK  status: ('A' for Active; 'I' for Inactive)
REMARK    1  A    between atoms: Fe_1  and  Fe_1 
ROOT
HETATM    1 Fe   UNK N   1      41.691  21.639  22.017  0.00  0.00     0.000 Fe
ENDROOT
TORSDOF 1
ENDMDL
MODEL 7
REMARK VINA RESULT:      -1.0      8.596      8.596
REMARK  1 active torsions:
REMARK  status: ('A' for Active; 'I' for Inactive)
REMARK    1  A    between atoms: Fe_1  and  Fe_1 
ROOT
HETATM    1 Fe   UNK N   1      32.042  29.153  24.897  0.00  0.00     0.000 Fe
ENDROOT
TORSDOF 1
ENDMDL
MODEL 8
REMARK VINA RESULT:      -1.0     12.719     12.719
REMARK  1 active torsions:
REMARK  status: ('A' for Active; 'I' for Inactive)
REMARK    1  A    between atoms: Fe_1  and  Fe_1 
ROOT
HETATM    1 Fe   UNK N   1      27.659  24.583  23.352  0.00  0.00     0.000 Fe
ENDROOT
TORSDOF 1
ENDMDL
MODEL 9
REMARK VINA RESULT:      -0.9     13.743     13.743
REMARK  1 active torsions:
REMARK  status: ('A' for Active; 'I' for Inactive)
REMARK    1  A    between atoms: Fe_1  and  Fe_1 
ROOT
HETATM    1 Fe   UNK N   1      36.345  19.944   9.954  0.00  0.00     0.000 Fe
ENDROOT
TORSDOF 1
ENDMDL
