MODEL 1
REMARK VINA RESULT:      -1.2      0.000      0.000
REMARK  1 active torsions:
REMARK  status: ('A' for Active; 'I' for Inactive)
REMARK    1  A    between atoms: Zn_1  and  Zn_1 
ROOT
HETATM    1 Zn   UNK N   1      35.636  21.382  12.738  0.00  0.00     0.000 Zn
ENDROOT
TORSDOF 1
ENDMDL
MODEL 2
REMARK VINA RESULT:      -1.2     23.769     23.769
REMARK  1 active torsions:
REMARK  status: ('A' for Active; 'I' for Inactive)
REMARK    1  A    between atoms: Zn_1  and  Zn_1 
ROOT
HETATM    1 Zn   UNK N   1      21.453  21.778  -6.332  0.00  0.00     0.000 Zn
ENDROOT
TORSDOF 1
ENDMDL
MODEL 3
REMARK VINA RESULT:      -1.1     11.491     11.491
REMARK  1 active torsions:
REMARK  status: ('A' for Active; 'I' for Inactive)
REMARK    1  A    between atoms: Zn_1  and  Zn_1 
ROOT
HETATM    1 Zn   UNK N   1      43.320  25.304   5.147  0.00  0.00     0.000 Zn
ENDROOT
TORSDOF 1
ENDMDL
MODEL 4
REMARK VINA RESULT:      -1.1     10.372     10.372
REMARK  1 active torsions:
REMARK  status: ('A' for Active; 'I' for Inactive)
REMARK    1  A    between atoms: Zn_1  and  Zn_1 
ROOT
HETATM    1 Zn   UNK N   1      45.119  25.582  12.711  0.00  0.00     0.000 Zn
ENDROOT
TORSDOF 1
ENDMDL
MODEL 5
REMARK VINA RESULT:      -1.0     11.083     11.083
REMARK  1 active torsions:
REMARK  status: ('A' for Active; 'I' for Inactive)
REMARK    1  A    between atoms: Zn_1  and  Zn_1 
ROOT
HETATM    1 Zn   UNK N   1      41.691  21.639  22.017  0.00  0.00     0.000 Zn
ENDROOT
TORSDOF 1
ENDMDL
MODEL 6
REMARK VINA RESULT:      -1.0     14.870     14.870
REMARK  1 active torsions:
REMARK  status: ('A' for Active; 'I' for Inactive)
REMARK    1  A    between atoms: Zn_1  and  Zn_1 
ROOT
HETATM    1 Zn   UNK N   1      32.042  29.153  24.897  0.00  0.00     0.000 Zn
ENDROOT
TORSDOF 1
ENDMDL
MODEL 7
REMARK VINA RESULT:      -1.0     11.544     11.544
REMARK  1 active torsions:
REMARK  status: ('A' for Active; 'I' for Inactive)
REMARK    1  A    between atoms: Zn_1  and  Zn_1 
ROOT
HETATM    1 Zn   UNK N   1      42.899  29.357  16.852  0.00  0.00     0.000 Zn
ENDROOT
TORSDOF 1
ENDMDL
MODEL 8
REMARK VINA RESULT:      -0.9     12.404     12.404
REMARK  1 active torsions:
REMARK  status: ('A' for Active; 'I' for Inactive)
REMARK    1  A    between atoms: Zn_1  and  Zn_1 
ROOT
HETATM    1 Zn   UNK N   1      46.910  23.948  17.228  0.00  0.00     0.000 Zn
ENDROOT
TORSDOF 1
ENDMDL
MODEL 9
REMARK VINA RESULT:      -0.9     20.343     20.343
REMARK  1 active torsions:
REMARK  status: ('A' for Active; 'I' for Inactive)
REMARK    1  A    between atoms: Zn_1  and  Zn_1 
ROOT
HETATM    1 Zn   UNK N   1      20.033  20.939  -0.307  0.00  0.00     0.000 Zn
ENDROOT
TORSDOF 1
ENDMDL
