MODEL 1
REMARK VINA RESULT:      -7.2      0.000      0.000
REMARK  4 active torsions:
REMARK  status: ('A' for Active; 'I' for Inactive)
REMARK    1  A    between atoms: O_3  and  C_14 
REMARK    2  A    between atoms: N_5  and  C_11 
REMARK    3  A    between atoms: C_11  and  C_18 
REMARK    4  A    between atoms: C_12  and  C_17 
ROOT
HETATM    1  N   UNK N   1      35.670  19.521  -4.660  0.00  0.00    -0.197 NA
HETATM    2  C   UNK N   1      33.131  19.775  -4.152  0.00  0.00     0.144 C 
HETATM    3  C   UNK N   1      34.544  19.651  -4.444  0.00  0.00     0.060 C 
ENDROOT
BRANCH   2   4
HETATM    4  C   UNK N   1      32.663  21.071  -4.755  0.00  0.00     0.146 C 
BRANCH   4   5
HETATM    5  N   UNK N   1      31.328  21.438  -4.309  0.00  0.00    -0.312 N 
HETATM    6  C   UNK N   1      30.276  21.288  -5.264  0.00  0.00     0.050 C 
HETATM    7  C   UNK N   1      29.267  22.289  -5.511  0.00  0.00     0.020 C 
HETATM    8  C   UNK N   1      30.445  20.239  -6.193  0.00  0.00     0.032 C 
HETATM    9  C   UNK N   1      28.864  23.461  -4.606  0.00  0.00     0.056 C 
HETATM   10  C   UNK N   1      28.715  22.256  -6.785  0.00  0.00     0.040 C 
HETATM   11  N   UNK N   1      29.241  23.502  -3.368  0.00  0.00    -0.355 N 
HETATM   12  C   UNK N   1      29.897  22.491  -2.589  0.00  0.00     0.312 C 
ATOM     13  HN  UNK N   1      29.043  24.374  -2.878  1.00  0.00     0.162 HD
HETATM   14  C   UNK N   1      31.215  22.064  -3.115  0.00  0.00     0.273 C 
HETATM   15  O   UNK N   1      32.207  22.207  -2.411  0.00  0.00    -0.268 OA
HETATM   16  C   UNK N   1      29.000  21.285  -7.734  0.00  0.00     0.035 C 
HETATM   17 Cl   UNK N   1      28.462  21.480  -9.380  0.00  0.00    -0.084 Cl
HETATM   18  C   UNK N   1      29.803  20.222  -7.407  0.00  0.00     0.026 C 
BRANCH   9  19
HETATM   19  C   UNK N   1      27.804  24.541  -4.949  0.00  0.00     0.030 A 
HETATM   20  C   UNK N   1      26.406  24.384  -5.282  0.00  0.00     0.128 A 
HETATM   21  F   UNK N   1      25.764  23.218  -5.443  0.00  0.00    -0.205 F 
HETATM   22  C   UNK N   1      25.582  25.503  -5.420  0.00  0.00     0.043 A 
HETATM   23  C   UNK N   1      26.072  26.789  -5.258  0.00  0.00     0.003 A 
HETATM   24  C   UNK N   1      27.412  26.978  -4.963  0.00  0.00     0.001 A 
HETATM   25  C   UNK N   1      28.254  25.878  -4.806  0.00  0.00     0.017 A 
ENDBRANCH   9  19
BRANCH  12  26
HETATM   26  O   UNK N   1      30.023  22.966  -1.281  0.00  0.00    -0.368 OA
HETATM   27  H   UNK N   1      29.258  23.359  -0.830  0.00  0.00     0.212 HD
ENDBRANCH  12  26
ENDBRANCH   4   5
ENDBRANCH   2   4
TORSDOF 4
ENDMDL
MODEL 2
REMARK VINA RESULT:      -7.0     12.668     15.201
REMARK  4 active torsions:
REMARK  status: ('A' for Active; 'I' for Inactive)
REMARK    1  A    between atoms: O_3  and  C_14 
REMARK    2  A    between atoms: N_5  and  C_11 
REMARK    3  A    between atoms: C_11  and  C_18 
REMARK    4  A    between atoms: C_12  and  C_17 
ROOT
HETATM    1  N   UNK N   1      25.096  15.003   6.812  0.00  0.00    -0.197 NA
HETATM    2  C   UNK N   1      27.533  15.739   6.276  0.00  0.00     0.144 C 
HETATM    3  C   UNK N   1      26.172  15.348   6.578  0.00  0.00     0.060 C 
ENDROOT
BRANCH   2   4
HETATM    4  C   UNK N   1      27.618  17.230   6.455  0.00  0.00     0.146 C 
BRANCH   4   5
HETATM    5  N   UNK N   1      28.854  17.639   7.105  0.00  0.00    -0.312 N 
HETATM    6  C   UNK N   1      30.048  17.522   6.329  0.00  0.00     0.050 C 
HETATM    7  C   UNK N   1      31.276  16.948   6.826  0.00  0.00     0.020 C 
HETATM    8  C   UNK N   1      29.890  17.706   4.939  0.00  0.00     0.032 C 
HETATM    9  C   UNK N   1      31.688  16.731   8.289  0.00  0.00     0.056 C 
HETATM   10  C   UNK N   1      32.097  16.399   5.850  0.00  0.00     0.040 C 
HETATM   11  N   UNK N   1      31.042  17.309   9.251  0.00  0.00    -0.355 N 
HETATM   12  C   UNK N   1      30.020  18.313   9.179  0.00  0.00     0.312 C 
ATOM     13  HN  UNK N   1      31.296  17.009  10.192  1.00  0.00     0.162 HD
HETATM   14  C   UNK N   1      28.808  17.908   8.431  0.00  0.00     0.273 C 
HETATM   15  O   UNK N   1      27.729  17.902   9.011  0.00  0.00    -0.268 OA
HETATM   16  C   UNK N   1      31.850  16.476   4.488  0.00  0.00     0.035 C 
HETATM   17 Cl   UNK N   1      32.795  15.534   3.367  0.00  0.00    -0.084 Cl
HETATM   18  C   UNK N   1      30.785  17.208   4.025  0.00  0.00     0.026 C 
BRANCH   9  19
HETATM   19  C   UNK N   1      33.002  16.059   8.764  0.00  0.00     0.030 A 
HETATM   20  C   UNK N   1      34.290  16.653   9.044  0.00  0.00     0.128 A 
HETATM   21  F   UNK N   1      34.619  17.940   8.854  0.00  0.00    -0.205 F 
HETATM   22  C   UNK N   1      35.316  15.887   9.602  0.00  0.00     0.043 A 
HETATM   23  C   UNK N   1      35.143  14.544   9.892  0.00  0.00     0.003 A 
HETATM   24  C   UNK N   1      33.931  13.935   9.614  0.00  0.00     0.001 A 
HETATM   25  C   UNK N   1      32.885  14.680   9.069  0.00  0.00     0.017 A 
ENDBRANCH   9  19
BRANCH  12  26
HETATM   26  O   UNK N   1      29.688  18.687  10.484  0.00  0.00    -0.368 OA
HETATM   27  H   UNK N   1      29.974  18.143  11.234  0.00  0.00     0.212 HD
ENDBRANCH  12  26
ENDBRANCH   4   5
ENDBRANCH   2   4
TORSDOF 4
ENDMDL
MODEL 3
REMARK VINA RESULT:      -7.0      1.389      1.729
REMARK  4 active torsions:
REMARK  status: ('A' for Active; 'I' for Inactive)
REMARK    1  A    between atoms: O_3  and  C_14 
REMARK    2  A    between atoms: N_5  and  C_11 
REMARK    3  A    between atoms: C_11  and  C_18 
REMARK    4  A    between atoms: C_12  and  C_17 
ROOT
HETATM    1  N   UNK N   1      34.205  21.221  -7.645  0.00  0.00    -0.197 NA
HETATM    2  C   UNK N   1      33.495  22.002  -5.268  0.00  0.00     0.144 C 
HETATM    3  C   UNK N   1      33.881  21.550  -6.588  0.00  0.00     0.060 C 
ENDROOT
BRANCH   2   4
HETATM    4  C   UNK N   1      32.711  20.889  -4.628  0.00  0.00     0.146 C 
BRANCH   4   5
HETATM    5  N   UNK N   1      31.371  21.307  -4.245  0.00  0.00    -0.312 N 
HETATM    6  C   UNK N   1      30.352  21.156  -5.234  0.00  0.00     0.050 C 
HETATM    7  C   UNK N   1      29.382  22.177  -5.549  0.00  0.00     0.020 C 
HETATM    8  C   UNK N   1      30.525  20.075  -6.124  0.00  0.00     0.032 C 
HETATM    9  C   UNK N   1      28.980  23.388  -4.696  0.00  0.00     0.056 C 
HETATM   10  C   UNK N   1      28.877  22.120  -6.842  0.00  0.00     0.040 C 
HETATM   11  N   UNK N   1      29.312  23.456  -3.446  0.00  0.00    -0.355 N 
HETATM   12  C   UNK N   1      29.909  22.453  -2.613  0.00  0.00     0.312 C 
ATOM     13  HN  UNK N   1      29.121  24.348  -2.990  1.00  0.00     0.162 HD
HETATM   14  C   UNK N   1      31.232  21.973  -3.074  0.00  0.00     0.273 C 
HETATM   15  O   UNK N   1      32.201  22.110  -2.338  0.00  0.00    -0.268 OA
HETATM   16  C   UNK N   1      29.169  21.113  -7.749  0.00  0.00     0.035 C 
HETATM   17 Cl   UNK N   1      28.699  21.270  -9.420  0.00  0.00    -0.084 Cl
HETATM   18  C   UNK N   1      29.929  20.038  -7.360  0.00  0.00     0.026 C 
BRANCH   9  19
HETATM   19  C   UNK N   1      27.965  24.485  -5.111  0.00  0.00     0.030 A 
HETATM   20  C   UNK N   1      28.180  25.696  -5.871  0.00  0.00     0.128 A 
HETATM   21  F   UNK N   1      29.365  26.151  -6.304  0.00  0.00    -0.205 F 
HETATM   22  C   UNK N   1      27.098  26.487  -6.262  0.00  0.00     0.043 A 
HETATM   23  C   UNK N   1      25.796  26.152  -5.927  0.00  0.00     0.003 A 
HETATM   24  C   UNK N   1      25.555  25.013  -5.178  0.00  0.00     0.001 A 
HETATM   25  C   UNK N   1      26.616  24.197  -4.787  0.00  0.00     0.017 A 
ENDBRANCH   9  19
BRANCH  12  26
HETATM   26  O   UNK N   1      29.999  22.965  -1.315  0.00  0.00    -0.368 OA
HETATM   27  H   UNK N   1      29.683  22.441  -0.562  0.00  0.00     0.212 HD
ENDBRANCH  12  26
ENDBRANCH   4   5
ENDBRANCH   2   4
TORSDOF 4
ENDMDL
MODEL 4
REMARK VINA RESULT:      -6.9      4.252      7.306
REMARK  4 active torsions:
REMARK  status: ('A' for Active; 'I' for Inactive)
REMARK    1  A    between atoms: O_3  and  C_14 
REMARK    2  A    between atoms: N_5  and  C_11 
REMARK    3  A    between atoms: C_11  and  C_18 
REMARK    4  A    between atoms: C_12  and  C_17 
ROOT
HETATM    1  N   UNK N   1      27.060  26.847 -11.758  0.00  0.00    -0.197 NA
HETATM    2  C   UNK N   1      27.054  26.690  -9.161  0.00  0.00     0.144 C 
HETATM    3  C   UNK N   1      27.040  26.769 -10.607  0.00  0.00     0.060 C 
ENDROOT
BRANCH   2   4
HETATM    4  C   UNK N   1      25.756  26.061  -8.736  0.00  0.00     0.146 C 
BRANCH   4   5
HETATM    5  N   UNK N   1      25.941  25.065  -7.692  0.00  0.00    -0.312 N 
HETATM    6  C   UNK N   1      25.936  25.546  -6.347  0.00  0.00     0.050 C 
HETATM    7  C   UNK N   1      26.907  25.158  -5.352  0.00  0.00     0.020 C 
HETATM    8  C   UNK N   1      25.121  26.673  -6.108  0.00  0.00     0.032 C 
HETATM    9  C   UNK N   1      27.834  23.935  -5.369  0.00  0.00     0.056 C 
HETATM   10  C   UNK N   1      27.113  26.093  -4.346  0.00  0.00     0.040 C 
HETATM   11  N   UNK N   1      27.632  22.963  -6.201  0.00  0.00    -0.355 N 
HETATM   12  C   UNK N   1      26.520  22.740  -7.078  0.00  0.00     0.312 C 
ATOM     13  HN  UNK N   1      28.367  22.257  -6.236  1.00  0.00     0.162 HD
HETATM   14  C   UNK N   1      26.292  23.814  -8.072  0.00  0.00     0.273 C 
HETATM   15  O   UNK N   1      26.339  23.536  -9.265  0.00  0.00    -0.268 OA
HETATM   16  C   UNK N   1      26.385  27.265  -4.209  0.00  0.00     0.035 C 
HETATM   17 Cl   UNK N   1      26.894  28.490  -3.078  0.00  0.00    -0.084 Cl
HETATM   18  C   UNK N   1      25.326  27.516  -5.044  0.00  0.00     0.026 C 
BRANCH   9  19
HETATM   19  C   UNK N   1      28.898  23.596  -4.293  0.00  0.00     0.030 A 
HETATM   20  C   UNK N   1      28.738  23.412  -2.868  0.00  0.00     0.128 A 
HETATM   21  F   UNK N   1      27.603  23.590  -2.176  0.00  0.00    -0.205 F 
HETATM   22  C   UNK N   1      29.808  22.967  -2.088  0.00  0.00     0.043 A 
HETATM   23  C   UNK N   1      31.049  22.703  -2.642  0.00  0.00     0.003 A 
HETATM   24  C   UNK N   1      31.246  22.893  -4.000  0.00  0.00     0.001 A 
HETATM   25  C   UNK N   1      30.191  23.322  -4.804  0.00  0.00     0.017 A 
ENDBRANCH   9  19
BRANCH  12  26
HETATM   26  O   UNK N   1      26.712  21.513  -7.718  0.00  0.00    -0.368 OA
HETATM   27  H   UNK N   1      26.080  21.210  -8.390  0.00  0.00     0.212 HD
ENDBRANCH  12  26
ENDBRANCH   4   5
ENDBRANCH   2   4
TORSDOF 4
ENDMDL
MODEL 5
REMARK VINA RESULT:      -6.9     12.370     13.842
REMARK  4 active torsions:
REMARK  status: ('A' for Active; 'I' for Inactive)
REMARK    1  A    between atoms: O_3  and  C_14 
REMARK    2  A    between atoms: N_5  and  C_11 
REMARK    3  A    between atoms: C_11  and  C_18 
REMARK    4  A    between atoms: C_12  and  C_17 
ROOT
HETATM    1  N   UNK N   1      23.878  11.382   6.750  0.00  0.00    -0.197 NA
HETATM    2  C   UNK N   1      23.102  13.742   7.522  0.00  0.00     0.144 C 
HETATM    3  C   UNK N   1      23.518  12.427   7.081  0.00  0.00     0.060 C 
ENDROOT
BRANCH   2   4
HETATM    4  C   UNK N   1      21.782  14.035   6.863  0.00  0.00     0.146 C 
BRANCH   4   5
HETATM    5  N   UNK N   1      21.779  15.320   6.179  0.00  0.00    -0.312 N 
HETATM    6  C   UNK N   1      22.308  15.334   4.852  0.00  0.00     0.050 C 
HETATM    7  C   UNK N   1      23.235  16.328   4.368  0.00  0.00     0.020 C 
HETATM    8  C   UNK N   1      22.130  14.144   4.115  0.00  0.00     0.032 C 
HETATM    9  C   UNK N   1      23.524  17.713   4.963  0.00  0.00     0.056 C 
HETATM   10  C   UNK N   1      24.056  15.901   3.332  0.00  0.00     0.040 C 
HETATM   11  N   UNK N   1      22.734  18.231   5.848  0.00  0.00    -0.355 N 
HETATM   12  C   UNK N   1      21.454  17.768   6.299  0.00  0.00     0.312 C 
ATOM     13  HN  UNK N   1      23.070  19.090   6.285  1.00  0.00     0.162 HD
HETATM   14  C   UNK N   1      21.465  16.417   6.907  0.00  0.00     0.273 C 
HETATM   15  O   UNK N   1      21.097  16.288   8.068  0.00  0.00    -0.268 OA
HETATM   16  C   UNK N   1      23.949  14.666   2.710  0.00  0.00     0.035 C 
HETATM   17 Cl   UNK N   1      25.186  14.126   1.608  0.00  0.00    -0.084 Cl
HETATM   18  C   UNK N   1      22.925  13.816   3.045  0.00  0.00     0.026 C 
BRANCH   9  19
HETATM   19  C   UNK N   1      24.574  18.722   4.427  0.00  0.00     0.030 A 
HETATM   20  C   UNK N   1      25.997  18.786   4.675  0.00  0.00     0.128 A 
HETATM   21  F   UNK N   1      26.684  17.999   5.516  0.00  0.00    -0.205 F 
HETATM   22  C   UNK N   1      26.795  19.696   3.978  0.00  0.00     0.043 A 
HETATM   23  C   UNK N   1      26.257  20.568   3.046  0.00  0.00     0.003 A 
HETATM   24  C   UNK N   1      24.894  20.551   2.801  0.00  0.00     0.001 A 
HETATM   25  C   UNK N   1      24.076  19.644   3.473  0.00  0.00     0.017 A 
ENDBRANCH   9  19
BRANCH  12  26
HETATM   26  O   UNK N   1      20.947  18.707   7.202  0.00  0.00    -0.368 OA
HETATM   27  H   UNK N   1      21.096  18.596   8.155  0.00  0.00     0.212 HD
ENDBRANCH  12  26
ENDBRANCH   4   5
ENDBRANCH   2   4
TORSDOF 4
ENDMDL
MODEL 6
REMARK VINA RESULT:      -6.9     10.836     12.638
REMARK  4 active torsions:
REMARK  status: ('A' for Active; 'I' for Inactive)
REMARK    1  A    between atoms: O_3  and  C_14 
REMARK    2  A    between atoms: N_5  and  C_11 
REMARK    3  A    between atoms: C_11  and  C_18 
REMARK    4  A    between atoms: C_12  and  C_17 
ROOT
HETATM    1  N   UNK N   1      32.398  13.710   8.831  0.00  0.00    -0.197 NA
HETATM    2  C   UNK N   1      32.973  14.245   6.350  0.00  0.00     0.144 C 
HETATM    3  C   UNK N   1      32.659  13.965   7.736  0.00  0.00     0.060 C 
ENDROOT
BRANCH   2   4
HETATM    4  C   UNK N   1      33.522  15.644   6.292  0.00  0.00     0.146 C 
BRANCH   4   5
HETATM    5  N   UNK N   1      32.652  16.548   5.556  0.00  0.00    -0.312 N 
HETATM    6  C   UNK N   1      31.689  17.270   6.326  0.00  0.00     0.050 C 
HETATM    7  C   UNK N   1      30.302  17.406   5.952  0.00  0.00     0.020 C 
HETATM    8  C   UNK N   1      32.079  17.586   7.645  0.00  0.00     0.032 C 
HETATM    9  C   UNK N   1      29.676  17.193   4.567  0.00  0.00     0.056 C 
HETATM   10  C   UNK N   1      29.431  17.607   7.015  0.00  0.00     0.040 C 
HETATM   11  N   UNK N   1      30.419  17.117   3.509  0.00  0.00    -0.355 N 
HETATM   12  C   UNK N   1      31.825  17.363   3.373  0.00  0.00     0.312 C 
ATOM     13  HN  UNK N   1      29.936  16.843   2.653  1.00  0.00     0.162 HD
HETATM   14  C   UNK N   1      32.689  16.493   4.204  0.00  0.00     0.273 C 
HETATM   15  O   UNK N   1      33.512  15.774   3.651  0.00  0.00    -0.268 OA
HETATM   16  C   UNK N   1      29.832  17.782   8.331  0.00  0.00     0.035 C 
HETATM   17 Cl   UNK N   1      28.659  17.763   9.619  0.00  0.00    -0.084 Cl
HETATM   18  C   UNK N   1      31.168  17.858   8.635  0.00  0.00     0.026 C 
BRANCH   9  19
HETATM   19  C   UNK N   1      28.164  17.303   4.234  0.00  0.00     0.030 A 
HETATM   20  C   UNK N   1      27.340  18.481   4.081  0.00  0.00     0.128 A 
HETATM   21  F   UNK N   1      27.733  19.746   4.289  0.00  0.00    -0.205 F 
HETATM   22  C   UNK N   1      26.021  18.367   3.638  0.00  0.00     0.043 A 
HETATM   23  C   UNK N   1      25.457  17.137   3.346  0.00  0.00     0.003 A 
HETATM   24  C   UNK N   1      26.209  15.985   3.505  0.00  0.00     0.001 A 
HETATM   25  C   UNK N   1      27.533  16.070   3.933  0.00  0.00     0.017 A 
ENDBRANCH   9  19
BRANCH  12  26
HETATM   26  O   UNK N   1      32.158  17.236   2.021  0.00  0.00    -0.368 OA
HETATM   27  H   UNK N   1      31.936  16.423   1.540  0.00  0.00     0.212 HD
ENDBRANCH  12  26
ENDBRANCH   4   5
ENDBRANCH   2   4
TORSDOF 4
ENDMDL
MODEL 7
REMARK VINA RESULT:      -6.9     10.740     12.037
REMARK  4 active torsions:
REMARK  status: ('A' for Active; 'I' for Inactive)
REMARK    1  A    between atoms: O_3  and  C_14 
REMARK    2  A    between atoms: N_5  and  C_11 
REMARK    3  A    between atoms: C_11  and  C_18 
REMARK    4  A    between atoms: C_12  and  C_17 
ROOT
HETATM    1  N   UNK N   1      33.093  13.805   7.485  0.00  0.00    -0.197 NA
HETATM    2  C   UNK N   1      31.868  15.968   8.253  0.00  0.00     0.144 C 
HETATM    3  C   UNK N   1      32.546  14.769   7.807  0.00  0.00     0.060 C 
ENDROOT
BRANCH   2   4
HETATM    4  C   UNK N   1      31.392  16.693   7.025  0.00  0.00     0.146 C 
BRANCH   4   5
HETATM    5  N   UNK N   1      29.948  16.876   7.017  0.00  0.00    -0.312 N 
HETATM    6  C   UNK N   1      29.231  16.219   5.971  0.00  0.00     0.050 C 
HETATM    7  C   UNK N   1      28.204  16.854   5.180  0.00  0.00     0.020 C 
HETATM    8  C   UNK N   1      29.788  15.002   5.524  0.00  0.00     0.032 C 
HETATM    9  C   UNK N   1      27.413  18.127   5.513  0.00  0.00     0.056 C 
HETATM   10  C   UNK N   1      28.034  16.318   3.910  0.00  0.00     0.040 C 
HETATM   11  N   UNK N   1      27.426  18.620   6.710  0.00  0.00    -0.355 N 
HETATM   12  C   UNK N   1      27.971  18.061   7.912  0.00  0.00     0.312 C 
ATOM     13  HN  UNK N   1      26.985  19.534   6.811  1.00  0.00     0.162 HD
HETATM   14  C   UNK N   1      29.427  17.794   7.865  0.00  0.00     0.273 C 
HETATM   15  O   UNK N   1      30.159  18.355   8.671  0.00  0.00    -0.268 OA
HETATM   16  C   UNK N   1      28.697  15.193   3.443  0.00  0.00     0.035 C 
HETATM   17 Cl   UNK N   1      28.613  14.759   1.757  0.00  0.00    -0.084 Cl
HETATM   18  C   UNK N   1      29.515  14.480   4.284  0.00  0.00     0.026 C 
BRANCH   9  19
HETATM   19  C   UNK N   1      26.354  18.794   4.597  0.00  0.00     0.030 A 
HETATM   20  C   UNK N   1      24.924  18.589   4.544  0.00  0.00     0.128 A 
HETATM   21  F   UNK N   1      24.234  17.684   5.254  0.00  0.00    -0.205 F 
HETATM   22  C   UNK N   1      24.123  19.400   3.737  0.00  0.00     0.043 A 
HETATM   23  C   UNK N   1      24.664  20.408   2.957  0.00  0.00     0.003 A 
HETATM   24  C   UNK N   1      26.033  20.617   2.963  0.00  0.00     0.001 A 
HETATM   25  C   UNK N   1      26.855  19.831   3.770  0.00  0.00     0.017 A 
ENDBRANCH   9  19
BRANCH  12  26
HETATM   26  O   UNK N   1      27.666  18.924   8.969  0.00  0.00    -0.368 OA
HETATM   27  H   UNK N   1      26.851  18.798   9.481  0.00  0.00     0.212 HD
ENDBRANCH  12  26
ENDBRANCH   4   5
ENDBRANCH   2   4
TORSDOF 4
ENDMDL
MODEL 8
REMARK VINA RESULT:      -6.6     10.203     12.966
REMARK  4 active torsions:
REMARK  status: ('A' for Active; 'I' for Inactive)
REMARK    1  A    between atoms: O_3  and  C_14 
REMARK    2  A    between atoms: N_5  and  C_11 
REMARK    3  A    between atoms: C_11  and  C_18 
REMARK    4  A    between atoms: C_12  and  C_17 
ROOT
HETATM    1  N   UNK N   1      25.501  20.770   2.497  0.00  0.00    -0.197 NA
HETATM    2  C   UNK N   1      26.987  19.694   4.341  0.00  0.00     0.144 C 
HETATM    3  C   UNK N   1      26.146  20.279   3.318  0.00  0.00     0.060 C 
ENDROOT
BRANCH   2   4
HETATM    4  C   UNK N   1      26.264  18.488   4.876  0.00  0.00     0.146 C 
BRANCH   4   5
HETATM    5  N   UNK N   1      26.985  17.252   4.615  0.00  0.00    -0.312 N 
HETATM    6  C   UNK N   1      28.042  16.929   5.521  0.00  0.00     0.050 C 
HETATM    7  C   UNK N   1      29.348  16.481   5.103  0.00  0.00     0.020 C 
HETATM    8  C   UNK N   1      27.859  17.371   6.849  0.00  0.00     0.032 C 
HETATM    9  C   UNK N   1      29.751  15.893   3.743  0.00  0.00     0.056 C 
HETATM   10  C   UNK N   1      30.372  16.762   5.998  0.00  0.00     0.040 C 
HETATM   11  N   UNK N   1      28.851  15.496   2.902  0.00  0.00    -0.355 N 
HETATM   12  C   UNK N   1      27.435  15.359   3.089  0.00  0.00     0.312 C 
ATOM     13  HN  UNK N   1      29.198  15.244   1.976  1.00  0.00     0.162 HD
HETATM   14  C   UNK N   1      26.735  16.613   3.447  0.00  0.00     0.273 C 
HETATM   15  O   UNK N   1      25.852  17.030   2.708  0.00  0.00    -0.268 OA
HETATM   16  C   UNK N   1      30.181  17.323   7.252  0.00  0.00     0.035 C 
HETATM   17 Cl   UNK N   1      31.544  17.876   8.186  0.00  0.00    -0.084 Cl
HETATM   18  C   UNK N   1      28.909  17.550   7.715  0.00  0.00     0.026 C 
BRANCH   9  19
HETATM   19  C   UNK N   1      31.187  15.476   3.332  0.00  0.00     0.030 A 
HETATM   20  C   UNK N   1      32.359  16.297   3.123  0.00  0.00     0.128 A 
HETATM   21  F   UNK N   1      32.396  17.636   3.169  0.00  0.00    -0.205 F 
HETATM   22  C   UNK N   1      33.603  15.706   2.892  0.00  0.00     0.043 A 
HETATM   23  C   UNK N   1      33.756  14.331   2.842  0.00  0.00     0.003 A 
HETATM   24  C   UNK N   1      32.650  13.514   3.013  0.00  0.00     0.001 A 
HETATM   25  C   UNK N   1      31.399  14.077   3.259  0.00  0.00     0.017 A 
ENDBRANCH   9  19
BRANCH  12  26
HETATM   26  O   UNK N   1      26.895  14.813   1.921  0.00  0.00    -0.368 OA
HETATM   27  H   UNK N   1      26.425  13.964   1.953  0.00  0.00     0.212 HD
ENDBRANCH  12  26
ENDBRANCH   4   5
ENDBRANCH   2   4
TORSDOF 4
ENDMDL
MODEL 9
REMARK VINA RESULT:      -6.6     20.028     22.319
REMARK  4 active torsions:
REMARK  status: ('A' for Active; 'I' for Inactive)
REMARK    1  A    between atoms: O_3  and  C_14 
REMARK    2  A    between atoms: N_5  and  C_11 
REMARK    3  A    between atoms: C_11  and  C_18 
REMARK    4  A    between atoms: C_12  and  C_17 
ROOT
HETATM    1  N   UNK N   1      34.277   8.377   9.888  0.00  0.00    -0.197 NA
HETATM    2  C   UNK N   1      34.512  10.898  10.487  0.00  0.00     0.144 C 
HETATM    3  C   UNK N   1      34.398   9.495  10.145  0.00  0.00     0.060 C 
ENDROOT
BRANCH   2   4
HETATM    4  C   UNK N   1      35.820  11.388   9.930  0.00  0.00     0.146 C 
BRANCH   4   5
HETATM    5  N   UNK N   1      36.479  12.333  10.818  0.00  0.00    -0.312 N 
HETATM    6  C   UNK N   1      37.135  11.781  11.960  0.00  0.00     0.050 C 
HETATM    7  C   UNK N   1      37.008  12.313  13.295  0.00  0.00     0.020 C 
HETATM    8  C   UNK N   1      37.673  10.488  11.785  0.00  0.00     0.032 C 
HETATM    9  C   UNK N   1      36.527  13.711  13.708  0.00  0.00     0.056 C 
HETATM   10  C   UNK N   1      37.206  11.387  14.311  0.00  0.00     0.040 C 
HETATM   11  N   UNK N   1      36.432  14.663  12.835  0.00  0.00    -0.355 N 
HETATM   12  C   UNK N   1      36.873  14.686  11.471  0.00  0.00     0.312 C 
ATOM     13  HN  UNK N   1      35.982  15.516  13.165  1.00  0.00     0.162 HD
HETATM   14  C   UNK N   1      36.259  13.652  10.605  0.00  0.00     0.273 C 
HETATM   15  O   UNK N   1      35.610  14.007   9.629  0.00  0.00    -0.268 OA
HETATM   16  C   UNK N   1      37.606  10.076  14.105  0.00  0.00     0.035 C 
HETATM   17 Cl   UNK N   1      37.571   8.928  15.415  0.00  0.00    -0.084 Cl
HETATM   18  C   UNK N   1      37.925   9.647  12.841  0.00  0.00     0.026 C 
BRANCH   9  19
HETATM   19  C   UNK N   1      36.360  14.212  15.167  0.00  0.00     0.030 A 
HETATM   20  C   UNK N   1      35.507  13.708  16.220  0.00  0.00     0.128 A 
HETATM   21  F   UNK N   1      34.604  12.725  16.095  0.00  0.00    -0.205 F 
HETATM   22  C   UNK N   1      35.610  14.216  17.517  0.00  0.00     0.043 A 
HETATM   23  C   UNK N   1      36.513  15.217  17.834  0.00  0.00     0.003 A 
HETATM   24  C   UNK N   1      37.329  15.741  16.845  0.00  0.00     0.001 A 
HETATM   25  C   UNK N   1      37.256  15.243  15.545  0.00  0.00     0.017 A 
ENDBRANCH   9  19
BRANCH  12  26
HETATM   26  O   UNK N   1      36.628  15.962  10.957  0.00  0.00    -0.368 OA
HETATM   27  H   UNK N   1      36.455  16.704  11.559  0.00  0.00     0.212 HD
ENDBRANCH  12  26
ENDBRANCH   4   5
ENDBRANCH   2   4
TORSDOF 4
ENDMDL
