REMARK  2 active torsions:
REMARK  status: ('A' for Active; 'I' for Inactive)
REMARK    1  A    between atoms: N_7  and  C_15 
REMARK    2  A    between atoms: C_10  and  C_11 
ROOT
HETATM    1  O   UNK N   1       1.549   4.531   0.000  0.00  0.00    -0.271 OA
HETATM    2  N   UNK N   1       1.263   2.356  -0.000  0.00  0.00    -0.325 N 
HETATM    3  N   UNK N   1       4.353   2.208   0.000  0.00  0.00    -0.380 N 
ATOM      4  HN  UNK N   1       5.351   2.418   0.000  1.00  0.00     0.160 HD
HETATM    5  C   UNK N   1       2.752   0.306   0.000  0.00  0.00     0.020 A 
HETATM    6  C   UNK N   1       1.484   0.963  -0.000  0.00  0.00     0.047 A 
HETATM    7  C   UNK N   1       4.134   0.937   0.000  0.00  0.00     0.051 A 
HETATM    8  C   UNK N   1       2.724  -1.094   0.000  0.00  0.00     0.052 A 
HETATM    9  C   UNK N   1       0.309   0.184  -0.000  0.00  0.00     0.033 A 
HETATM   10  C   UNK N   1       3.559   3.410   0.000  0.00  0.00     0.223 A 
HETATM   11  C   UNK N   1       1.569  -1.857  -0.000  0.00  0.00     0.103 A 
HETATM   12  C   UNK N   1       2.073   3.430   0.000  0.00  0.00     0.239 A 
HETATM   13  C   UNK N   1       0.343  -1.208  -0.000  0.00  0.00     0.038 A 
HETATM   14  H   UNK N   1       0.307   2.594  -0.000  0.00  0.00     0.169 HD
ENDROOT
BRANCH   7  15
HETATM   15  C   UNK N   1       5.395   0.078   0.000  0.00  0.00    -0.009 A 
HETATM   16  C   UNK N   1       6.655   0.708   0.000  0.00  0.00     0.014 A 
HETATM   17  C   UNK N   1       7.838  -0.042   0.000  0.00  0.00     0.001 A 
HETATM   18  C   UNK N   1       7.785  -1.436  -0.000  0.00  0.00     0.000 A 
HETATM   19  C   UNK N   1       6.552  -2.082  -0.000  0.00  0.00     0.001 A 
HETATM   20  C   UNK N   1       5.378  -1.331  -0.000  0.00  0.00     0.014 A 
ENDBRANCH   7  15
BRANCH  11  21
HETATM   21  N   UNK N   1       1.661  -3.276  -0.000  0.00  0.00    -0.116 N 
HETATM   22  O   UNK N   1       0.570  -4.013  -0.000  0.00  0.00    -0.532 OA
HETATM   23  O   UNK N   1       2.729  -3.810   0.000  0.00  0.00    -0.532 OA
ENDBRANCH  11  21
TORSDOF 2
