MODEL 1
REMARK VINA RESULT:      -7.0      0.000      0.000
REMARK  2 active torsions:
REMARK  status: ('A' for Active; 'I' for Inactive)
REMARK    1  A    between atoms: N_7  and  C_15 
REMARK    2  A    between atoms: C_10  and  C_11 
ROOT
HETATM    1  O   UNK N   1      32.565  15.260   3.040  0.00  0.00    -0.271 OA
HETATM    2  N   UNK N   1      31.805  15.923   4.988  0.00  0.00    -0.325 N 
HETATM    3  N   UNK N   1      29.508  17.211   3.366  0.00  0.00    -0.380 N 
ATOM      4  HN  UNK N   1      28.880  17.534   2.630  1.00  0.00     0.160 HD
HETATM    5  C   UNK N   1      29.819  17.251   5.832  0.00  0.00     0.020 A 
HETATM    6  C   UNK N   1      31.027  16.509   6.008  0.00  0.00     0.047 A 
HETATM    7  C   UNK N   1      29.101  17.577   4.534  0.00  0.00     0.051 A 
HETATM    8  C   UNK N   1      29.218  17.740   6.998  0.00  0.00     0.052 A 
HETATM    9  C   UNK N   1      31.530  16.318   7.311  0.00  0.00     0.033 A 
HETATM   10  C   UNK N   1      30.615  16.464   2.826  0.00  0.00     0.223 A 
HETATM   11  C   UNK N   1      29.713  17.551   8.277  0.00  0.00     0.103 A 
HETATM   12  C   UNK N   1      31.697  15.863   3.649  0.00  0.00     0.239 A 
HETATM   13  C   UNK N   1      30.887  16.830   8.435  0.00  0.00     0.038 A 
HETATM   14  H   UNK N   1      32.602  15.456   5.332  0.00  0.00     0.169 HD
ENDROOT
BRANCH   7  15
HETATM   15  C   UNK N   1      27.809  18.388   4.528  0.00  0.00    -0.009 A 
HETATM   16  C   UNK N   1      27.881  19.795   4.521  0.00  0.00     0.014 A 
HETATM   17  C   UNK N   1      26.720  20.579   4.515  0.00  0.00     0.001 A 
HETATM   18  C   UNK N   1      25.464  19.971   4.516  0.00  0.00     0.000 A 
HETATM   19  C   UNK N   1      25.366  18.583   4.523  0.00  0.00     0.001 A 
HETATM   20  C   UNK N   1      26.525  17.808   4.529  0.00  0.00     0.014 A 
ENDBRANCH   7  15
BRANCH  11  21
HETATM   21  N   UNK N   1      29.017  18.096   9.391  0.00  0.00    -0.116 N 
HETATM   22  O   UNK N   1      27.735  17.847   9.559  0.00  0.00    -0.532 OA
HETATM   23  O   UNK N   1      29.590  18.782  10.182  0.00  0.00    -0.532 OA
ENDBRANCH  11  21
TORSDOF 2
ENDMDL
MODEL 2
REMARK VINA RESULT:      -6.8     10.862     12.647
REMARK  2 active torsions:
REMARK  status: ('A' for Active; 'I' for Inactive)
REMARK    1  A    between atoms: N_7  and  C_15 
REMARK    2  A    between atoms: C_10  and  C_11 
ROOT
HETATM    1  O   UNK N   1      29.685  18.735  -8.741  0.00  0.00    -0.271 OA
HETATM    2  N   UNK N   1      30.152  19.889  -6.935  0.00  0.00    -0.325 N 
HETATM    3  N   UNK N   1      27.858  21.755  -7.845  0.00  0.00    -0.380 N 
ATOM      4  HN  UNK N   1      27.088  22.201  -8.341  1.00  0.00     0.160 HD
HETATM    5  C   UNK N   1      29.277  21.987  -5.816  0.00  0.00     0.020 A 
HETATM    6  C   UNK N   1      30.149  20.860  -5.912  0.00  0.00     0.047 A 
HETATM    7  C   UNK N   1      28.170  22.399  -6.772  0.00  0.00     0.051 A 
HETATM    8  C   UNK N   1      29.461  22.820  -4.706  0.00  0.00     0.052 A 
HETATM    9  C   UNK N   1      31.118  20.657  -4.909  0.00  0.00     0.033 A 
HETATM   10  C   UNK N   1      28.312  20.570  -8.527  0.00  0.00     0.223 A 
HETATM   11  C   UNK N   1      30.414  22.619  -3.722  0.00  0.00     0.103 A 
HETATM   12  C   UNK N   1      29.421  19.703  -8.049  0.00  0.00     0.239 A 
HETATM   13  C   UNK N   1      31.255  21.520  -3.825  0.00  0.00     0.038 A 
HETATM   14  H   UNK N   1      30.839  19.195  -6.804  0.00  0.00     0.169 HD
ENDROOT
BRANCH   7  15
HETATM   15  C   UNK N   1      27.327  23.645  -6.515  0.00  0.00    -0.009 A 
HETATM   16  C   UNK N   1      27.592  24.817  -7.250  0.00  0.00     0.014 A 
HETATM   17  C   UNK N   1      26.842  25.983  -7.047  0.00  0.00     0.001 A 
HETATM   18  C   UNK N   1      25.814  26.000  -6.104  0.00  0.00     0.000 A 
HETATM   19  C   UNK N   1      25.534  24.855  -5.364  0.00  0.00     0.001 A 
HETATM   20  C   UNK N   1      26.282  23.697  -5.571  0.00  0.00     0.014 A 
ENDBRANCH   7  15
BRANCH  11  21
HETATM   21  N   UNK N   1      30.510  23.532  -2.636  0.00  0.00    -0.116 N 
HETATM   22  O   UNK N   1      30.374  23.108  -1.397  0.00  0.00    -0.532 OA
HETATM   23  O   UNK N   1      30.715  24.690  -2.840  0.00  0.00    -0.532 OA
ENDBRANCH  11  21
TORSDOF 2
ENDMDL
MODEL 3
REMARK VINA RESULT:      -6.7     10.716     12.599
REMARK  2 active torsions:
REMARK  status: ('A' for Active; 'I' for Inactive)
REMARK    1  A    between atoms: N_7  and  C_15 
REMARK    2  A    between atoms: C_10  and  C_11 
ROOT
HETATM    1  O   UNK N   1      28.258  20.567  -9.579  0.00  0.00    -0.271 OA
HETATM    2  N   UNK N   1      29.283  20.741  -7.647  0.00  0.00    -0.325 N 
HETATM    3  N   UNK N   1      27.597  23.307  -7.274  0.00  0.00    -0.380 N 
ATOM      4  HN  UNK N   1      26.950  24.088  -7.386  1.00  0.00     0.160 HD
HETATM    5  C   UNK N   1      29.255  22.349  -5.690  0.00  0.00     0.020 A 
HETATM    6  C   UNK N   1      29.711  21.184  -6.378  0.00  0.00     0.047 A 
HETATM    7  C   UNK N   1      28.225  23.366  -6.149  0.00  0.00     0.051 A 
HETATM    8  C   UNK N   1      29.827  22.589  -4.434  0.00  0.00     0.052 A 
HETATM    9  C   UNK N   1      30.683  20.365  -5.770  0.00  0.00     0.033 A 
HETATM   10  C   UNK N   1      27.568  22.429  -8.416  0.00  0.00     0.223 A 
HETATM   11  C   UNK N   1      30.782  21.783  -3.838  0.00  0.00     0.103 A 
HETATM   12  C   UNK N   1      28.399  21.204  -8.549  0.00  0.00     0.239 A 
HETATM   13  C   UNK N   1      31.216  20.654  -4.516  0.00  0.00     0.038 A 
HETATM   14  H   UNK N   1      29.728  19.910  -7.935  0.00  0.00     0.169 HD
ENDROOT
BRANCH   7  15
HETATM   15  C   UNK N   1      27.854  24.564  -5.280  0.00  0.00    -0.009 A 
HETATM   16  C   UNK N   1      28.576  25.765  -5.421  0.00  0.00     0.014 A 
HETATM   17  C   UNK N   1      28.268  26.889  -4.643  0.00  0.00     0.001 A 
HETATM   18  C   UNK N   1      27.234  26.834  -3.709  0.00  0.00     0.000 A 
HETATM   19  C   UNK N   1      26.506  25.658  -3.551  0.00  0.00     0.001 A 
HETATM   20  C   UNK N   1      26.815  24.543  -4.327  0.00  0.00     0.014 A 
ENDBRANCH   7  15
BRANCH  11  21
HETATM   21  N   UNK N   1      31.293  22.126  -2.556  0.00  0.00    -0.116 N 
HETATM   22  O   UNK N   1      30.638  22.965  -1.782  0.00  0.00    -0.532 OA
HETATM   23  O   UNK N   1      32.321  21.654  -2.172  0.00  0.00    -0.532 OA
ENDBRANCH  11  21
TORSDOF 2
ENDMDL
MODEL 4
REMARK VINA RESULT:      -6.7     13.719     15.426
REMARK  2 active torsions:
REMARK  status: ('A' for Active; 'I' for Inactive)
REMARK    1  A    between atoms: N_7  and  C_15 
REMARK    2  A    between atoms: C_10  and  C_11 
ROOT
HETATM    1  O   UNK N   1      46.958  25.415   2.191  0.00  0.00    -0.271 OA
HETATM    2  N   UNK N   1      45.442  23.901   2.660  0.00  0.00    -0.325 N 
HETATM    3  N   UNK N   1      43.772  25.254   0.435  0.00  0.00    -0.380 N 
ATOM      4  HN  UNK N   1      43.430  25.854  -0.315  1.00  0.00     0.160 HD
HETATM    5  C   UNK N   1      43.126  23.298   1.826  0.00  0.00     0.020 A 
HETATM    6  C   UNK N   1      44.267  23.121   2.668  0.00  0.00     0.047 A 
HETATM    7  C   UNK N   1      42.912  24.345   0.747  0.00  0.00     0.051 A 
HETATM    8  C   UNK N   1      42.072  22.396   2.015  0.00  0.00     0.052 A 
HETATM    9  C   UNK N   1      44.264  22.076   3.615  0.00  0.00     0.033 A 
HETATM   10  C   UNK N   1      45.090  25.645   0.866  0.00  0.00     0.223 A 
HETATM   11  C   UNK N   1      42.071  21.371   2.946  0.00  0.00     0.103 A 
HETATM   12  C   UNK N   1      45.854  24.962   1.943  0.00  0.00     0.239 A 
HETATM   13  C   UNK N   1      43.184  21.209   3.758  0.00  0.00     0.038 A 
HETATM   14  H   UNK N   1      46.105  23.604   3.326  0.00  0.00     0.169 HD
ENDROOT
BRANCH   7  15
HETATM   15  C   UNK N   1      41.621  24.390  -0.065  0.00  0.00    -0.009 A 
HETATM   16  C   UNK N   1      40.656  25.371   0.234  0.00  0.00     0.014 A 
HETATM   17  C   UNK N   1      39.457  25.449  -0.486  0.00  0.00     0.001 A 
HETATM   18  C   UNK N   1      39.199  24.548  -1.519  0.00  0.00     0.000 A 
HETATM   19  C   UNK N   1      40.138  23.570  -1.834  0.00  0.00     0.001 A 
HETATM   20  C   UNK N   1      41.329  23.497  -1.115  0.00  0.00     0.014 A 
ENDBRANCH   7  15
BRANCH  11  21
HETATM   21  N   UNK N   1      40.941  20.514   3.050  0.00  0.00    -0.116 N 
HETATM   22  O   UNK N   1      39.869  20.735   2.318  0.00  0.00    -0.532 OA
HETATM   23  O   UNK N   1      40.956  19.587   3.802  0.00  0.00    -0.532 OA
ENDBRANCH  11  21
TORSDOF 2
ENDMDL
MODEL 5
REMARK VINA RESULT:      -6.7     11.852     14.119
REMARK  2 active torsions:
REMARK  status: ('A' for Active; 'I' for Inactive)
REMARK    1  A    between atoms: N_7  and  C_15 
REMARK    2  A    between atoms: C_10  and  C_11 
ROOT
HETATM    1  O   UNK N   1      24.711  23.062  -8.562  0.00  0.00    -0.271 OA
HETATM    2  N   UNK N   1      25.251  24.697  -7.203  0.00  0.00    -0.325 N 
HETATM    3  N   UNK N   1      27.531  22.826  -6.270  0.00  0.00    -0.380 N 
ATOM      4  HN  UNK N   1      28.179  22.049  -6.138  1.00  0.00     0.160 HD
HETATM    5  C   UNK N   1      27.029  25.117  -5.447  0.00  0.00     0.020 A 
HETATM    6  C   UNK N   1      25.889  25.487  -6.224  0.00  0.00     0.047 A 
HETATM    7  C   UNK N   1      27.809  23.814  -5.490  0.00  0.00     0.051 A 
HETATM    8  C   UNK N   1      27.489  26.070  -4.530  0.00  0.00     0.052 A 
HETATM    9  C   UNK N   1      25.309  26.757  -6.027  0.00  0.00     0.033 A 
HETATM   10  C   UNK N   1      26.546  22.529  -7.278  0.00  0.00     0.223 A 
HETATM   11  C   UNK N   1      26.918  27.317  -4.339  0.00  0.00     0.103 A 
HETATM   12  C   UNK N   1      25.467  23.463  -7.693  0.00  0.00     0.239 A 
HETATM   13  C   UNK N   1      25.811  27.665  -5.099  0.00  0.00     0.038 A 
HETATM   14  H   UNK N   1      24.480  25.148  -7.619  0.00  0.00     0.169 HD
ENDROOT
BRANCH   7  15
HETATM   15  C   UNK N   1      29.013  23.584  -4.581  0.00  0.00    -0.009 A 
HETATM   16  C   UNK N   1      30.310  23.742  -5.108  0.00  0.00     0.014 A 
HETATM   17  C   UNK N   1      31.444  23.540  -4.310  0.00  0.00     0.001 A 
HETATM   18  C   UNK N   1      31.303  23.177  -2.970  0.00  0.00     0.000 A 
HETATM   19  C   UNK N   1      30.032  23.015  -2.427  0.00  0.00     0.001 A 
HETATM   20  C   UNK N   1      28.907  23.217  -3.225  0.00  0.00     0.014 A 
ENDBRANCH   7  15
BRANCH  11  21
HETATM   21  N   UNK N   1      27.471  28.206  -3.377  0.00  0.00    -0.116 N 
HETATM   22  O   UNK N   1      28.769  28.427  -3.345  0.00  0.00    -0.532 OA
HETATM   23  O   UNK N   1      26.763  28.759  -2.591  0.00  0.00    -0.532 OA
ENDBRANCH  11  21
TORSDOF 2
ENDMDL
MODEL 6
REMARK VINA RESULT:      -6.5      2.460      4.983
REMARK  2 active torsions:
REMARK  status: ('A' for Active; 'I' for Inactive)
REMARK    1  A    between atoms: N_7  and  C_15 
REMARK    2  A    between atoms: C_10  and  C_11 
ROOT
HETATM    1  O   UNK N   1      25.809  19.429   5.227  0.00  0.00    -0.271 OA
HETATM    2  N   UNK N   1      27.391  18.679   6.548  0.00  0.00    -0.325 N 
HETATM    3  N   UNK N   1      28.795  17.791   3.938  0.00  0.00    -0.380 N 
ATOM      4  HN  UNK N   1      29.046  17.602   2.968  1.00  0.00     0.160 HD
HETATM    5  C   UNK N   1      29.616  17.499   6.267  0.00  0.00     0.020 A 
HETATM    6  C   UNK N   1      28.573  18.090   7.043  0.00  0.00     0.047 A 
HETATM    7  C   UNK N   1      29.698  17.367   4.755  0.00  0.00     0.051 A 
HETATM    8  C   UNK N   1      30.699  16.975   6.982  0.00  0.00     0.052 A 
HETATM    9  C   UNK N   1      28.693  18.111   8.448  0.00  0.00     0.033 A 
HETATM   10  C   UNK N   1      27.523  18.462   4.035  0.00  0.00     0.223 A 
HETATM   11  C   UNK N   1      30.815  16.996   8.361  0.00  0.00     0.103 A 
HETATM   12  C   UNK N   1      26.888  18.869   5.315  0.00  0.00     0.239 A 
HETATM   13  C   UNK N   1      29.796  17.573   9.105  0.00  0.00     0.038 A 
HETATM   14  H   UNK N   1      26.806  19.027   7.261  0.00  0.00     0.169 HD
ENDROOT
BRANCH   7  15
HETATM   15  C   UNK N   1      30.895  16.701   4.085  0.00  0.00    -0.009 A 
HETATM   16  C   UNK N   1      30.844  15.323   3.799  0.00  0.00     0.014 A 
HETATM   17  C   UNK N   1      31.920  14.671   3.184  0.00  0.00     0.001 A 
HETATM   18  C   UNK N   1      33.070  15.384   2.842  0.00  0.00     0.000 A 
HETATM   19  C   UNK N   1      33.145  16.747   3.114  0.00  0.00     0.001 A 
HETATM   20  C   UNK N   1      32.071  17.391   3.726  0.00  0.00     0.014 A 
ENDBRANCH   7  15
BRANCH  11  21
HETATM   21  N   UNK N   1      31.963  16.432   8.981  0.00  0.00    -0.116 N 
HETATM   22  O   UNK N   1      33.103  17.091   8.995  0.00  0.00    -0.532 OA
HETATM   23  O   UNK N   1      31.903  15.355   9.495  0.00  0.00    -0.532 OA
ENDBRANCH  11  21
TORSDOF 2
ENDMDL
MODEL 7
REMARK VINA RESULT:      -6.4      8.483     10.665
REMARK  2 active torsions:
REMARK  status: ('A' for Active; 'I' for Inactive)
REMARK    1  A    between atoms: N_7  and  C_15 
REMARK    2  A    between atoms: C_10  and  C_11 
ROOT
HETATM    1  O   UNK N   1      20.698  21.278   1.290  0.00  0.00    -0.271 OA
HETATM    2  N   UNK N   1      20.315  19.121   1.163  0.00  0.00    -0.325 N 
HETATM    3  N   UNK N   1      21.133  19.061   4.146  0.00  0.00    -0.380 N 
ATOM      4  HN  UNK N   1      21.434  19.296   5.092  1.00  0.00     0.160 HD
HETATM    5  C   UNK N   1      20.431  17.138   2.735  0.00  0.00     0.020 A 
HETATM    6  C   UNK N   1      20.179  17.752   1.470  0.00  0.00     0.047 A 
HETATM    7  C   UNK N   1      20.895  17.799   4.022  0.00  0.00     0.051 A 
HETATM    8  C   UNK N   1      20.227  15.754   2.803  0.00  0.00     0.052 A 
HETATM    9  C   UNK N   1      19.751  16.950   0.393  0.00  0.00     0.033 A 
HETATM   10  C   UNK N   1      21.087  20.226   3.300  0.00  0.00     0.223 A 
HETATM   11  C   UNK N   1      19.806  14.969   1.744  0.00  0.00     0.103 A 
HETATM   12  C   UNK N   1      20.686  20.205   1.869  0.00  0.00     0.239 A 
HETATM   13  C   UNK N   1      19.565  15.576   0.521  0.00  0.00     0.038 A 
HETATM   14  H   UNK N   1      20.089  19.330   0.227  0.00  0.00     0.169 HD
ENDROOT
BRANCH   7  15
HETATM   15  C   UNK N   1      21.117  16.986   5.293  0.00  0.00    -0.009 A 
HETATM   16  C   UNK N   1      20.041  16.794   6.182  0.00  0.00     0.014 A 
HETATM   17  C   UNK N   1      20.200  16.054   7.360  0.00  0.00     0.001 A 
HETATM   18  C   UNK N   1      21.438  15.492   7.674  0.00  0.00     0.000 A 
HETATM   19  C   UNK N   1      22.517  15.668   6.812  0.00  0.00     0.001 A 
HETATM   20  C   UNK N   1      22.353  16.405   5.641  0.00  0.00     0.014 A 
ENDBRANCH   7  15
BRANCH  11  21
HETATM   21  N   UNK N   1      19.632  13.570   1.929  0.00  0.00    -0.116 N 
HETATM   22  O   UNK N   1      18.438  13.076   2.180  0.00  0.00    -0.532 OA
HETATM   23  O   UNK N   1      20.568  12.832   1.859  0.00  0.00    -0.532 OA
ENDBRANCH  11  21
TORSDOF 2
ENDMDL
MODEL 8
REMARK VINA RESULT:      -6.3      5.062      7.448
REMARK  2 active torsions:
REMARK  status: ('A' for Active; 'I' for Inactive)
REMARK    1  A    between atoms: N_7  and  C_15 
REMARK    2  A    between atoms: C_10  and  C_11 
ROOT
HETATM    1  O   UNK N   1      28.319  17.597   5.214  0.00  0.00    -0.271 OA
HETATM    2  N   UNK N   1      26.624  18.677   4.335  0.00  0.00    -0.325 N 
HETATM    3  N   UNK N   1      24.875  16.519   5.696  0.00  0.00    -0.380 N 
ATOM      4  HN  UNK N   1      24.528  15.718   6.225  1.00  0.00     0.160 HD
HETATM    5  C   UNK N   1      24.102  18.432   4.310  0.00  0.00     0.020 A 
HETATM    6  C   UNK N   1      25.326  19.078   3.956  0.00  0.00     0.047 A 
HETATM    7  C   UNK N   1      23.911  17.187   5.159  0.00  0.00     0.051 A 
HETATM    8  C   UNK N   1      22.929  19.015   3.815  0.00  0.00     0.052 A 
HETATM    9  C   UNK N   1      25.282  20.234   3.151  0.00  0.00     0.033 A 
HETATM   10  C   UNK N   1      26.312  16.605   5.747  0.00  0.00     0.223 A 
HETATM   11  C   UNK N   1      22.888  20.151   3.025  0.00  0.00     0.103 A 
HETATM   12  C   UNK N   1      27.109  17.663   5.074  0.00  0.00     0.239 A 
HETATM   13  C   UNK N   1      24.083  20.770   2.688  0.00  0.00     0.038 A 
HETATM   14  H   UNK N   1      27.328  19.267   3.979  0.00  0.00     0.169 HD
ENDROOT
BRANCH   7  15
HETATM   15  C   UNK N   1      22.520  16.628   5.440  0.00  0.00    -0.009 A 
HETATM   16  C   UNK N   1      22.041  15.555   4.662  0.00  0.00     0.014 A 
HETATM   17  C   UNK N   1      20.770  15.011   4.886  0.00  0.00     0.001 A 
HETATM   18  C   UNK N   1      19.952  15.528   5.891  0.00  0.00     0.000 A 
HETATM   19  C   UNK N   1      20.403  16.588   6.673  0.00  0.00     0.001 A 
HETATM   20  C   UNK N   1      21.668  17.125   6.446  0.00  0.00     0.014 A 
ENDBRANCH   7  15
BRANCH  11  21
HETATM   21  N   UNK N   1      21.636  20.656   2.579  0.00  0.00    -0.116 N 
HETATM   22  O   UNK N   1      20.686  20.937   3.445  0.00  0.00    -0.532 OA
HETATM   23  O   UNK N   1      21.437  20.828   1.414  0.00  0.00    -0.532 OA
ENDBRANCH  11  21
TORSDOF 2
ENDMDL
MODEL 9
REMARK VINA RESULT:      -6.3      7.801      8.478
REMARK  2 active torsions:
REMARK  status: ('A' for Active; 'I' for Inactive)
REMARK    1  A    between atoms: N_7  and  C_15 
REMARK    2  A    between atoms: C_10  and  C_11 
ROOT
HETATM    1  O   UNK N   1      23.409  12.141   4.909  0.00  0.00    -0.271 OA
HETATM    2  N   UNK N   1      22.389  13.575   6.220  0.00  0.00    -0.325 N 
HETATM    3  N   UNK N   1      22.216  15.363   3.702  0.00  0.00    -0.380 N 
ATOM      4  HN  UNK N   1      22.282  15.752   2.761  1.00  0.00     0.160 HD
HETATM    5  C   UNK N   1      21.369  15.882   5.981  0.00  0.00     0.020 A 
HETATM    6  C   UNK N   1      21.723  14.712   6.721  0.00  0.00     0.047 A 
HETATM    7  C   UNK N   1      21.622  16.172   4.511  0.00  0.00     0.051 A 
HETATM    8  C   UNK N   1      20.708  16.889   6.694  0.00  0.00     0.052 A 
HETATM    9  C   UNK N   1      21.393  14.643   8.090  0.00  0.00     0.033 A 
HETATM   10  C   UNK N   1      22.811  14.053   3.776  0.00  0.00     0.223 A 
HETATM   11  C   UNK N   1      20.385  16.819   8.038  0.00  0.00     0.103 A 
HETATM   12  C   UNK N   1      22.871  13.231   5.012  0.00  0.00     0.239 A 
HETATM   13  C   UNK N   1      20.734  15.678   8.747  0.00  0.00     0.038 A 
HETATM   14  H   UNK N   1      22.534  12.881   6.905  0.00  0.00     0.169 HD
ENDROOT
BRANCH   7  15
HETATM   15  C   UNK N   1      21.173  17.485   3.876  0.00  0.00    -0.009 A 
HETATM   16  C   UNK N   1      19.884  17.571   3.314  0.00  0.00     0.014 A 
HETATM   17  C   UNK N   1      19.432  18.756   2.722  0.00  0.00     0.001 A 
HETATM   18  C   UNK N   1      20.258  19.879   2.679  0.00  0.00     0.000 A 
HETATM   19  C   UNK N   1      21.536  19.820   3.228  0.00  0.00     0.001 A 
HETATM   20  C   UNK N   1      21.981  18.638   3.816  0.00  0.00     0.014 A 
ENDBRANCH   7  15
BRANCH  11  21
HETATM   21  N   UNK N   1      19.711  17.905   8.659  0.00  0.00    -0.116 N 
HETATM   22  O   UNK N   1      20.217  19.119   8.608  0.00  0.00    -0.532 OA
HETATM   23  O   UNK N   1      18.679  17.724   9.233  0.00  0.00    -0.532 OA
ENDBRANCH  11  21
TORSDOF 2
ENDMDL
