MODEL 1
REMARK VINA RESULT:      -5.8      0.000      0.000
REMARK  9 active torsions:
REMARK  status: ('A' for Active; 'I' for Inactive)
REMARK    1  A    between atoms: S_1  and  C_16 
REMARK    2  A    between atoms: S_1  and  C_19 
REMARK    3  A    between atoms: C_14  and  O_2 
REMARK    4  A    between atoms: O_4  and  C_18 
REMARK    5  A    between atoms: N_7  and  C_20 
REMARK    6  A    between atoms: N_9  and  C_21 
REMARK    7  A    between atoms: C_11  and  C_14 
REMARK    8  A    between atoms: C_15  and  C_18 
REMARK    9  A    between atoms: C_19  and  C_20 
ROOT
HETATM    1  O   UNK N   1      35.775  17.177  10.502  0.00  0.00    -0.279 OA
HETATM    2  N   UNK N   1      34.974  15.827   8.892  0.00  0.00    -0.207 NA
HETATM    3  C   UNK N   1      34.448  14.595   9.338  0.00  0.00     0.091 A 
HETATM    4  C   UNK N   1      35.295  14.788  10.709  0.00  0.00     0.120 A 
HETATM    5  C   UNK N   1      32.910  14.878   9.305  0.00  0.00     0.069 C 
HETATM    6  C   UNK N   1      35.628  16.071  10.003  0.00  0.00     0.213 A 
HETATM    7  C   UNK N   1      34.030  16.702   8.356  0.00  0.00     0.105 C 
HETATM    8  C   UNK N   1      32.819  16.201   8.553  0.00  0.00     0.008 C 
ENDROOT
BRANCH   8   9
HETATM    9  S   UNK N   1      31.271  16.982   8.072  0.00  0.00    -0.131 SA
BRANCH   9  10
HETATM   10  C   UNK N   1      31.232  16.194   6.437  0.00  0.00     0.099 C 
BRANCH  10  11
HETATM   11  C   UNK N   1      31.062  17.243   5.352  0.00  0.00     0.130 C 
BRANCH  11  12
HETATM   12  N   UNK N   1      32.144  17.155   4.405  0.00  0.00    -0.386 N 
HETATM   13  C   UNK N   1      32.164  16.218   3.530  0.00  0.00     0.168 C 
ATOM     14  HN  UNK N   1      32.897  17.842   4.431  1.00  0.00     0.160 HD
BRANCH  13  15
HETATM   15  N   UNK N   1      33.229  16.130   2.608  0.00  0.00    -0.396 N 
HETATM   16  H   UNK N   1      34.165  16.197   2.901  0.00  0.00     0.156 HD
HETATM   17  H   UNK N   1      33.029  16.000   1.652  0.00  0.00     0.156 HD
ENDBRANCH  13  15
ENDBRANCH  11  12
ENDBRANCH  10  11
ENDBRANCH   9  10
ENDBRANCH   8   9
BRANCH   7  18
HETATM   18  C   UNK N   1      34.402  17.970   7.681  0.00  0.00     0.189 C 
HETATM   19  O   UNK N   1      34.311  18.057   6.468  0.00  0.00    -0.645 OA
BRANCH  18  20
HETATM   20  O   UNK N   1      34.802  19.043   8.391  0.00  0.00    -0.772 OA
HETATM   21  H   UNK N   1      35.502  19.623   8.163  0.00  0.00     0.167 HD
ENDBRANCH  18  20
ENDBRANCH   7  18
BRANCH   4  22
HETATM   22  C   UNK N   1      35.208  13.491  11.525  0.00  0.00     0.128 C 
HETATM   23  C   UNK N   1      36.587  13.005  11.939  0.00  0.00     0.040 C 
BRANCH  22  24
HETATM   24  O   UNK N   1      34.413  13.647  12.660  0.00  0.00    -0.395 OA
HETATM   25  H   UNK N   1      34.657  14.018  13.522  0.00  0.00     0.210 HD
ENDBRANCH  22  24
ENDBRANCH   4  22
TORSDOF 9
ENDMDL
MODEL 2
REMARK VINA RESULT:      -5.6      3.557      6.397
REMARK  9 active torsions:
REMARK  status: ('A' for Active; 'I' for Inactive)
REMARK    1  A    between atoms: S_1  and  C_16 
REMARK    2  A    between atoms: S_1  and  C_19 
REMARK    3  A    between atoms: C_14  and  O_2 
REMARK    4  A    between atoms: O_4  and  C_18 
REMARK    5  A    between atoms: N_7  and  C_20 
REMARK    6  A    between atoms: N_9  and  C_21 
REMARK    7  A    between atoms: C_11  and  C_14 
REMARK    8  A    between atoms: C_15  and  C_18 
REMARK    9  A    between atoms: C_19  and  C_20 
ROOT
HETATM    1  O   UNK N   1      36.544  16.252  10.718  0.00  0.00    -0.279 OA
HETATM    2  N   UNK N   1      34.511  15.335  10.998  0.00  0.00    -0.207 NA
HETATM    3  C   UNK N   1      33.709  15.269   9.838  0.00  0.00     0.091 A 
HETATM    4  C   UNK N   1      34.645  16.423   9.186  0.00  0.00     0.120 A 
HETATM    5  C   UNK N   1      33.882  13.771   9.420  0.00  0.00     0.069 C 
HETATM    6  C   UNK N   1      35.342  16.220  10.502  0.00  0.00     0.213 A 
HETATM    7  C   UNK N   1      34.921  14.098  11.492  0.00  0.00     0.105 C 
HETATM    8  C   UNK N   1      34.574  13.154  10.629  0.00  0.00     0.008 C 
ENDROOT
BRANCH   8   9
HETATM    9  S   UNK N   1      34.919  11.396  10.804  0.00  0.00    -0.131 SA
BRANCH   9  10
HETATM   10  C   UNK N   1      36.223  11.395   9.541  0.00  0.00     0.099 C 
BRANCH  10  11
HETATM   11  C   UNK N   1      37.580  11.171  10.186  0.00  0.00     0.130 C 
BRANCH  11  12
HETATM   12  N   UNK N   1      38.176  12.435  10.538  0.00  0.00    -0.386 N 
HETATM   13  C   UNK N   1      38.154  13.414   9.708  0.00  0.00     0.168 C 
ATOM     14  HN  UNK N   1      38.616  12.552  11.450  1.00  0.00     0.160 HD
BRANCH  13  15
HETATM   15  N   UNK N   1      38.744  14.648  10.053  0.00  0.00    -0.396 N 
HETATM   16  H   UNK N   1      39.721  14.761  10.070  0.00  0.00     0.156 HD
HETATM   17  H   UNK N   1      38.165  15.412  10.280  0.00  0.00     0.156 HD
ENDBRANCH  13  15
ENDBRANCH  11  12
ENDBRANCH  10  11
ENDBRANCH   9  10
ENDBRANCH   8   9
BRANCH   7  18
HETATM   18  C   UNK N   1      35.624  13.944  12.790  0.00  0.00     0.189 C 
HETATM   19  O   UNK N   1      34.994  13.619  13.783  0.00  0.00    -0.645 OA
BRANCH  18  20
HETATM   20  O   UNK N   1      36.957  14.118  12.883  0.00  0.00    -0.772 OA
HETATM   21  H   UNK N   1      37.391  14.767  13.402  0.00  0.00     0.167 HD
ENDBRANCH  18  20
ENDBRANCH   7  18
BRANCH   4  22
HETATM   22  C   UNK N   1      34.004  16.890   7.873  0.00  0.00     0.128 C 
HETATM   23  C   UNK N   1      33.636  18.363   7.930  0.00  0.00     0.040 C 
BRANCH  22  24
HETATM   24  O   UNK N   1      34.842  16.665   6.781  0.00  0.00    -0.395 OA
HETATM   25  H   UNK N   1      35.708  16.230   6.764  0.00  0.00     0.210 HD
ENDBRANCH  22  24
ENDBRANCH   4  22
TORSDOF 9
ENDMDL
MODEL 3
REMARK VINA RESULT:      -5.5      3.369      6.920
REMARK  9 active torsions:
REMARK  status: ('A' for Active; 'I' for Inactive)
REMARK    1  A    between atoms: S_1  and  C_16 
REMARK    2  A    between atoms: S_1  and  C_19 
REMARK    3  A    between atoms: C_14  and  O_2 
REMARK    4  A    between atoms: O_4  and  C_18 
REMARK    5  A    between atoms: N_7  and  C_20 
REMARK    6  A    between atoms: N_9  and  C_21 
REMARK    7  A    between atoms: C_11  and  C_14 
REMARK    8  A    between atoms: C_15  and  C_18 
REMARK    9  A    between atoms: C_19  and  C_20 
ROOT
HETATM    1  O   UNK N   1      36.246  16.755  10.737  0.00  0.00    -0.279 OA
HETATM    2  N   UNK N   1      34.422  15.443  10.775  0.00  0.00    -0.207 NA
HETATM    3  C   UNK N   1      33.706  15.361   9.561  0.00  0.00     0.091 A 
HETATM    4  C   UNK N   1      34.428  16.740   9.102  0.00  0.00     0.120 A 
HETATM    5  C   UNK N   1      34.190  13.983   9.001  0.00  0.00     0.069 C 
HETATM    6  C   UNK N   1      35.086  16.521  10.435  0.00  0.00     0.213 A 
HETATM    7  C   UNK N   1      35.042  14.256  11.164  0.00  0.00     0.105 C 
HETATM    8  C   UNK N   1      34.930  13.371  10.184  0.00  0.00     0.008 C 
ENDROOT
BRANCH   8   9
HETATM    9  S   UNK N   1      35.604  11.703  10.197  0.00  0.00    -0.131 SA
BRANCH   9  10
HETATM   10  C   UNK N   1      33.974  10.905  10.169  0.00  0.00     0.099 C 
BRANCH  10  11
HETATM   11  C   UNK N   1      33.767  10.088  11.433  0.00  0.00     0.130 C 
BRANCH  11  12
HETATM   12  N   UNK N   1      33.877  10.935  12.593  0.00  0.00    -0.386 N 
HETATM   13  C   UNK N   1      33.839  10.428  13.770  0.00  0.00     0.168 C 
ATOM     14  HN  UNK N   1      33.986  11.942  12.476  1.00  0.00     0.160 HD
BRANCH  13  15
HETATM   15  N   UNK N   1      33.941  11.261  14.905  0.00  0.00    -0.396 N 
HETATM   16  H   UNK N   1      34.736  11.241  15.484  0.00  0.00     0.156 HD
HETATM   17  H   UNK N   1      33.201  11.874  15.120  0.00  0.00     0.156 HD
ENDBRANCH  13  15
ENDBRANCH  11  12
ENDBRANCH  10  11
ENDBRANCH   9  10
ENDBRANCH   8   9
BRANCH   7  18
HETATM   18  C   UNK N   1      35.697  14.088  12.485  0.00  0.00     0.189 C 
HETATM   19  O   UNK N   1      35.057  13.643  13.424  0.00  0.00    -0.645 OA
BRANCH  18  20
HETATM   20  O   UNK N   1      37.001  14.380  12.656  0.00  0.00    -0.772 OA
HETATM   21  H   UNK N   1      37.442  14.462  13.479  0.00  0.00     0.167 HD
ENDBRANCH  18  20
ENDBRANCH   7  18
BRANCH   4  22
HETATM   22  C   UNK N   1      33.772  17.227   7.803  0.00  0.00     0.128 C 
HETATM   23  C   UNK N   1      32.513  18.029   8.086  0.00  0.00     0.040 C 
BRANCH  22  24
HETATM   24  O   UNK N   1      34.649  17.998   7.040  0.00  0.00    -0.395 OA
HETATM   25  H   UNK N   1      35.364  18.579   7.344  0.00  0.00     0.210 HD
ENDBRANCH  22  24
ENDBRANCH   4  22
TORSDOF 9
ENDMDL
MODEL 4
REMARK VINA RESULT:      -5.4     11.245     13.627
REMARK  9 active torsions:
REMARK  status: ('A' for Active; 'I' for Inactive)
REMARK    1  A    between atoms: S_1  and  C_16 
REMARK    2  A    between atoms: S_1  and  C_19 
REMARK    3  A    between atoms: C_14  and  O_2 
REMARK    4  A    between atoms: O_4  and  C_18 
REMARK    5  A    between atoms: N_7  and  C_20 
REMARK    6  A    between atoms: N_9  and  C_21 
REMARK    7  A    between atoms: C_11  and  C_14 
REMARK    8  A    between atoms: C_15  and  C_18 
REMARK    9  A    between atoms: C_19  and  C_20 
ROOT
HETATM    1  O   UNK N   1      21.086  18.785   7.360  0.00  0.00    -0.279 OA
HETATM    2  N   UNK N   1      20.442  16.766   6.613  0.00  0.00    -0.207 NA
HETATM    3  C   UNK N   1      21.475  15.945   6.111  0.00  0.00     0.091 A 
HETATM    4  C   UNK N   1      22.378  17.281   5.929  0.00  0.00     0.120 A 
HETATM    5  C   UNK N   1      21.720  14.975   7.314  0.00  0.00     0.069 C 
HETATM    6  C   UNK N   1      21.145  17.871   6.552  0.00  0.00     0.213 A 
HETATM    7  C   UNK N   1      19.851  16.302   7.788  0.00  0.00     0.105 C 
HETATM    8  C   UNK N   1      20.538  15.260   8.233  0.00  0.00     0.008 C 
ENDROOT
BRANCH   8   9
HETATM    9  S   UNK N   1      20.188  14.340   9.739  0.00  0.00    -0.131 SA
BRANCH   9  10
HETATM   10  C   UNK N   1      21.384  13.026   9.367  0.00  0.00     0.099 C 
BRANCH  10  11
HETATM   11  C   UNK N   1      21.790  12.308  10.643  0.00  0.00     0.130 C 
BRANCH  11  12
HETATM   12  N   UNK N   1      23.127  12.690  11.022  0.00  0.00    -0.386 N 
HETATM   13  C   UNK N   1      24.031  12.855  10.126  0.00  0.00     0.168 C 
ATOM     14  HN  UNK N   1      23.355  12.830  12.005  1.00  0.00     0.160 HD
BRANCH  13  15
HETATM   15  N   UNK N   1      25.340  13.223  10.500  0.00  0.00    -0.396 N 
HETATM   16  H   UNK N   1      25.502  13.911  11.185  0.00  0.00     0.156 HD
HETATM   17  H   UNK N   1      26.107  12.782  10.067  0.00  0.00     0.156 HD
ENDBRANCH  13  15
ENDBRANCH  11  12
ENDBRANCH  10  11
ENDBRANCH   9  10
ENDBRANCH   8   9
BRANCH   7  18
HETATM   18  C   UNK N   1      18.642  16.927   8.379  0.00  0.00     0.189 C 
HETATM   19  O   UNK N   1      17.552  16.403   8.218  0.00  0.00    -0.645 OA
BRANCH  18  20
HETATM   20  O   UNK N   1      18.732  18.044   9.127  0.00  0.00    -0.772 OA
HETATM   21  H   UNK N   1      18.253  18.837   8.988  0.00  0.00     0.167 HD
ENDBRANCH  18  20
ENDBRANCH   7  18
BRANCH   4  22
HETATM   22  C   UNK N   1      23.650  16.910   5.154  0.00  0.00     0.128 C 
HETATM   23  C   UNK N   1      23.466  17.116   3.660  0.00  0.00     0.040 C 
BRANCH  22  24
HETATM   24  O   UNK N   1      24.752  17.646   5.590  0.00  0.00    -0.395 OA
HETATM   25  H   UNK N   1      25.522  17.339   6.094  0.00  0.00     0.210 HD
ENDBRANCH  22  24
ENDBRANCH   4  22
TORSDOF 9
ENDMDL
MODEL 5
REMARK VINA RESULT:      -5.3      2.528      6.517
REMARK  9 active torsions:
REMARK  status: ('A' for Active; 'I' for Inactive)
REMARK    1  A    between atoms: S_1  and  C_16 
REMARK    2  A    between atoms: S_1  and  C_19 
REMARK    3  A    between atoms: C_14  and  O_2 
REMARK    4  A    between atoms: O_4  and  C_18 
REMARK    5  A    between atoms: N_7  and  C_20 
REMARK    6  A    between atoms: N_9  and  C_21 
REMARK    7  A    between atoms: C_11  and  C_14 
REMARK    8  A    between atoms: C_15  and  C_18 
REMARK    9  A    between atoms: C_19  and  C_20 
ROOT
HETATM    1  O   UNK N   1      34.697  18.422   7.464  0.00  0.00    -0.279 OA
HETATM    2  N   UNK N   1      33.679  16.532   8.128  0.00  0.00    -0.207 NA
HETATM    3  C   UNK N   1      33.271  15.664   7.091  0.00  0.00     0.091 A 
HETATM    4  C   UNK N   1      33.354  16.925   6.073  0.00  0.00     0.120 A 
HETATM    5  C   UNK N   1      34.404  14.585   7.119  0.00  0.00     0.069 C 
HETATM    6  C   UNK N   1      33.828  17.571   7.343  0.00  0.00     0.213 A 
HETATM    7  C   UNK N   1      34.700  16.032   8.935  0.00  0.00     0.105 C 
HETATM    8  C   UNK N   1      35.150  14.902   8.409  0.00  0.00     0.008 C 
ENDROOT
BRANCH   8   9
HETATM    9  S   UNK N   1      36.493  13.902   9.068  0.00  0.00    -0.131 SA
BRANCH   9  10
HETATM   10  C   UNK N   1      35.414  12.510   9.506  0.00  0.00     0.099 C 
BRANCH  10  11
HETATM   11  C   UNK N   1      35.531  12.201  10.989  0.00  0.00     0.130 C 
BRANCH  11  12
HETATM   12  N   UNK N   1      35.715  13.419  11.735  0.00  0.00    -0.386 N 
HETATM   13  C   UNK N   1      36.492  13.442  12.756  0.00  0.00     0.168 C 
ATOM     14  HN  UNK N   1      35.225  14.267  11.450  1.00  0.00     0.160 HD
BRANCH  13  15
HETATM   15  N   UNK N   1      36.665  14.635  13.488  0.00  0.00    -0.396 N 
HETATM   16  H   UNK N   1      37.453  14.772  14.062  0.00  0.00     0.156 HD
HETATM   17  H   UNK N   1      35.984  15.344  13.424  0.00  0.00     0.156 HD
ENDBRANCH  13  15
ENDBRANCH  11  12
ENDBRANCH  10  11
ENDBRANCH   9  10
ENDBRANCH   8   9
BRANCH   7  18
HETATM   18  C   UNK N   1      35.150  16.714  10.174  0.00  0.00     0.189 C 
HETATM   19  O   UNK N   1      34.993  16.168  11.254  0.00  0.00    -0.645 OA
BRANCH  18  20
HETATM   20  O   UNK N   1      35.768  17.910  10.123  0.00  0.00    -0.772 OA
HETATM   21  H   UNK N   1      35.370  18.723   9.882  0.00  0.00     0.167 HD
ENDBRANCH  18  20
ENDBRANCH   7  18
BRANCH   4  22
HETATM   22  C   UNK N   1      32.757  16.504   4.723  0.00  0.00     0.128 C 
HETATM   23  C   UNK N   1      32.096  17.679   4.022  0.00  0.00     0.040 C 
BRANCH  22  24
HETATM   24  O   UNK N   1      33.721  15.947   3.883  0.00  0.00    -0.395 OA
HETATM   25  H   UNK N   1      34.479  16.382   3.462  0.00  0.00     0.210 HD
ENDBRANCH  22  24
ENDBRANCH   4  22
TORSDOF 9
ENDMDL
MODEL 6
REMARK VINA RESULT:      -5.1      5.801      8.183
REMARK  9 active torsions:
REMARK  status: ('A' for Active; 'I' for Inactive)
REMARK    1  A    between atoms: S_1  and  C_16 
REMARK    2  A    between atoms: S_1  and  C_19 
REMARK    3  A    between atoms: C_14  and  O_2 
REMARK    4  A    between atoms: O_4  and  C_18 
REMARK    5  A    between atoms: N_7  and  C_20 
REMARK    6  A    between atoms: N_9  and  C_21 
REMARK    7  A    between atoms: C_11  and  C_14 
REMARK    8  A    between atoms: C_15  and  C_18 
REMARK    9  A    between atoms: C_19  and  C_20 
ROOT
HETATM    1  O   UNK N   1      34.005  13.291  16.264  0.00  0.00    -0.279 OA
HETATM    2  N   UNK N   1      36.066  12.518  15.809  0.00  0.00    -0.207 NA
HETATM    3  C   UNK N   1      36.370  11.247  16.344  0.00  0.00     0.091 A 
HETATM    4  C   UNK N   1      35.157  11.457  17.401  0.00  0.00     0.120 A 
HETATM    5  C   UNK N   1      36.187  10.325  15.093  0.00  0.00     0.069 C 
HETATM    6  C   UNK N   1      35.033  12.717  16.592  0.00  0.00     0.213 A 
HETATM    7  C   UNK N   1      35.987  12.558  14.418  0.00  0.00     0.105 C 
HETATM    8  C   UNK N   1      36.064  11.322  13.946  0.00  0.00     0.008 C 
ENDROOT
BRANCH   8   9
HETATM    9  S   UNK N   1      35.971  10.855  12.211  0.00  0.00    -0.131 SA
BRANCH   9  10
HETATM   10  C   UNK N   1      37.753  11.053  11.929  0.00  0.00     0.099 C 
BRANCH  10  11
HETATM   11  C   UNK N   1      38.000  12.015  10.779  0.00  0.00     0.130 C 
BRANCH  11  12
HETATM   12  N   UNK N   1      37.666  13.359  11.178  0.00  0.00    -0.386 N 
HETATM   13  C   UNK N   1      37.157  14.177  10.332  0.00  0.00     0.168 C 
ATOM     14  HN  UNK N   1      37.836  13.659  12.137  1.00  0.00     0.160 HD
BRANCH  13  15
HETATM   15  N   UNK N   1      36.837  15.494  10.723  0.00  0.00    -0.396 N 
HETATM   16  H   UNK N   1      36.735  15.735  11.672  0.00  0.00     0.156 HD
HETATM   17  H   UNK N   1      36.714  16.186  10.033  0.00  0.00     0.156 HD
ENDBRANCH  13  15
ENDBRANCH  11  12
ENDBRANCH  10  11
ENDBRANCH   9  10
ENDBRANCH   8   9
BRANCH   7  18
HETATM   18  C   UNK N   1      35.846  13.825  13.658  0.00  0.00     0.189 C 
HETATM   19  O   UNK N   1      34.893  13.978  12.913  0.00  0.00    -0.645 OA
BRANCH  18  20
HETATM   20  O   UNK N   1      36.734  14.827  13.807  0.00  0.00    -0.772 OA
HETATM   21  H   UNK N   1      37.666  14.736  13.833  0.00  0.00     0.167 HD
ENDBRANCH  18  20
ENDBRANCH   7  18
BRANCH   4  22
HETATM   22  C   UNK N   1      35.207  10.325  18.435  0.00  0.00     0.128 C 
HETATM   23  C   UNK N   1      35.235  10.873  19.853  0.00  0.00     0.040 C 
BRANCH  22  24
HETATM   24  O   UNK N   1      34.126   9.453  18.298  0.00  0.00    -0.395 OA
HETATM   25  H   UNK N   1      33.693   8.917  18.981  0.00  0.00     0.210 HD
ENDBRANCH  22  24
ENDBRANCH   4  22
TORSDOF 9
ENDMDL
MODEL 7
REMARK VINA RESULT:      -5.0     13.492     16.189
REMARK  9 active torsions:
REMARK  status: ('A' for Active; 'I' for Inactive)
REMARK    1  A    between atoms: S_1  and  C_16 
REMARK    2  A    between atoms: S_1  and  C_19 
REMARK    3  A    between atoms: C_14  and  O_2 
REMARK    4  A    between atoms: O_4  and  C_18 
REMARK    5  A    between atoms: N_7  and  C_20 
REMARK    6  A    between atoms: N_9  and  C_21 
REMARK    7  A    between atoms: C_11  and  C_14 
REMARK    8  A    between atoms: C_15  and  C_18 
REMARK    9  A    between atoms: C_19  and  C_20 
ROOT
HETATM    1  O   UNK N   1      29.177  22.773  -1.890  0.00  0.00    -0.279 OA
HETATM    2  N   UNK N   1      29.734  23.775  -3.823  0.00  0.00    -0.207 NA
HETATM    3  C   UNK N   1      30.518  23.000  -4.706  0.00  0.00     0.091 A 
HETATM    4  C   UNK N   1      30.933  22.072  -3.441  0.00  0.00     0.120 A 
HETATM    5  C   UNK N   1      29.445  22.512  -5.735  0.00  0.00     0.069 C 
HETATM    6  C   UNK N   1      29.979  23.023  -2.777  0.00  0.00     0.213 A 
HETATM    7  C   UNK N   1      28.445  24.049  -4.279  0.00  0.00     0.105 C 
HETATM    8  C   UNK N   1      28.225  23.358  -5.388  0.00  0.00     0.008 C 
ENDROOT
BRANCH   8   9
HETATM    9  S   UNK N   1      26.692  23.348  -6.331  0.00  0.00    -0.131 SA
BRANCH   9  10
HETATM   10  C   UNK N   1      27.241  24.641  -7.481  0.00  0.00     0.099 C 
BRANCH  10  11
HETATM   11  C   UNK N   1      26.156  25.691  -7.648  0.00  0.00     0.130 C 
BRANCH  11  12
HETATM   12  N   UNK N   1      26.173  26.600  -6.530  0.00  0.00    -0.386 N 
HETATM   13  C   UNK N   1      25.096  26.841  -5.876  0.00  0.00     0.168 C 
ATOM     14  HN  UNK N   1      27.044  27.053  -6.258  1.00  0.00     0.160 HD
BRANCH  13  15
HETATM   15  N   UNK N   1      25.113  27.736  -4.786  0.00  0.00    -0.396 N 
HETATM   16  H   UNK N   1      25.470  28.648  -4.879  0.00  0.00     0.156 HD
HETATM   17  H   UNK N   1      24.760  27.442  -3.914  0.00  0.00     0.156 HD
ENDBRANCH  13  15
ENDBRANCH  11  12
ENDBRANCH  10  11
ENDBRANCH   9  10
ENDBRANCH   8   9
BRANCH   7  18
HETATM   18  C   UNK N   1      27.528  24.983  -3.581  0.00  0.00     0.189 C 
HETATM   19  O   UNK N   1      27.585  26.178  -3.822  0.00  0.00    -0.645 OA
BRANCH  18  20
HETATM   20  O   UNK N   1      26.603  24.529  -2.713  0.00  0.00    -0.772 OA
HETATM   21  H   UNK N   1      25.799  24.957  -2.495  0.00  0.00     0.167 HD
ENDBRANCH  18  20
ENDBRANCH   7  18
BRANCH   4  22
HETATM   22  C   UNK N   1      32.041  21.107  -3.885  0.00  0.00     0.128 C 
HETATM   23  C   UNK N   1      33.196  21.100  -2.898  0.00  0.00     0.040 C 
BRANCH  22  24
HETATM   24  O   UNK N   1      31.560  19.807  -4.042  0.00  0.00    -0.395 OA
HETATM   25  H   UNK N   1      31.192  19.214  -3.369  0.00  0.00     0.210 HD
ENDBRANCH  22  24
ENDBRANCH   4  22
TORSDOF 9
ENDMDL
MODEL 8
REMARK VINA RESULT:      -5.0     14.677     17.909
REMARK  9 active torsions:
REMARK  status: ('A' for Active; 'I' for Inactive)
REMARK    1  A    between atoms: S_1  and  C_16 
REMARK    2  A    between atoms: S_1  and  C_19 
REMARK    3  A    between atoms: C_14  and  O_2 
REMARK    4  A    between atoms: O_4  and  C_18 
REMARK    5  A    between atoms: N_7  and  C_20 
REMARK    6  A    between atoms: N_9  and  C_21 
REMARK    7  A    between atoms: C_11  and  C_14 
REMARK    8  A    between atoms: C_15  and  C_18 
REMARK    9  A    between atoms: C_19  and  C_20 
ROOT
HETATM    1  O   UNK N   1      25.943  24.327  -3.923  0.00  0.00    -0.279 OA
HETATM    2  N   UNK N   1      27.405  26.032  -3.849  0.00  0.00    -0.207 NA
HETATM    3  C   UNK N   1      28.765  25.673  -3.975  0.00  0.00     0.091 A 
HETATM    4  C   UNK N   1      28.353  24.163  -3.544  0.00  0.00     0.120 A 
HETATM    5  C   UNK N   1      29.047  26.025  -5.473  0.00  0.00     0.069 C 
HETATM    6  C   UNK N   1      27.001  24.818  -3.561  0.00  0.00     0.213 A 
HETATM    7  C   UNK N   1      26.899  26.771  -4.918  0.00  0.00     0.105 C 
HETATM    8  C   UNK N   1      27.807  26.812  -5.881  0.00  0.00     0.008 C 
ENDROOT
BRANCH   8   9
HETATM    9  S   UNK N   1      27.605  27.617  -7.478  0.00  0.00    -0.131 SA
BRANCH   9  10
HETATM   10  C   UNK N   1      27.356  26.059  -8.376  0.00  0.00     0.099 C 
BRANCH  10  11
HETATM   11  C   UNK N   1      25.880  25.850  -8.666  0.00  0.00     0.130 C 
BRANCH  11  12
HETATM   12  N   UNK N   1      25.329  24.879  -7.754  0.00  0.00    -0.386 N 
HETATM   13  C   UNK N   1      26.041  23.890  -7.355  0.00  0.00     0.168 C 
ATOM     14  HN  UNK N   1      24.370  24.980  -7.425  1.00  0.00     0.160 HD
BRANCH  13  15
HETATM   15  N   UNK N   1      25.497  22.937  -6.468  0.00  0.00    -0.396 N 
HETATM   16  H   UNK N   1      25.112  22.094  -6.796  0.00  0.00     0.156 HD
HETATM   17  H   UNK N   1      25.504  23.121  -5.500  0.00  0.00     0.156 HD
ENDBRANCH  13  15
ENDBRANCH  11  12
ENDBRANCH  10  11
ENDBRANCH   9  10
ENDBRANCH   8   9
BRANCH   7  18
HETATM   18  C   UNK N   1      25.548  27.386  -4.900  0.00  0.00     0.189 C 
HETATM   19  O   UNK N   1      24.657  26.904  -5.580  0.00  0.00    -0.645 OA
BRANCH  18  20
HETATM   20  O   UNK N   1      25.278  28.446  -4.113  0.00  0.00    -0.772 OA
HETATM   21  H   UNK N   1      24.486  28.947  -4.121  0.00  0.00     0.167 HD
ENDBRANCH  18  20
ENDBRANCH   7  18
BRANCH   4  22
HETATM   22  C   UNK N   1      29.636  23.351  -3.320  0.00  0.00     0.128 C 
HETATM   23  C   UNK N   1      29.730  22.853  -1.887  0.00  0.00     0.040 C 
BRANCH  22  24
HETATM   24  O   UNK N   1      29.719  22.266  -4.193  0.00  0.00    -0.395 OA
HETATM   25  H   UNK N   1      29.026  21.633  -4.437  0.00  0.00     0.210 HD
ENDBRANCH  22  24
ENDBRANCH   4  22
TORSDOF 9
ENDMDL
MODEL 9
REMARK VINA RESULT:      -4.8     14.323     16.447
REMARK  9 active torsions:
REMARK  status: ('A' for Active; 'I' for Inactive)
REMARK    1  A    between atoms: S_1  and  C_16 
REMARK    2  A    between atoms: S_1  and  C_19 
REMARK    3  A    between atoms: C_14  and  O_2 
REMARK    4  A    between atoms: O_4  and  C_18 
REMARK    5  A    between atoms: N_7  and  C_20 
REMARK    6  A    between atoms: N_9  and  C_21 
REMARK    7  A    between atoms: C_11  and  C_14 
REMARK    8  A    between atoms: C_15  and  C_18 
REMARK    9  A    between atoms: C_19  and  C_20 
ROOT
HETATM    1  O   UNK N   1      30.742  20.645  -3.763  0.00  0.00    -0.279 OA
HETATM    2  N   UNK N   1      30.649  22.473  -5.067  0.00  0.00    -0.207 NA
HETATM    3  C   UNK N   1      30.069  22.282  -6.341  0.00  0.00     0.091 A 
HETATM    4  C   UNK N   1      30.357  20.694  -6.178  0.00  0.00     0.120 A 
HETATM    5  C   UNK N   1      28.631  22.858  -6.123  0.00  0.00     0.069 C 
HETATM    6  C   UNK N   1      30.847  21.195  -4.849  0.00  0.00     0.213 A 
HETATM    7  C   UNK N   1      29.910  23.287  -4.210  0.00  0.00     0.105 C 
HETATM    8  C   UNK N   1      28.740  23.554  -4.771  0.00  0.00     0.008 C 
ENDROOT
BRANCH   8   9
HETATM    9  S   UNK N   1      27.424  24.536  -4.035  0.00  0.00    -0.131 SA
BRANCH   9  10
HETATM   10  C   UNK N   1      26.496  24.691  -5.587  0.00  0.00     0.099 C 
BRANCH  10  11
HETATM   11  C   UNK N   1      25.424  25.759  -5.454  0.00  0.00     0.130 C 
BRANCH  11  12
HETATM   12  N   UNK N   1      25.744  26.649  -4.366  0.00  0.00    -0.386 N 
HETATM   13  C   UNK N   1      25.503  27.904  -4.465  0.00  0.00     0.168 C 
ATOM     14  HN  UNK N   1      26.164  26.277  -3.515  1.00  0.00     0.160 HD
BRANCH  13  15
HETATM   15  N   UNK N   1      25.823  28.774  -3.401  0.00  0.00    -0.396 N 
HETATM   16  H   UNK N   1      25.135  29.329  -2.970  0.00  0.00     0.156 HD
HETATM   17  H   UNK N   1      26.754  28.825  -3.085  0.00  0.00     0.156 HD
ENDBRANCH  13  15
ENDBRANCH  11  12
ENDBRANCH  10  11
ENDBRANCH   9  10
ENDBRANCH   8   9
BRANCH   7  18
HETATM   18  C   UNK N   1      30.425  23.745  -2.895  0.00  0.00     0.189 C 
HETATM   19  O   UNK N   1      30.787  24.902  -2.759  0.00  0.00    -0.645 OA
BRANCH  18  20
HETATM   20  O   UNK N   1      30.463  22.914  -1.836  0.00  0.00    -0.772 OA
HETATM   21  H   UNK N   1      30.821  23.114  -0.993  0.00  0.00     0.167 HD
ENDBRANCH  18  20
ENDBRANCH   7  18
BRANCH   4  22
HETATM   22  C   UNK N   1      30.059  20.002  -7.515  0.00  0.00     0.128 C 
HETATM   23  C   UNK N   1      31.307  19.354  -8.092  0.00  0.00     0.040 C 
BRANCH  22  24
HETATM   24  O   UNK N   1      29.056  19.041  -7.387  0.00  0.00    -0.395 OA
HETATM   25  H   UNK N   1      28.716  18.628  -6.578  0.00  0.00     0.210 HD
ENDBRANCH  22  24
ENDBRANCH   4  22
TORSDOF 9
ENDMDL
