MODEL 1
REMARK VINA RESULT:      -6.5      0.000      0.000
REMARK  5 active torsions:
REMARK  status: ('A' for Active; 'I' for Inactive)
REMARK    1  A    between atoms: O_2  and  C_12 
REMARK    2  A    between atoms: C_5  and  C_6 
REMARK    3  A    between atoms: C_5  and  C_12 
REMARK    4  A    between atoms: C_7  and  C_11 
REMARK    5  A    between atoms: C_11  and  C_13 
ROOT
HETATM    1  S   UNK N   1      31.618  17.152   6.971  0.00  0.00    -0.090 SA
HETATM    2  C   UNK N   1      33.143  17.285   6.340  0.00  0.00    -0.003 A 
HETATM    3  C   UNK N   1      30.729  17.346   5.587  0.00  0.00     0.056 A 
HETATM    4  C   UNK N   1      33.000  17.507   4.962  0.00  0.00     0.017 A 
HETATM    5  C   UNK N   1      31.639  17.531   4.537  0.00  0.00     0.024 A 
ENDROOT
BRANCH   3   6
HETATM    6  C   UNK N   1      29.251  17.264   5.512  0.00  0.00     0.199 C 
HETATM    7  O   UNK N   1      28.737  16.163   5.370  0.00  0.00    -0.286 OA
BRANCH   6   8
HETATM    8  C   UNK N   1      28.377  18.469   5.520  0.00  0.00     0.015 A 
HETATM    9  C   UNK N   1      28.072  19.145   6.713  0.00  0.00     0.015 A 
HETATM   10  C   UNK N   1      27.314  20.318   6.692  0.00  0.00     0.001 A 
HETATM   11  C   UNK N   1      26.857  20.832   5.476  0.00  0.00     0.000 A 
HETATM   12  C   UNK N   1      27.151  20.168   4.283  0.00  0.00     0.001 A 
HETATM   13  C   UNK N   1      27.911  18.995   4.305  0.00  0.00     0.015 A 
ENDBRANCH   6   8
ENDBRANCH   3   6
BRANCH   2  14
HETATM   14  C   UNK N   1      34.425  17.107   7.114  0.00  0.00     0.119 C 
HETATM   15  C   UNK N   1      34.659  15.637   7.425  0.00  0.00     0.027 C 
BRANCH  14  16
HETATM   16  C   UNK N   1      34.490  17.949   8.367  0.00  0.00     0.148 C 
HETATM   17  O   UNK N   1      34.940  19.083   8.320  0.00  0.00    -0.649 OA
BRANCH  16  18
HETATM   18  O   UNK N   1      34.071  17.453   9.549  0.00  0.00    -0.776 OA
HETATM   19  H   UNK N   1      34.211  17.770  10.419  0.00  0.00     0.167 HD
ENDBRANCH  16  18
ENDBRANCH  14  16
ENDBRANCH   2  14
TORSDOF 5
ENDMDL
MODEL 2
REMARK VINA RESULT:      -6.3     10.711     12.380
REMARK  5 active torsions:
REMARK  status: ('A' for Active; 'I' for Inactive)
REMARK    1  A    between atoms: O_2  and  C_12 
REMARK    2  A    between atoms: C_5  and  C_6 
REMARK    3  A    between atoms: C_5  and  C_12 
REMARK    4  A    between atoms: C_7  and  C_11 
REMARK    5  A    between atoms: C_11  and  C_13 
ROOT
HETATM    1  S   UNK N   1      29.662  22.975  -3.591  0.00  0.00    -0.090 SA
HETATM    2  C   UNK N   1      31.171  23.559  -3.946  0.00  0.00    -0.003 A 
HETATM    3  C   UNK N   1      28.823  24.402  -3.528  0.00  0.00     0.056 A 
HETATM    4  C   UNK N   1      31.065  24.956  -4.019  0.00  0.00     0.017 A 
HETATM    5  C   UNK N   1      29.739  25.429  -3.793  0.00  0.00     0.024 A 
ENDROOT
BRANCH   3   6
HETATM    6  C   UNK N   1      27.364  24.515  -3.296  0.00  0.00     0.199 C 
HETATM    7  O   UNK N   1      26.831  23.708  -2.546  0.00  0.00    -0.286 OA
BRANCH   6   8
HETATM    8  C   UNK N   1      26.512  25.514  -3.997  0.00  0.00     0.015 A 
HETATM    9  C   UNK N   1      26.286  26.791  -3.458  0.00  0.00     0.015 A 
HETATM   10  C   UNK N   1      25.547  27.742  -4.168  0.00  0.00     0.001 A 
HETATM   11  C   UNK N   1      25.032  27.428  -5.427  0.00  0.00     0.000 A 
HETATM   12  C   UNK N   1      25.248  26.160  -5.974  0.00  0.00     0.001 A 
HETATM   13  C   UNK N   1      25.988  25.210  -5.264  0.00  0.00     0.015 A 
ENDBRANCH   6   8
ENDBRANCH   3   6
BRANCH   2  14
HETATM   14  C   UNK N   1      32.390  22.714  -4.221  0.00  0.00     0.119 C 
HETATM   15  C   UNK N   1      32.568  22.508  -5.717  0.00  0.00     0.027 C 
BRANCH  14  16
HETATM   16  C   UNK N   1      32.383  21.395  -3.483  0.00  0.00     0.148 C 
HETATM   17  O   UNK N   1      32.224  20.352  -4.097  0.00  0.00    -0.649 OA
BRANCH  16  18
HETATM   18  O   UNK N   1      32.534  21.358  -2.144  0.00  0.00    -0.776 OA
HETATM   19  H   UNK N   1      33.199  20.952  -1.623  0.00  0.00     0.167 HD
ENDBRANCH  16  18
ENDBRANCH  14  16
ENDBRANCH   2  14
TORSDOF 5
ENDMDL
MODEL 3
REMARK VINA RESULT:      -6.3      5.077      9.298
REMARK  5 active torsions:
REMARK  status: ('A' for Active; 'I' for Inactive)
REMARK    1  A    between atoms: O_2  and  C_12 
REMARK    2  A    between atoms: C_5  and  C_6 
REMARK    3  A    between atoms: C_5  and  C_12 
REMARK    4  A    between atoms: C_7  and  C_11 
REMARK    5  A    between atoms: C_11  and  C_13 
ROOT
HETATM    1  S   UNK N   1      34.972  15.786  10.920  0.00  0.00    -0.090 SA
HETATM    2  C   UNK N   1      34.509  16.141   9.370  0.00  0.00    -0.003 A 
HETATM    3  C   UNK N   1      35.822  14.392  10.640  0.00  0.00     0.056 A 
HETATM    4  C   UNK N   1      35.019  15.126   8.546  0.00  0.00     0.017 A 
HETATM    5  C   UNK N   1      35.767  14.146   9.262  0.00  0.00     0.024 A 
ENDROOT
BRANCH   3   6
HETATM    6  C   UNK N   1      36.545  13.619  11.679  0.00  0.00     0.199 C 
HETATM    7  O   UNK N   1      37.671  13.214  11.423  0.00  0.00    -0.286 OA
BRANCH   6   8
HETATM    8  C   UNK N   1      35.928  13.248  12.982  0.00  0.00     0.015 A 
HETATM    9  C   UNK N   1      34.925  12.270  13.065  0.00  0.00     0.015 A 
HETATM   10  C   UNK N   1      34.413  11.879  14.306  0.00  0.00     0.001 A 
HETATM   11  C   UNK N   1      34.904  12.460  15.477  0.00  0.00     0.000 A 
HETATM   12  C   UNK N   1      35.901  13.436  15.408  0.00  0.00     0.001 A 
HETATM   13  C   UNK N   1      36.413  13.825  14.167  0.00  0.00     0.015 A 
ENDBRANCH   6   8
ENDBRANCH   3   6
BRANCH   2  14
HETATM   14  C   UNK N   1      33.756  17.377   8.947  0.00  0.00     0.119 C 
HETATM   15  C   UNK N   1      32.425  17.000   8.315  0.00  0.00     0.027 C 
BRANCH  14  16
HETATM   16  C   UNK N   1      34.555  18.284   8.041  0.00  0.00     0.148 C 
HETATM   17  O   UNK N   1      34.507  18.136   6.830  0.00  0.00    -0.649 OA
BRANCH  16  18
HETATM   18  O   UNK N   1      35.340  19.251   8.557  0.00  0.00    -0.776 OA
HETATM   19  H   UNK N   1      35.282  19.702   9.376  0.00  0.00     0.167 HD
ENDBRANCH  16  18
ENDBRANCH  14  16
ENDBRANCH   2  14
TORSDOF 5
ENDMDL
MODEL 4
REMARK VINA RESULT:      -6.3     10.585     13.486
REMARK  5 active torsions:
REMARK  status: ('A' for Active; 'I' for Inactive)
REMARK    1  A    between atoms: O_2  and  C_12 
REMARK    2  A    between atoms: C_5  and  C_6 
REMARK    3  A    between atoms: C_5  and  C_12 
REMARK    4  A    between atoms: C_7  and  C_11 
REMARK    5  A    between atoms: C_11  and  C_13 
ROOT
HETATM    1  S   UNK N   1      27.611  24.053  -3.100  0.00  0.00    -0.090 SA
HETATM    2  C   UNK N   1      27.316  25.371  -4.058  0.00  0.00    -0.003 A 
HETATM    3  C   UNK N   1      29.258  23.961  -3.259  0.00  0.00     0.056 A 
HETATM    4  C   UNK N   1      28.553  25.796  -4.566  0.00  0.00     0.017 A 
HETATM    5  C   UNK N   1      29.648  25.006  -4.107  0.00  0.00     0.024 A 
ENDROOT
BRANCH   3   6
HETATM    6  C   UNK N   1      30.121  22.978  -2.562  0.00  0.00     0.199 C 
HETATM    7  O   UNK N   1      30.174  23.016  -1.340  0.00  0.00    -0.286 OA
BRANCH   6   8
HETATM    8  C   UNK N   1      30.985  22.007  -3.287  0.00  0.00     0.015 A 
HETATM    9  C   UNK N   1      32.309  21.764  -2.888  0.00  0.00     0.015 A 
HETATM   10  C   UNK N   1      33.079  20.792  -3.533  0.00  0.00     0.001 A 
HETATM   11  C   UNK N   1      32.530  20.049  -4.580  0.00  0.00     0.000 A 
HETATM   12  C   UNK N   1      31.215  20.282  -4.988  0.00  0.00     0.001 A 
HETATM   13  C   UNK N   1      30.445  21.254  -4.342  0.00  0.00     0.015 A 
ENDBRANCH   6   8
ENDBRANCH   3   6
BRANCH   2  14
HETATM   14  C   UNK N   1      25.970  26.021  -4.253  0.00  0.00     0.119 C 
HETATM   15  C   UNK N   1      25.658  26.165  -5.735  0.00  0.00     0.027 C 
BRANCH  14  16
HETATM   16  C   UNK N   1      25.832  27.343  -3.534  0.00  0.00     0.148 C 
HETATM   17  O   UNK N   1      26.154  27.438  -2.360  0.00  0.00    -0.649 OA
BRANCH  16  18
HETATM   18  O   UNK N   1      25.339  28.423  -4.173  0.00  0.00    -0.776 OA
HETATM   19  H   UNK N   1      24.477  28.587  -4.503  0.00  0.00     0.167 HD
ENDBRANCH  16  18
ENDBRANCH  14  16
ENDBRANCH   2  14
TORSDOF 5
ENDMDL
MODEL 5
REMARK VINA RESULT:      -6.1      1.706      2.416
REMARK  5 active torsions:
REMARK  status: ('A' for Active; 'I' for Inactive)
REMARK    1  A    between atoms: O_2  and  C_12 
REMARK    2  A    between atoms: C_5  and  C_6 
REMARK    3  A    between atoms: C_5  and  C_12 
REMARK    4  A    between atoms: C_7  and  C_11 
REMARK    5  A    between atoms: C_11  and  C_13 
ROOT
HETATM    1  S   UNK N   1      30.714  16.714   6.872  0.00  0.00    -0.090 SA
HETATM    2  C   UNK N   1      31.862  17.213   7.957  0.00  0.00    -0.003 A 
HETATM    3  C   UNK N   1      29.404  17.540   7.459  0.00  0.00     0.056 A 
HETATM    4  C   UNK N   1      31.225  18.074   8.863  0.00  0.00     0.017 A 
HETATM    5  C   UNK N   1      29.842  18.266   8.576  0.00  0.00     0.024 A 
ENDROOT
BRANCH   3   6
HETATM    6  C   UNK N   1      28.055  17.534   6.845  0.00  0.00     0.199 C 
HETATM    7  O   UNK N   1      27.315  16.587   7.079  0.00  0.00    -0.286 OA
BRANCH   6   8
HETATM    8  C   UNK N   1      27.597  18.584   5.895  0.00  0.00     0.015 A 
HETATM    9  C   UNK N   1      27.220  18.268   4.580  0.00  0.00     0.015 A 
HETATM   10  C   UNK N   1      26.719  19.255   3.727  0.00  0.00     0.001 A 
HETATM   11  C   UNK N   1      26.584  20.568   4.183  0.00  0.00     0.000 A 
HETATM   12  C   UNK N   1      26.957  20.896   5.488  0.00  0.00     0.001 A 
HETATM   13  C   UNK N   1      27.457  19.908   6.341  0.00  0.00     0.015 A 
ENDBRANCH   6   8
ENDBRANCH   3   6
BRANCH   2  14
HETATM   14  C   UNK N   1      33.327  16.859   7.899  0.00  0.00     0.119 C 
HETATM   15  C   UNK N   1      33.866  16.594   9.296  0.00  0.00     0.027 C 
BRANCH  14  16
HETATM   16  C   UNK N   1      34.164  17.889   7.176  0.00  0.00     0.148 C 
HETATM   17  O   UNK N   1      34.173  17.922   5.955  0.00  0.00    -0.649 OA
BRANCH  16  18
HETATM   18  O   UNK N   1      34.920  18.766   7.866  0.00  0.00    -0.776 OA
HETATM   19  H   UNK N   1      34.694  19.322   8.585  0.00  0.00     0.167 HD
ENDBRANCH  16  18
ENDBRANCH  14  16
ENDBRANCH   2  14
TORSDOF 5
ENDMDL
MODEL 6
REMARK VINA RESULT:      -6.1      3.472      6.005
REMARK  5 active torsions:
REMARK  status: ('A' for Active; 'I' for Inactive)
REMARK    1  A    between atoms: O_2  and  C_12 
REMARK    2  A    between atoms: C_5  and  C_6 
REMARK    3  A    between atoms: C_5  and  C_12 
REMARK    4  A    between atoms: C_7  and  C_11 
REMARK    5  A    between atoms: C_11  and  C_13 
ROOT
HETATM    1  S   UNK N   1      34.973  15.200   9.056  0.00  0.00    -0.090 SA
HETATM    2  C   UNK N   1      35.584  14.719  10.519  0.00  0.00    -0.003 A 
HETATM    3  C   UNK N   1      34.885  16.833   9.319  0.00  0.00     0.056 A 
HETATM    4  C   UNK N   1      35.735  15.874  11.301  0.00  0.00     0.017 A 
HETATM    5  C   UNK N   1      35.350  17.066  10.620  0.00  0.00     0.024 A 
ENDROOT
BRANCH   3   6
HETATM    6  C   UNK N   1      34.450  17.829   8.311  0.00  0.00     0.199 C 
HETATM    7  O   UNK N   1      34.941  18.950   8.353  0.00  0.00    -0.286 OA
BRANCH   6   8
HETATM    8  C   UNK N   1      33.388  17.549   7.307  0.00  0.00     0.015 A 
HETATM    9  C   UNK N   1      32.046  17.385   7.688  0.00  0.00     0.015 A 
HETATM   10  C   UNK N   1      31.051  17.200   6.723  0.00  0.00     0.001 A 
HETATM   11  C   UNK N   1      31.387  17.183   5.368  0.00  0.00     0.000 A 
HETATM   12  C   UNK N   1      32.719  17.342   4.977  0.00  0.00     0.001 A 
HETATM   13  C   UNK N   1      33.713  17.528   5.942  0.00  0.00     0.015 A 
ENDBRANCH   6   8
ENDBRANCH   3   6
BRANCH   2  14
HETATM   14  C   UNK N   1      35.976  13.308  10.878  0.00  0.00     0.119 C 
HETATM   15  C   UNK N   1      35.113  12.790  12.018  0.00  0.00     0.027 C 
BRANCH  14  16
HETATM   16  C   UNK N   1      37.446  13.155  11.191  0.00  0.00     0.148 C 
HETATM   17  O   UNK N   1      38.285  13.519  10.382  0.00  0.00    -0.649 OA
BRANCH  16  18
HETATM   18  O   UNK N   1      37.846  12.602  12.353  0.00  0.00    -0.776 OA
HETATM   19  H   UNK N   1      38.311  11.804  12.513  0.00  0.00     0.167 HD
ENDBRANCH  16  18
ENDBRANCH  14  16
ENDBRANCH   2  14
TORSDOF 5
ENDMDL
MODEL 7
REMARK VINA RESULT:      -6.0      3.398      5.517
REMARK  5 active torsions:
REMARK  status: ('A' for Active; 'I' for Inactive)
REMARK    1  A    between atoms: O_2  and  C_12 
REMARK    2  A    between atoms: C_5  and  C_6 
REMARK    3  A    between atoms: C_5  and  C_12 
REMARK    4  A    between atoms: C_7  and  C_11 
REMARK    5  A    between atoms: C_11  and  C_13 
ROOT
HETATM    1  S   UNK N   1      35.314  16.529  10.460  0.00  0.00    -0.090 SA
HETATM    2  C   UNK N   1      35.966  15.007  10.499  0.00  0.00    -0.003 A 
HETATM    3  C   UNK N   1      34.770  16.555   8.896  0.00  0.00     0.056 A 
HETATM    4  C   UNK N   1      35.780  14.448   9.226  0.00  0.00     0.017 A 
HETATM    5  C   UNK N   1      35.097  15.318   8.326  0.00  0.00     0.024 A 
ENDROOT
BRANCH   3   6
HETATM    6  C   UNK N   1      34.023  17.677   8.279  0.00  0.00     0.199 C 
HETATM    7  O   UNK N   1      34.537  18.788   8.282  0.00  0.00    -0.286 OA
BRANCH   6   8
HETATM    8  C   UNK N   1      32.647  17.525   7.734  0.00  0.00     0.015 A 
HETATM    9  C   UNK N   1      31.514  17.772   8.526  0.00  0.00     0.015 A 
HETATM   10  C   UNK N   1      30.231  17.700   7.974  0.00  0.00     0.001 A 
HETATM   11  C   UNK N   1      30.069  17.386   6.623  0.00  0.00     0.000 A 
HETATM   12  C   UNK N   1      31.188  17.137   5.825  0.00  0.00     0.001 A 
HETATM   13  C   UNK N   1      32.471  17.210   6.377  0.00  0.00     0.015 A 
ENDBRANCH   6   8
ENDBRANCH   3   6
BRANCH   2  14
HETATM   14  C   UNK N   1      36.560  14.344  11.716  0.00  0.00     0.119 C 
HETATM   15  C   UNK N   1      37.388  13.134  11.313  0.00  0.00     0.027 C 
BRANCH  14  16
HETATM   16  C   UNK N   1      35.533  13.981  12.763  0.00  0.00     0.148 C 
HETATM   17  O   UNK N   1      35.811  14.064  13.949  0.00  0.00    -0.649 OA
BRANCH  16  18
HETATM   18  O   UNK N   1      34.309  13.546  12.400  0.00  0.00    -0.776 OA
HETATM   19  H   UNK N   1      33.579  13.291  12.929  0.00  0.00     0.167 HD
ENDBRANCH  16  18
ENDBRANCH  14  16
ENDBRANCH   2  14
TORSDOF 5
ENDMDL
MODEL 8
REMARK VINA RESULT:      -6.0      8.540     12.135
REMARK  5 active torsions:
REMARK  status: ('A' for Active; 'I' for Inactive)
REMARK    1  A    between atoms: O_2  and  C_12 
REMARK    2  A    between atoms: C_5  and  C_6 
REMARK    3  A    between atoms: C_5  and  C_12 
REMARK    4  A    between atoms: C_7  and  C_11 
REMARK    5  A    between atoms: C_11  and  C_13 
ROOT
HETATM    1  S   UNK N   1      35.125  12.384  12.958  0.00  0.00    -0.090 SA
HETATM    2  C   UNK N   1      35.901  13.747  12.427  0.00  0.00    -0.003 A 
HETATM    3  C   UNK N   1      35.373  12.543  14.588  0.00  0.00     0.056 A 
HETATM    4  C   UNK N   1      36.413  14.396  13.561  0.00  0.00     0.017 A 
HETATM    5  C   UNK N   1      36.107  13.721  14.779  0.00  0.00     0.024 A 
ENDROOT
BRANCH   3   6
HETATM    6  C   UNK N   1      34.842  11.619  15.619  0.00  0.00     0.199 C 
HETATM    7  O   UNK N   1      34.038  10.764  15.273  0.00  0.00    -0.286 OA
BRANCH   6   8
HETATM    8  C   UNK N   1      35.184  11.741  17.062  0.00  0.00     0.015 A 
HETATM    9  C   UNK N   1      34.962  12.934  17.769  0.00  0.00     0.015 A 
HETATM   10  C   UNK N   1      35.216  13.005  19.141  0.00  0.00     0.001 A 
HETATM   11  C   UNK N   1      35.688  11.881  19.823  0.00  0.00     0.000 A 
HETATM   12  C   UNK N   1      35.915  10.689  19.131  0.00  0.00     0.001 A 
HETATM   13  C   UNK N   1      35.660  10.618  17.758  0.00  0.00     0.015 A 
ENDBRANCH   6   8
ENDBRANCH   3   6
BRANCH   2  14
HETATM   14  C   UNK N   1      35.951  14.220  10.996  0.00  0.00     0.119 C 
HETATM   15  C   UNK N   1      37.298  13.888  10.373  0.00  0.00     0.027 C 
BRANCH  14  16
HETATM   16  C   UNK N   1      35.620  15.686  10.837  0.00  0.00     0.148 C 
HETATM   17  O   UNK N   1      36.515  16.503  10.697  0.00  0.00    -0.649 OA
BRANCH  16  18
HETATM   18  O   UNK N   1      34.339  16.107  10.865  0.00  0.00    -0.776 OA
HETATM   19  H   UNK N   1      33.645  15.969  10.251  0.00  0.00     0.167 HD
ENDBRANCH  16  18
ENDBRANCH  14  16
ENDBRANCH   2  14
TORSDOF 5
ENDMDL
MODEL 9
REMARK VINA RESULT:      -6.0      9.196     11.601
REMARK  5 active torsions:
REMARK  status: ('A' for Active; 'I' for Inactive)
REMARK    1  A    between atoms: O_2  and  C_12 
REMARK    2  A    between atoms: C_5  and  C_6 
REMARK    3  A    between atoms: C_5  and  C_12 
REMARK    4  A    between atoms: C_7  and  C_11 
REMARK    5  A    between atoms: C_11  and  C_13 
ROOT
HETATM    1  S   UNK N   1      20.829  15.720   7.963  0.00  0.00    -0.090 SA
HETATM    2  C   UNK N   1      20.619  15.771   6.321  0.00  0.00    -0.003 A 
HETATM    3  C   UNK N   1      20.666  14.090   8.210  0.00  0.00     0.056 A 
HETATM    4  C   UNK N   1      20.393  14.454   5.894  0.00  0.00     0.017 A 
HETATM    5  C   UNK N   1      20.429  13.506   6.958  0.00  0.00     0.024 A 
ENDROOT
BRANCH   3   6
HETATM    6  C   UNK N   1      20.816  13.414   9.521  0.00  0.00     0.199 C 
HETATM    7  O   UNK N   1      19.831  13.318  10.240  0.00  0.00    -0.286 OA
BRANCH   6   8
HETATM    8  C   UNK N   1      22.126  12.924  10.029  0.00  0.00     0.015 A 
HETATM    9  C   UNK N   1      23.328  13.231   9.371  0.00  0.00     0.015 A 
HETATM   10  C   UNK N   1      24.555  12.828   9.906  0.00  0.00     0.001 A 
HETATM   11  C   UNK N   1      24.593  12.119  11.109  0.00  0.00     0.000 A 
HETATM   12  C   UNK N   1      23.404  11.806  11.772  0.00  0.00     0.001 A 
HETATM   13  C   UNK N   1      22.178  12.211  11.237  0.00  0.00     0.015 A 
ENDBRANCH   6   8
ENDBRANCH   3   6
BRANCH   2  14
HETATM   14  C   UNK N   1      20.743  17.007   5.465  0.00  0.00     0.119 C 
HETATM   15  C   UNK N   1      21.257  16.646   4.080  0.00  0.00     0.027 C 
BRANCH  14  16
HETATM   16  C   UNK N   1      21.586  18.091   6.096  0.00  0.00     0.148 C 
HETATM   17  O   UNK N   1      21.057  18.965   6.764  0.00  0.00    -0.649 OA
BRANCH  16  18
HETATM   18  O   UNK N   1      22.921  18.115   5.914  0.00  0.00    -0.776 OA
HETATM   19  H   UNK N   1      23.528  18.824   5.993  0.00  0.00     0.167 HD
ENDBRANCH  16  18
ENDBRANCH  14  16
ENDBRANCH   2  14
TORSDOF 5
ENDMDL
