MODEL 1
REMARK VINA RESULT:      -6.9      0.000      0.000
REMARK  16 active torsions:
REMARK  status: ('A' for Active; 'I' for Inactive)
REMARK    1  A    between atoms: C_13  and  O_1 
REMARK    2  A    between atoms: O_5  and  C_32 
REMARK    3  A    between atoms: O_5  and  C_39 
REMARK    4  A    between atoms: N_6  and  C_11 
REMARK    5  A    between atoms: C_10  and  N_7 
REMARK       I    between atoms: N_7  and  C_17 
REMARK    6  A    between atoms: C_15  and  N_8 
REMARK       I    between atoms: N_8  and  C_27 
REMARK    7  A    between atoms: C_10  and  C_12 
REMARK    8  A    between atoms: C_10  and  C_16 
REMARK    9  A    between atoms: C_11  and  C_14 
REMARK   10  A    between atoms: C_11  and  C_17 
REMARK   11  A    between atoms: C_12  and  C_13 
REMARK   12  A    between atoms: C_13  and  C_15 
REMARK   13  A    between atoms: C_15  and  C_20 
REMARK   14  A    between atoms: C_16  and  C_25 
REMARK   15  A    between atoms: C_20  and  C_26 
REMARK   16  A    between atoms: C_27  and  C_32 
ROOT
HETATM    1  C   UNK N   1      37.136  13.689   8.367  0.00  0.00     0.059 C 
ENDROOT
BRANCH   1   2
HETATM    2  C   UNK N   1      35.783  13.673   7.664  0.00  0.00     0.091 C 
BRANCH   2   3
HETATM    3  N   UNK N   1      35.630  14.818   6.773  0.00  0.00    -0.354 N 
HETATM    4  C   UNK N   1      34.542  15.655   6.713  0.00  0.00     0.241 C 
HETATM    5  O   UNK N   1      34.593  16.621   5.969  0.00  0.00    -0.271 OA
HETATM    6  H   UNK N   1      36.375  15.009   6.159  0.00  0.00     0.162 HD
BRANCH   4   7
HETATM    7  C   UNK N   1      33.285  15.467   7.568  0.00  0.00     0.184 C 
BRANCH   7   8
HETATM    8  N   UNK N   1      32.082  15.874   6.819  0.00  0.00    -0.320 N 
HETATM    9  C   UNK N   1      31.555  17.191   7.126  0.00  0.00     0.130 C 
HETATM   10  C   UNK N   1      30.041  17.161   7.148  0.00  0.00     0.040 C 
HETATM   11  C   UNK N   1      29.579  16.744   5.759  0.00  0.00     0.126 C 
HETATM   12  N   UNK N   1      30.259  15.542   5.323  0.00  0.00    -0.343 N 
HETATM   13  C   UNK N   1      31.433  15.113   5.862  0.00  0.00     0.319 C 
HETATM   14  H   UNK N   1      29.852  15.009   4.602  0.00  0.00     0.164 HD
HETATM   15  O   UNK N   1      31.868  14.037   5.497  0.00  0.00    -0.247 OA
ENDBRANCH   7   8
BRANCH   7  16
HETATM   16  C   UNK N   1      33.474  16.004   9.009  0.00  0.00     0.010 C 
HETATM   17  C   UNK N   1      33.447  14.980  10.136  0.00  0.00     0.012 C 
HETATM   18  C   UNK N   1      34.570  17.048   9.159  0.00  0.00     0.012 C 
ENDBRANCH   7  16
ENDBRANCH   4   7
ENDBRANCH   2   3
BRANCH   2  19
HETATM   19  C   UNK N   1      35.789  12.299   6.966  0.00  0.00     0.063 C 
BRANCH  19  20
HETATM   20  C   UNK N   1      35.100  11.064   7.457  0.00  0.00    -0.056 A 
HETATM   21  C   UNK N   1      35.689   9.795   7.442  0.00  0.00     0.007 A 
HETATM   22  C   UNK N   1      34.959   8.683   7.885  0.00  0.00     0.001 A 
HETATM   23  C   UNK N   1      33.644   8.837   8.340  0.00  0.00     0.000 A 
HETATM   24  C   UNK N   1      33.055  10.103   8.354  0.00  0.00     0.001 A 
HETATM   25  C   UNK N   1      33.781  11.208   7.909  0.00  0.00     0.007 A 
ENDBRANCH  19  20
ENDBRANCH   2  19
ENDBRANCH   1   2
BRANCH   1  26
HETATM   26  C   UNK N   1      37.106  14.188   9.822  0.00  0.00     0.143 C 
BRANCH  26  27
HETATM   27  O   UNK N   1      38.216  14.930  10.246  0.00  0.00    -0.393 OA
HETATM   28  H   UNK N   1      39.087  15.328  10.089  0.00  0.00     0.210 HD
ENDBRANCH  26  27
BRANCH  26  29
HETATM   29  C   UNK N   1      36.609  13.223  10.877  0.00  0.00     0.117 C 
BRANCH  29  30
HETATM   30  N   UNK N   1      37.011  13.717  12.181  0.00  0.00    -0.352 N 
HETATM   31  C   UNK N   1      36.160  13.994  13.204  0.00  0.00     0.242 C 
HETATM   32  O   UNK N   1      34.950  13.902  13.066  0.00  0.00    -0.271 OA
HETATM   33  H   UNK N   1      37.973  13.862  12.336  0.00  0.00     0.163 HD
BRANCH  31  34
HETATM   34  C   UNK N   1      36.705  14.406  14.521  0.00  0.00     0.278 C 
BRANCH  34  35
HETATM   35  O   UNK N   1      37.175  13.314  15.217  0.00  0.00    -0.341 OA
BRANCH  35  36
HETATM   36  C   UNK N   1      36.492  12.145  15.377  0.00  0.00     0.081 A 
HETATM   37  C   UNK N   1      35.251  12.054  16.073  0.00  0.00    -0.028 A 
HETATM   38  C   UNK N   1      34.592  10.825  16.156  0.00  0.00     0.009 A 
HETATM   39  C   UNK N   1      34.614  13.217  16.756  0.00  0.00     0.051 C 
HETATM   40  C   UNK N   1      35.134   9.686  15.566  0.00  0.00     0.001 A 
HETATM   41  C   UNK N   1      36.357   9.759  14.904  0.00  0.00     0.009 A 
HETATM   42  C   UNK N   1      37.039  10.974  14.813  0.00  0.00    -0.028 A 
HETATM   43  C   UNK N   1      38.342  11.014  14.089  0.00  0.00     0.051 C 
ENDBRANCH  35  36
ENDBRANCH  34  35
ENDBRANCH  31  34
ENDBRANCH  29  30
BRANCH  29  44
HETATM   44  C   UNK N   1      37.111  11.799  10.594  0.00  0.00     0.066 C 
BRANCH  44  45
HETATM   45  C   UNK N   1      36.222  10.688  11.060  0.00  0.00    -0.056 A 
HETATM   46  C   UNK N   1      34.923  11.001  11.475  0.00  0.00     0.007 A 
HETATM   47  C   UNK N   1      34.059   9.989  11.903  0.00  0.00     0.001 A 
HETATM   48  C   UNK N   1      34.492   8.660  11.920  0.00  0.00     0.000 A 
HETATM   49  C   UNK N   1      35.789   8.342  11.510  0.00  0.00     0.001 A 
HETATM   50  C   UNK N   1      36.653   9.353  11.082  0.00  0.00     0.007 A 
ENDBRANCH  44  45
ENDBRANCH  29  44
ENDBRANCH  26  29
ENDBRANCH   1  26
TORSDOF 16
ENDMDL
MODEL 2
REMARK VINA RESULT:      -6.5      2.080      3.655
REMARK  16 active torsions:
REMARK  status: ('A' for Active; 'I' for Inactive)
REMARK    1  A    between atoms: C_13  and  O_1 
REMARK    2  A    between atoms: O_5  and  C_32 
REMARK    3  A    between atoms: O_5  and  C_39 
REMARK    4  A    between atoms: N_6  and  C_11 
REMARK    5  A    between atoms: C_10  and  N_7 
REMARK       I    between atoms: N_7  and  C_17 
REMARK    6  A    between atoms: C_15  and  N_8 
REMARK       I    between atoms: N_8  and  C_27 
REMARK    7  A    between atoms: C_10  and  C_12 
REMARK    8  A    between atoms: C_10  and  C_16 
REMARK    9  A    between atoms: C_11  and  C_14 
REMARK   10  A    between atoms: C_11  and  C_17 
REMARK   11  A    between atoms: C_12  and  C_13 
REMARK   12  A    between atoms: C_13  and  C_15 
REMARK   13  A    between atoms: C_15  and  C_20 
REMARK   14  A    between atoms: C_16  and  C_25 
REMARK   15  A    between atoms: C_20  and  C_26 
REMARK   16  A    between atoms: C_27  and  C_32 
ROOT
HETATM    1  C   UNK N   1      34.175  15.011  10.630  0.00  0.00     0.059 C 
ENDROOT
BRANCH   1   2
HETATM    2  C   UNK N   1      33.899  14.917   9.133  0.00  0.00     0.091 C 
BRANCH   2   3
HETATM    3  N   UNK N   1      34.521  16.016   8.404  0.00  0.00    -0.354 N 
HETATM    4  C   UNK N   1      34.015  16.632   7.284  0.00  0.00     0.241 C 
HETATM    5  O   UNK N   1      34.614  17.594   6.830  0.00  0.00    -0.271 OA
HETATM    6  H   UNK N   1      35.382  16.349   8.746  0.00  0.00     0.162 HD
BRANCH   4   7
HETATM    7  C   UNK N   1      32.711  16.204   6.603  0.00  0.00     0.184 C 
BRANCH   7   8
HETATM    8  N   UNK N   1      32.968  15.770   5.217  0.00  0.00    -0.320 N 
HETATM    9  C   UNK N   1      33.197  14.350   5.027  0.00  0.00     0.130 C 
HETATM   10  C   UNK N   1      34.295  14.125   4.008  0.00  0.00     0.040 C 
HETATM   11  C   UNK N   1      33.824  14.740   2.698  0.00  0.00     0.126 C 
HETATM   12  N   UNK N   1      33.371  16.101   2.894  0.00  0.00    -0.343 N 
HETATM   13  C   UNK N   1      33.003  16.596   4.107  0.00  0.00     0.319 C 
HETATM   14  H   UNK N   1      33.327  16.698   2.112  0.00  0.00     0.164 HD
HETATM   15  O   UNK N   1      32.737  17.781   4.183  0.00  0.00    -0.247 OA
ENDBRANCH   7   8
BRANCH   7  16
HETATM   16  C   UNK N   1      31.562  17.210   6.861  0.00  0.00     0.010 C 
HETATM   17  C   UNK N   1      30.181  16.828   6.342  0.00  0.00     0.012 C 
HETATM   18  C   UNK N   1      31.544  17.810   8.258  0.00  0.00     0.012 C 
ENDBRANCH   7  16
ENDBRANCH   4   7
ENDBRANCH   2   3
BRANCH   2  19
HETATM   19  C   UNK N   1      34.437  13.516   8.786  0.00  0.00     0.063 C 
BRANCH  19  20
HETATM   20  C   UNK N   1      35.505  13.211   7.781  0.00  0.00    -0.056 A 
HETATM   21  C   UNK N   1      36.347  14.183   7.231  0.00  0.00     0.007 A 
HETATM   22  C   UNK N   1      37.296  13.818   6.266  0.00  0.00     0.001 A 
HETATM   23  C   UNK N   1      37.403  12.485   5.850  0.00  0.00     0.000 A 
HETATM   24  C   UNK N   1      36.563  11.514   6.398  0.00  0.00     0.001 A 
HETATM   25  C   UNK N   1      35.615  11.880   7.355  0.00  0.00     0.007 A 
ENDBRANCH  19  20
ENDBRANCH   2  19
ENDBRANCH   1   2
BRANCH   1  26
HETATM   26  C   UNK N   1      35.647  15.261  11.003  0.00  0.00     0.143 C 
BRANCH  26  27
HETATM   27  O   UNK N   1      36.343  16.175  10.201  0.00  0.00    -0.393 OA
HETATM   28  H   UNK N   1      36.656  16.487   9.337  0.00  0.00     0.210 HD
ENDBRANCH  26  27
BRANCH  26  29
HETATM   29  C   UNK N   1      36.482  14.056  11.377  0.00  0.00     0.117 C 
BRANCH  29  30
HETATM   30  N   UNK N   1      36.706  14.076  12.810  0.00  0.00    -0.352 N 
HETATM   31  C   UNK N   1      35.864  13.547  13.737  0.00  0.00     0.242 C 
HETATM   32  O   UNK N   1      34.792  13.059  13.415  0.00  0.00    -0.271 OA
HETATM   33  H   UNK N   1      37.531  14.504  13.137  0.00  0.00     0.163 HD
BRANCH  31  34
HETATM   34  C   UNK N   1      36.252  13.550  15.169  0.00  0.00     0.278 C 
BRANCH  34  35
HETATM   35  O   UNK N   1      35.152  13.344  15.973  0.00  0.00    -0.341 OA
BRANCH  35  36
HETATM   36  C   UNK N   1      35.151  12.584  17.104  0.00  0.00     0.081 A 
HETATM   37  C   UNK N   1      35.084  11.160  17.089  0.00  0.00    -0.028 A 
HETATM   38  C   UNK N   1      35.132  10.451  18.292  0.00  0.00     0.009 A 
HETATM   39  C   UNK N   1      34.937  10.366  15.835  0.00  0.00     0.051 C 
HETATM   40  C   UNK N   1      35.244  11.121  19.508  0.00  0.00     0.001 A 
HETATM   41  C   UNK N   1      35.286  12.512  19.536  0.00  0.00     0.009 A 
HETATM   42  C   UNK N   1      35.234  13.244  18.347  0.00  0.00    -0.028 A 
HETATM   43  C   UNK N   1      35.290  14.732  18.417  0.00  0.00     0.051 C 
ENDBRANCH  35  36
ENDBRANCH  34  35
ENDBRANCH  31  34
ENDBRANCH  29  30
BRANCH  29  44
HETATM   44  C   UNK N   1      37.787  14.022  10.566  0.00  0.00     0.066 C 
BRANCH  44  45
HETATM   45  C   UNK N   1      38.197  12.680  10.045  0.00  0.00    -0.056 A 
HETATM   46  C   UNK N   1      39.274  12.608   9.154  0.00  0.00     0.007 A 
HETATM   47  C   UNK N   1      39.695  11.372   8.657  0.00  0.00     0.001 A 
HETATM   48  C   UNK N   1      39.040  10.201   9.049  0.00  0.00     0.000 A 
HETATM   49  C   UNK N   1      37.962  10.266   9.936  0.00  0.00     0.001 A 
HETATM   50  C   UNK N   1      37.541  11.501  10.433  0.00  0.00     0.007 A 
ENDBRANCH  44  45
ENDBRANCH  29  44
ENDBRANCH  26  29
ENDBRANCH   1  26
TORSDOF 16
ENDMDL
MODEL 3
REMARK VINA RESULT:      -6.3     10.562     15.341
REMARK  16 active torsions:
REMARK  status: ('A' for Active; 'I' for Inactive)
REMARK    1  A    between atoms: C_13  and  O_1 
REMARK    2  A    between atoms: O_5  and  C_32 
REMARK    3  A    between atoms: O_5  and  C_39 
REMARK    4  A    between atoms: N_6  and  C_11 
REMARK    5  A    between atoms: C_10  and  N_7 
REMARK       I    between atoms: N_7  and  C_17 
REMARK    6  A    between atoms: C_15  and  N_8 
REMARK       I    between atoms: N_8  and  C_27 
REMARK    7  A    between atoms: C_10  and  C_12 
REMARK    8  A    between atoms: C_10  and  C_16 
REMARK    9  A    between atoms: C_11  and  C_14 
REMARK   10  A    between atoms: C_11  and  C_17 
REMARK   11  A    between atoms: C_12  and  C_13 
REMARK   12  A    between atoms: C_13  and  C_15 
REMARK   13  A    between atoms: C_15  and  C_20 
REMARK   14  A    between atoms: C_16  and  C_25 
REMARK   15  A    between atoms: C_20  and  C_26 
REMARK   16  A    between atoms: C_27  and  C_32 
ROOT
HETATM    1  C   UNK N   1      23.693  14.538   5.310  0.00  0.00     0.059 C 
ENDROOT
BRANCH   1   2
HETATM    2  C   UNK N   1      24.357  13.168   5.394  0.00  0.00     0.091 C 
BRANCH   2   3
HETATM    3  N   UNK N   1      23.390  12.124   5.712  0.00  0.00    -0.354 N 
HETATM    4  C   UNK N   1      22.553  12.102   6.802  0.00  0.00     0.241 C 
HETATM    5  O   UNK N   1      21.740  11.197   6.893  0.00  0.00    -0.271 OA
HETATM    6  H   UNK N   1      23.331  11.364   5.089  0.00  0.00     0.162 HD
BRANCH   4   7
HETATM    7  C   UNK N   1      22.554  13.184   7.887  0.00  0.00     0.184 C 
BRANCH   7   8
HETATM    8  N   UNK N   1      23.331  12.741   9.060  0.00  0.00    -0.320 N 
HETATM    9  C   UNK N   1      22.679  11.779   9.929  0.00  0.00     0.130 C 
HETATM   10  C   UNK N   1      22.974  12.094  11.381  0.00  0.00     0.040 C 
HETATM   11  C   UNK N   1      24.482  11.999  11.563  0.00  0.00     0.126 C 
HETATM   12  N   UNK N   1      25.179  12.778  10.561  0.00  0.00    -0.343 N 
HETATM   13  C   UNK N   1      24.608  13.162   9.387  0.00  0.00     0.319 C 
HETATM   14  H   UNK N   1      26.110  13.043  10.738  0.00  0.00     0.164 HD
HETATM   15  O   UNK N   1      25.243  13.902   8.659  0.00  0.00    -0.247 OA
ENDBRANCH   7   8
BRANCH   7  16
HETATM   16  C   UNK N   1      21.143  13.780   8.117  0.00  0.00     0.010 C 
HETATM   17  C   UNK N   1      20.930  14.573   9.400  0.00  0.00     0.012 C 
HETATM   18  C   UNK N   1      20.518  14.424   6.890  0.00  0.00     0.012 C 
ENDBRANCH   7  16
ENDBRANCH   4   7
ENDBRANCH   2   3
BRANCH   2  19
HETATM   19  C   UNK N   1      25.025  13.040   4.011  0.00  0.00     0.063 C 
BRANCH  19  20
HETATM   20  C   UNK N   1      24.313  12.978   2.696  0.00  0.00    -0.056 A 
HETATM   21  C   UNK N   1      23.754  11.806   2.175  0.00  0.00     0.007 A 
HETATM   22  C   UNK N   1      23.137  11.828   0.916  0.00  0.00     0.001 A 
HETATM   23  C   UNK N   1      23.079  13.017   0.179  0.00  0.00     0.000 A 
HETATM   24  C   UNK N   1      23.637  14.187   0.697  0.00  0.00     0.001 A 
HETATM   25  C   UNK N   1      24.255  14.162   1.948  0.00  0.00     0.007 A 
ENDBRANCH  19  20
ENDBRANCH   2  19
ENDBRANCH   1   2
BRANCH   1  26
HETATM   26  C   UNK N   1      24.662  15.733   5.364  0.00  0.00     0.143 C 
BRANCH  26  27
HETATM   27  O   UNK N   1      25.270  15.983   6.601  0.00  0.00    -0.393 OA
HETATM   28  H   UNK N   1      26.001  16.324   7.140  0.00  0.00     0.210 HD
ENDBRANCH  26  27
BRANCH  26  29
HETATM   29  C   UNK N   1      24.240  17.001   4.653  0.00  0.00     0.117 C 
BRANCH  29  30
HETATM   30  N   UNK N   1      23.023  16.730   3.910  0.00  0.00    -0.352 N 
HETATM   31  C   UNK N   1      21.785  17.171   4.259  0.00  0.00     0.242 C 
HETATM   32  O   UNK N   1      21.601  17.793   5.294  0.00  0.00    -0.271 OA
HETATM   33  H   UNK N   1      23.100  16.188   3.092  0.00  0.00     0.163 HD
BRANCH  31  34
HETATM   34  C   UNK N   1      20.632  16.904   3.364  0.00  0.00     0.278 C 
BRANCH  34  35
HETATM   35  O   UNK N   1      20.999  16.068   2.333  0.00  0.00    -0.341 OA
BRANCH  35  36
HETATM   36  C   UNK N   1      20.186  15.128   1.771  0.00  0.00     0.081 A 
HETATM   37  C   UNK N   1      20.013  13.821   2.313  0.00  0.00    -0.028 A 
HETATM   38  C   UNK N   1      19.128  12.930   1.702  0.00  0.00     0.009 A 
HETATM   39  C   UNK N   1      20.758  13.331   3.509  0.00  0.00     0.051 C 
HETATM   40  C   UNK N   1      18.413  13.304   0.566  0.00  0.00     0.001 A 
HETATM   41  C   UNK N   1      18.593  14.569   0.015  0.00  0.00     0.009 A 
HETATM   42  C   UNK N   1      19.477  15.477   0.604  0.00  0.00    -0.028 A 
HETATM   43  C   UNK N   1      19.637  16.826  -0.010  0.00  0.00     0.051 C 
ENDBRANCH  35  36
ENDBRANCH  34  35
ENDBRANCH  31  34
ENDBRANCH  29  30
BRANCH  29  44
HETATM   44  C   UNK N   1      25.377  17.535   3.768  0.00  0.00     0.066 C 
BRANCH  44  45
HETATM   45  C   UNK N   1      26.169  18.671   4.337  0.00  0.00    -0.056 A 
HETATM   46  C   UNK N   1      25.500  19.643   5.088  0.00  0.00     0.007 A 
HETATM   47  C   UNK N   1      26.208  20.710   5.648  0.00  0.00     0.001 A 
HETATM   48  C   UNK N   1      27.589  20.809   5.458  0.00  0.00     0.000 A 
HETATM   49  C   UNK N   1      28.263  19.844   4.706  0.00  0.00     0.001 A 
HETATM   50  C   UNK N   1      27.556  18.777   4.146  0.00  0.00     0.007 A 
ENDBRANCH  44  45
ENDBRANCH  29  44
ENDBRANCH  26  29
ENDBRANCH   1  26
TORSDOF 16
ENDMDL
MODEL 4
REMARK VINA RESULT:      -6.3      2.190      3.698
REMARK  16 active torsions:
REMARK  status: ('A' for Active; 'I' for Inactive)
REMARK    1  A    between atoms: C_13  and  O_1 
REMARK    2  A    between atoms: O_5  and  C_32 
REMARK    3  A    between atoms: O_5  and  C_39 
REMARK    4  A    between atoms: N_6  and  C_11 
REMARK    5  A    between atoms: C_10  and  N_7 
REMARK       I    between atoms: N_7  and  C_17 
REMARK    6  A    between atoms: C_15  and  N_8 
REMARK       I    between atoms: N_8  and  C_27 
REMARK    7  A    between atoms: C_10  and  C_12 
REMARK    8  A    between atoms: C_10  and  C_16 
REMARK    9  A    between atoms: C_11  and  C_14 
REMARK   10  A    between atoms: C_11  and  C_17 
REMARK   11  A    between atoms: C_12  and  C_13 
REMARK   12  A    between atoms: C_13  and  C_15 
REMARK   13  A    between atoms: C_15  and  C_20 
REMARK   14  A    between atoms: C_16  and  C_25 
REMARK   15  A    between atoms: C_20  and  C_26 
REMARK   16  A    between atoms: C_27  and  C_32 
ROOT
HETATM    1  C   UNK N   1      35.214  15.024   9.358  0.00  0.00     0.059 C 
ENDROOT
BRANCH   1   2
HETATM    2  C   UNK N   1      35.380  13.750   8.536  0.00  0.00     0.091 C 
BRANCH   2   3
HETATM    3  N   UNK N   1      34.092  13.230   8.091  0.00  0.00    -0.354 N 
HETATM    4  C   UNK N   1      33.248  13.828   7.184  0.00  0.00     0.241 C 
HETATM    5  O   UNK N   1      32.238  13.231   6.851  0.00  0.00    -0.271 OA
HETATM    6  H   UNK N   1      33.799  12.372   8.474  0.00  0.00     0.162 HD
BRANCH   4   7
HETATM    7  C   UNK N   1      33.536  15.184   6.532  0.00  0.00     0.184 C 
BRANCH   7   8
HETATM    8  N   UNK N   1      32.921  16.275   7.311  0.00  0.00    -0.320 N 
HETATM    9  C   UNK N   1      31.637  15.978   7.918  0.00  0.00     0.130 C 
HETATM   10  C   UNK N   1      30.716  17.175   7.815  0.00  0.00     0.040 C 
HETATM   11  C   UNK N   1      31.378  18.319   8.569  0.00  0.00     0.126 C 
HETATM   12  N   UNK N   1      32.750  18.500   8.141  0.00  0.00    -0.343 N 
HETATM   13  C   UNK N   1      33.466  17.532   7.506  0.00  0.00     0.319 C 
HETATM   14  H   UNK N   1      33.186  19.364   8.319  0.00  0.00     0.164 HD
HETATM   15  O   UNK N   1      34.575  17.820   7.095  0.00  0.00    -0.247 OA
ENDBRANCH   7   8
BRANCH   7  16
HETATM   16  C   UNK N   1      33.313  15.153   4.999  0.00  0.00     0.010 C 
HETATM   17  C   UNK N   1      32.851  16.448   4.343  0.00  0.00     0.012 C 
HETATM   18  C   UNK N   1      34.390  14.421   4.215  0.00  0.00     0.012 C 
ENDBRANCH   7  16
ENDBRANCH   4   7
ENDBRANCH   2   3
BRANCH   2  19
HETATM   19  C   UNK N   1      36.325  14.206   7.408  0.00  0.00     0.063 C 
BRANCH  19  20
HETATM   20  C   UNK N   1      37.230  13.318   6.610  0.00  0.00    -0.056 A 
HETATM   21  C   UNK N   1      38.333  13.789   5.890  0.00  0.00     0.007 A 
HETATM   22  C   UNK N   1      39.107  12.894   5.137  0.00  0.00     0.001 A 
HETATM   23  C   UNK N   1      38.779  11.533   5.103  0.00  0.00     0.000 A 
HETATM   24  C   UNK N   1      37.677  11.063   5.820  0.00  0.00     0.001 A 
HETATM   25  C   UNK N   1      36.906  11.955   6.565  0.00  0.00     0.007 A 
ENDBRANCH  19  20
ENDBRANCH   2  19
ENDBRANCH   1   2
BRANCH   1  26
HETATM   26  C   UNK N   1      36.081  15.093  10.628  0.00  0.00     0.143 C 
BRANCH  26  27
HETATM   27  O   UNK N   1      36.853  16.252  10.789  0.00  0.00    -0.393 OA
HETATM   28  H   UNK N   1      37.354  16.873  11.340  0.00  0.00     0.210 HD
ENDBRANCH  26  27
BRANCH  26  29
HETATM   29  C   UNK N   1      36.821  13.837  11.032  0.00  0.00     0.117 C 
BRANCH  29  30
HETATM   30  N   UNK N   1      36.928  13.809  12.479  0.00  0.00    -0.352 N 
HETATM   31  C   UNK N   1      35.901  13.541  13.329  0.00  0.00     0.242 C 
HETATM   32  O   UNK N   1      34.765  13.363  12.917  0.00  0.00    -0.271 OA
HETATM   33  H   UNK N   1      37.809  13.997  12.875  0.00  0.00     0.163 HD
BRANCH  31  34
HETATM   34  C   UNK N   1      36.160  13.451  14.788  0.00  0.00     0.278 C 
BRANCH  34  35
HETATM   35  O   UNK N   1      35.027  13.048  15.460  0.00  0.00    -0.341 OA
BRANCH  35  36
HETATM   36  C   UNK N   1      35.011  12.134  16.471  0.00  0.00     0.081 A 
HETATM   37  C   UNK N   1      34.838  10.735  16.258  0.00  0.00    -0.028 A 
HETATM   38  C   UNK N   1      34.876   9.859  17.345  0.00  0.00     0.009 A 
HETATM   39  C   UNK N   1      34.586  10.143  14.912  0.00  0.00     0.051 C 
HETATM   40  C   UNK N   1      35.081  10.337  18.637  0.00  0.00     0.001 A 
HETATM   41  C   UNK N   1      35.227  11.703  18.859  0.00  0.00     0.009 A 
HETATM   42  C   UNK N   1      35.187  12.601  17.790  0.00  0.00    -0.028 A 
HETATM   43  C   UNK N   1      35.356  14.056  18.067  0.00  0.00     0.051 C 
ENDBRANCH  35  36
ENDBRANCH  34  35
ENDBRANCH  31  34
ENDBRANCH  29  30
BRANCH  29  44
HETATM   44  C   UNK N   1      38.185  13.755  10.329  0.00  0.00     0.066 C 
BRANCH  44  45
HETATM   45  C   UNK N   1      38.587  12.399   9.839  0.00  0.00    -0.056 A 
HETATM   46  C   UNK N   1      39.772  12.277   9.106  0.00  0.00     0.007 A 
HETATM   47  C   UNK N   1      40.188  11.025   8.644  0.00  0.00     0.001 A 
HETATM   48  C   UNK N   1      39.418   9.889   8.913  0.00  0.00     0.000 A 
HETATM   49  C   UNK N   1      38.231  10.005   9.641  0.00  0.00     0.001 A 
HETATM   50  C   UNK N   1      37.816  11.256  10.103  0.00  0.00     0.007 A 
ENDBRANCH  44  45
ENDBRANCH  29  44
ENDBRANCH  26  29
ENDBRANCH   1  26
TORSDOF 16
ENDMDL
MODEL 5
REMARK VINA RESULT:      -6.2      2.257      3.676
REMARK  16 active torsions:
REMARK  status: ('A' for Active; 'I' for Inactive)
REMARK    1  A    between atoms: C_13  and  O_1 
REMARK    2  A    between atoms: O_5  and  C_32 
REMARK    3  A    between atoms: O_5  and  C_39 
REMARK    4  A    between atoms: N_6  and  C_11 
REMARK    5  A    between atoms: C_10  and  N_7 
REMARK       I    between atoms: N_7  and  C_17 
REMARK    6  A    between atoms: C_15  and  N_8 
REMARK       I    between atoms: N_8  and  C_27 
REMARK    7  A    between atoms: C_10  and  C_12 
REMARK    8  A    between atoms: C_10  and  C_16 
REMARK    9  A    between atoms: C_11  and  C_14 
REMARK   10  A    between atoms: C_11  and  C_17 
REMARK   11  A    between atoms: C_12  and  C_13 
REMARK   12  A    between atoms: C_13  and  C_15 
REMARK   13  A    between atoms: C_15  and  C_20 
REMARK   14  A    between atoms: C_16  and  C_25 
REMARK   15  A    between atoms: C_20  and  C_26 
REMARK   16  A    between atoms: C_27  and  C_32 
ROOT
HETATM    1  C   UNK N   1      35.494  14.938   9.931  0.00  0.00     0.059 C 
ENDROOT
BRANCH   1   2
HETATM    2  C   UNK N   1      34.571  15.079   8.725  0.00  0.00     0.091 C 
BRANCH   2   3
HETATM    3  N   UNK N   1      34.903  16.258   7.933  0.00  0.00    -0.354 N 
HETATM    4  C   UNK N   1      34.147  16.786   6.913  0.00  0.00     0.241 C 
HETATM    5  O   UNK N   1      34.517  17.826   6.394  0.00  0.00    -0.271 OA
HETATM    6  H   UNK N   1      35.746  16.719   8.148  0.00  0.00     0.162 HD
BRANCH   4   7
HETATM    7  C   UNK N   1      32.835  16.163   6.427  0.00  0.00     0.184 C 
BRANCH   7   8
HETATM    8  N   UNK N   1      32.981  15.653   5.051  0.00  0.00    -0.320 N 
HETATM    9  C   UNK N   1      33.228  14.229   4.922  0.00  0.00     0.130 C 
HETATM   10  C   UNK N   1      34.238  13.966   3.824  0.00  0.00     0.040 C 
HETATM   11  C   UNK N   1      33.641  14.494   2.528  0.00  0.00     0.126 C 
HETATM   12  N   UNK N   1      33.174  15.856   2.686  0.00  0.00    -0.343 N 
HETATM   13  C   UNK N   1      32.899  16.413   3.897  0.00  0.00     0.319 C 
HETATM   14  H   UNK N   1      33.048  16.405   1.879  0.00  0.00     0.164 HD
HETATM   15  O   UNK N   1      32.613  17.596   3.929  0.00  0.00    -0.247 OA
ENDBRANCH   7   8
BRANCH   7  16
HETATM   16  C   UNK N   1      31.609  17.049   6.760  0.00  0.00     0.010 C 
HETATM   17  C   UNK N   1      30.244  16.532   6.324  0.00  0.00     0.012 C 
HETATM   18  C   UNK N   1      31.618  17.646   8.158  0.00  0.00     0.012 C 
ENDBRANCH   7  16
ENDBRANCH   4   7
ENDBRANCH   2   3
BRANCH   2  19
HETATM   19  C   UNK N   1      34.765  13.732   8.002  0.00  0.00     0.063 C 
BRANCH  19  20
HETATM   20  C   UNK N   1      35.954  13.340   7.181  0.00  0.00    -0.056 A 
HETATM   21  C   UNK N   1      37.071  14.163   7.000  0.00  0.00     0.007 A 
HETATM   22  C   UNK N   1      38.127  13.734   6.183  0.00  0.00     0.001 A 
HETATM   23  C   UNK N   1      38.067  12.487   5.548  0.00  0.00     0.000 A 
HETATM   24  C   UNK N   1      36.952  11.666   5.728  0.00  0.00     0.001 A 
HETATM   25  C   UNK N   1      35.900  12.096   6.537  0.00  0.00     0.007 A 
ENDBRANCH  19  20
ENDBRANCH   2  19
ENDBRANCH   1   2
BRANCH   1  26
HETATM   26  C   UNK N   1      35.095  13.835  10.927  0.00  0.00     0.143 C 
BRANCH  26  27
HETATM   27  O   UNK N   1      34.069  14.153  11.826  0.00  0.00    -0.393 OA
HETATM   28  H   UNK N   1      33.751  14.375  12.715  0.00  0.00     0.210 HD
ENDBRANCH  26  27
BRANCH  26  29
HETATM   29  C   UNK N   1      36.214  13.046  11.573  0.00  0.00     0.117 C 
BRANCH  29  30
HETATM   30  N   UNK N   1      36.193  13.299  13.001  0.00  0.00    -0.352 N 
HETATM   31  C   UNK N   1      36.614  12.424  13.953  0.00  0.00     0.242 C 
HETATM   32  O   UNK N   1      36.993  11.301  13.659  0.00  0.00    -0.271 OA
HETATM   33  H   UNK N   1      35.848  14.171  13.305  0.00  0.00     0.163 HD
BRANCH  31  34
HETATM   34  C   UNK N   1      36.628  12.839  15.377  0.00  0.00     0.278 C 
BRANCH  34  35
HETATM   35  O   UNK N   1      35.452  12.481  16.000  0.00  0.00    -0.341 OA
BRANCH  35  36
HETATM   36  C   UNK N   1      35.353  12.095  17.304  0.00  0.00     0.081 A 
HETATM   37  C   UNK N   1      35.291  13.018  18.389  0.00  0.00    -0.028 A 
HETATM   38  C   UNK N   1      35.146  12.543  19.695  0.00  0.00     0.009 A 
HETATM   39  C   UNK N   1      35.398  14.495  18.208  0.00  0.00     0.051 C 
HETATM   40  C   UNK N   1      35.063  11.176  19.950  0.00  0.00     0.001 A 
HETATM   41  C   UNK N   1      35.148  10.266  18.899  0.00  0.00     0.009 A 
HETATM   42  C   UNK N   1      35.298  10.715  17.586  0.00  0.00    -0.028 A 
HETATM   43  C   UNK N   1      35.376   9.710  16.487  0.00  0.00     0.051 C 
ENDBRANCH  35  36
ENDBRANCH  34  35
ENDBRANCH  31  34
ENDBRANCH  29  30
BRANCH  29  44
HETATM   44  C   UNK N   1      37.565  13.382  10.923  0.00  0.00     0.066 C 
BRANCH  44  45
HETATM   45  C   UNK N   1      38.154  12.317  10.052  0.00  0.00    -0.056 A 
HETATM   46  C   UNK N   1      37.418  11.149   9.834  0.00  0.00     0.007 A 
HETATM   47  C   UNK N   1      37.928  10.138   9.014  0.00  0.00     0.001 A 
HETATM   48  C   UNK N   1      39.179  10.292   8.410  0.00  0.00     0.000 A 
HETATM   49  C   UNK N   1      39.921  11.456   8.627  0.00  0.00     0.001 A 
HETATM   50  C   UNK N   1      39.411  12.466   9.445  0.00  0.00     0.007 A 
ENDBRANCH  44  45
ENDBRANCH  29  44
ENDBRANCH  26  29
ENDBRANCH   1  26
TORSDOF 16
ENDMDL
MODEL 6
REMARK VINA RESULT:      -6.2      2.425      9.539
REMARK  16 active torsions:
REMARK  status: ('A' for Active; 'I' for Inactive)
REMARK    1  A    between atoms: C_13  and  O_1 
REMARK    2  A    between atoms: O_5  and  C_32 
REMARK    3  A    between atoms: O_5  and  C_39 
REMARK    4  A    between atoms: N_6  and  C_11 
REMARK    5  A    between atoms: C_10  and  N_7 
REMARK       I    between atoms: N_7  and  C_17 
REMARK    6  A    between atoms: C_15  and  N_8 
REMARK       I    between atoms: N_8  and  C_27 
REMARK    7  A    between atoms: C_10  and  C_12 
REMARK    8  A    between atoms: C_10  and  C_16 
REMARK    9  A    between atoms: C_11  and  C_14 
REMARK   10  A    between atoms: C_11  and  C_17 
REMARK   11  A    between atoms: C_12  and  C_13 
REMARK   12  A    between atoms: C_13  and  C_15 
REMARK   13  A    between atoms: C_15  and  C_20 
REMARK   14  A    between atoms: C_16  and  C_25 
REMARK   15  A    between atoms: C_20  and  C_26 
REMARK   16  A    between atoms: C_27  and  C_32 
ROOT
HETATM    1  C   UNK N   1      36.136  14.736  12.299  0.00  0.00     0.059 C 
ENDROOT
BRANCH   1   2
HETATM    2  C   UNK N   1      36.124  13.379  12.995  0.00  0.00     0.091 C 
BRANCH   2   3
HETATM    3  N   UNK N   1      36.583  12.318  12.105  0.00  0.00    -0.354 N 
HETATM    4  C   UNK N   1      36.488  10.967  12.341  0.00  0.00     0.241 C 
HETATM    5  O   UNK N   1      36.846  10.198  11.464  0.00  0.00    -0.271 OA
HETATM    6  H   UNK N   1      36.998  12.595  11.256  0.00  0.00     0.162 HD
BRANCH   4   7
HETATM    7  C   UNK N   1      35.909  10.375  13.631  0.00  0.00     0.184 C 
BRANCH   7   8
HETATM    8  N   UNK N   1      36.759   9.275  14.123  0.00  0.00    -0.320 N 
HETATM    9  C   UNK N   1      36.204   7.940  14.001  0.00  0.00     0.130 C 
HETATM   10  C   UNK N   1      36.538   7.116  15.228  0.00  0.00     0.040 C 
HETATM   11  C   UNK N   1      38.055   7.027  15.310  0.00  0.00     0.126 C 
HETATM   12  N   UNK N   1      38.660   8.339  15.208  0.00  0.00    -0.343 N 
HETATM   13  C   UNK N   1      38.020   9.415  14.676  0.00  0.00     0.319 C 
HETATM   14  H   UNK N   1      39.580   8.457  15.539  0.00  0.00     0.164 HD
HETATM   15  O   UNK N   1      38.578  10.495  14.731  0.00  0.00    -0.247 OA
ENDBRANCH   7   8
BRANCH   7  16
HETATM   16  C   UNK N   1      34.381  10.142  13.531  0.00  0.00     0.010 C 
HETATM   17  C   UNK N   1      33.515  10.774  14.613  0.00  0.00     0.012 C 
HETATM   18  C   UNK N   1      33.807  10.282  12.130  0.00  0.00     0.012 C 
ENDBRANCH   7  16
ENDBRANCH   4   7
ENDBRANCH   2   3
BRANCH   2  19
HETATM   19  C   UNK N   1      37.016  13.630  14.225  0.00  0.00     0.063 C 
BRANCH  19  20
HETATM   20  C   UNK N   1      36.539  14.029  15.588  0.00  0.00    -0.056 A 
HETATM   21  C   UNK N   1      37.033  15.138  16.284  0.00  0.00     0.007 A 
HETATM   22  C   UNK N   1      36.558  15.418  17.573  0.00  0.00     0.001 A 
HETATM   23  C   UNK N   1      35.594  14.593  18.166  0.00  0.00     0.000 A 
HETATM   24  C   UNK N   1      35.102  13.486  17.472  0.00  0.00     0.001 A 
HETATM   25  C   UNK N   1      35.579  13.205  16.191  0.00  0.00     0.007 A 
ENDBRANCH  19  20
ENDBRANCH   2  19
ENDBRANCH   1   2
BRANCH   1  26
HETATM   26  C   UNK N   1      34.964  14.980  11.332  0.00  0.00     0.143 C 
BRANCH  26  27
HETATM   27  O   UNK N   1      33.833  14.174  11.513  0.00  0.00    -0.393 OA
HETATM   28  H   UNK N   1      33.358  13.458  11.965  0.00  0.00     0.210 HD
ENDBRANCH  26  27
BRANCH  26  29
HETATM   29  C   UNK N   1      35.303  15.192   9.872  0.00  0.00     0.117 C 
BRANCH  29  30
HETATM   30  N   UNK N   1      34.247  15.981   9.263  0.00  0.00    -0.352 N 
HETATM   31  C   UNK N   1      34.298  17.325   9.062  0.00  0.00     0.242 C 
HETATM   32  O   UNK N   1      35.244  17.990   9.454  0.00  0.00    -0.271 OA
HETATM   33  H   UNK N   1      33.434  15.508   8.974  0.00  0.00     0.163 HD
BRANCH  31  34
HETATM   34  C   UNK N   1      33.189  18.002   8.344  0.00  0.00     0.278 C 
BRANCH  34  35
HETATM   35  O   UNK N   1      31.991  17.368   8.589  0.00  0.00    -0.341 OA
BRANCH  35  36
HETATM   36  C   UNK N   1      30.887  17.466   7.796  0.00  0.00     0.081 A 
HETATM   37  C   UNK N   1      30.838  16.970   6.460  0.00  0.00    -0.028 A 
HETATM   38  C   UNK N   1      29.654  17.071   5.727  0.00  0.00     0.009 A 
HETATM   39  C   UNK N   1      32.014  16.359   5.776  0.00  0.00     0.051 C 
HETATM   40  C   UNK N   1      28.518  17.652   6.286  0.00  0.00     0.001 A 
HETATM   41  C   UNK N   1      28.562  18.160   7.582  0.00  0.00     0.009 A 
HETATM   42  C   UNK N   1      29.736  18.077   8.333  0.00  0.00    -0.028 A 
HETATM   43  C   UNK N   1      29.741  18.626   9.720  0.00  0.00     0.051 C 
ENDBRANCH  35  36
ENDBRANCH  34  35
ENDBRANCH  31  34
ENDBRANCH  29  30
BRANCH  29  44
HETATM   44  C   UNK N   1      35.533  13.849   9.163  0.00  0.00     0.066 C 
BRANCH  44  45
HETATM   45  C   UNK N   1      35.180  13.809   7.708  0.00  0.00    -0.056 A 
HETATM   46  C   UNK N   1      35.976  14.523   6.807  0.00  0.00     0.007 A 
HETATM   47  C   UNK N   1      35.686  14.498   5.440  0.00  0.00     0.001 A 
HETATM   48  C   UNK N   1      34.597  13.759   4.969  0.00  0.00     0.000 A 
HETATM   49  C   UNK N   1      33.795  13.047   5.865  0.00  0.00     0.001 A 
HETATM   50  C   UNK N   1      34.085  13.071   7.231  0.00  0.00     0.007 A 
ENDBRANCH  44  45
ENDBRANCH  29  44
ENDBRANCH  26  29
ENDBRANCH   1  26
TORSDOF 16
ENDMDL
MODEL 7
REMARK VINA RESULT:      -6.2     16.597     21.620
REMARK  16 active torsions:
REMARK  status: ('A' for Active; 'I' for Inactive)
REMARK    1  A    between atoms: C_13  and  O_1 
REMARK    2  A    between atoms: O_5  and  C_32 
REMARK    3  A    between atoms: O_5  and  C_39 
REMARK    4  A    between atoms: N_6  and  C_11 
REMARK    5  A    between atoms: C_10  and  N_7 
REMARK       I    between atoms: N_7  and  C_17 
REMARK    6  A    between atoms: C_15  and  N_8 
REMARK       I    between atoms: N_8  and  C_27 
REMARK    7  A    between atoms: C_10  and  C_12 
REMARK    8  A    between atoms: C_10  and  C_16 
REMARK    9  A    between atoms: C_11  and  C_14 
REMARK   10  A    between atoms: C_11  and  C_17 
REMARK   11  A    between atoms: C_12  and  C_13 
REMARK   12  A    between atoms: C_13  and  C_15 
REMARK   13  A    between atoms: C_15  and  C_20 
REMARK   14  A    between atoms: C_16  and  C_25 
REMARK   15  A    between atoms: C_20  and  C_26 
REMARK   16  A    between atoms: C_27  and  C_32 
ROOT
HETATM    1  C   UNK N   1      26.256  24.683  -4.111  0.00  0.00     0.059 C 
ENDROOT
BRANCH   1   2
HETATM    2  C   UNK N   1      26.082  24.653  -5.626  0.00  0.00     0.091 C 
BRANCH   2   3
HETATM    3  N   UNK N   1      25.202  23.566  -6.041  0.00  0.00    -0.354 N 
HETATM    4  C   UNK N   1      25.437  22.683  -7.068  0.00  0.00     0.241 C 
HETATM    5  O   UNK N   1      24.642  21.775  -7.246  0.00  0.00    -0.271 OA
HETATM    6  H   UNK N   1      24.362  23.455  -5.539  0.00  0.00     0.162 HD
BRANCH   4   7
HETATM    7  C   UNK N   1      26.673  22.750  -7.971  0.00  0.00     0.184 C 
BRANCH   7   8
HETATM    8  N   UNK N   1      26.644  23.969  -8.800  0.00  0.00    -0.320 N 
HETATM    9  C   UNK N   1      25.340  24.375  -9.289  0.00  0.00     0.130 C 
HETATM   10  C   UNK N   1      25.445  24.880 -10.713  0.00  0.00     0.040 C 
HETATM   11  C   UNK N   1      26.375  26.084 -10.696  0.00  0.00     0.126 C 
HETATM   12  N   UNK N   1      27.613  25.777 -10.010  0.00  0.00    -0.343 N 
HETATM   13  C   UNK N   1      27.742  24.741  -9.136  0.00  0.00     0.319 C 
HETATM   14  H   UNK N   1      28.398  26.345 -10.182  0.00  0.00     0.164 HD
HETATM   15  O   UNK N   1      28.850  24.505  -8.691  0.00  0.00    -0.247 OA
ENDBRANCH   7   8
BRANCH   7  16
HETATM   16  C   UNK N   1      26.965  21.394  -8.660  0.00  0.00     0.010 C 
HETATM   17  C   UNK N   1      26.997  21.387 -10.183  0.00  0.00     0.012 C 
HETATM   18  C   UNK N   1      28.083  20.584  -8.022  0.00  0.00     0.012 C 
ENDBRANCH   7  16
ENDBRANCH   4   7
ENDBRANCH   2   3
BRANCH   2  19
HETATM   19  C   UNK N   1      25.556  26.070  -5.925  0.00  0.00     0.063 C 
BRANCH  19  20
HETATM   20  C   UNK N   1      26.376  27.322  -5.948  0.00  0.00    -0.056 A 
HETATM   21  C   UNK N   1      27.219  27.674  -7.008  0.00  0.00     0.007 A 
HETATM   22  C   UNK N   1      27.982  28.847  -6.932  0.00  0.00     0.001 A 
HETATM   23  C   UNK N   1      27.905  29.667  -5.799  0.00  0.00     0.000 A 
HETATM   24  C   UNK N   1      27.064  29.317  -4.741  0.00  0.00     0.001 A 
HETATM   25  C   UNK N   1      26.309  28.146  -4.816  0.00  0.00     0.007 A 
ENDBRANCH  19  20
ENDBRANCH   2  19
ENDBRANCH   1   2
BRANCH   1  26
HETATM   26  C   UNK N   1      27.488  23.924  -3.584  0.00  0.00     0.143 C 
BRANCH  26  27
HETATM   27  O   UNK N   1      27.500  23.638  -2.213  0.00  0.00    -0.393 OA
HETATM   28  H   UNK N   1      27.942  23.313  -1.413  0.00  0.00     0.210 HD
ENDBRANCH  26  27
BRANCH  26  29
HETATM   29  C   UNK N   1      28.842  24.356  -4.104  0.00  0.00     0.117 C 
BRANCH  29  30
HETATM   30  N   UNK N   1      29.841  23.419  -3.624  0.00  0.00    -0.352 N 
HETATM   31  C   UNK N   1      30.317  22.360  -4.331  0.00  0.00     0.242 C 
HETATM   32  O   UNK N   1      29.872  22.081  -5.433  0.00  0.00    -0.271 OA
HETATM   33  H   UNK N   1      30.201  23.561  -2.719  0.00  0.00     0.163 HD
BRANCH  31  34
HETATM   34  C   UNK N   1      31.407  21.529  -3.763  0.00  0.00     0.278 C 
BRANCH  34  35
HETATM   35  O   UNK N   1      32.289  21.143  -4.748  0.00  0.00    -0.341 OA
BRANCH  35  36
HETATM   36  C   UNK N   1      33.615  21.462  -4.769  0.00  0.00     0.081 A 
HETATM   37  C   UNK N   1      34.103  22.746  -5.149  0.00  0.00    -0.028 A 
HETATM   38  C   UNK N   1      35.475  23.007  -5.102  0.00  0.00     0.009 A 
HETATM   39  C   UNK N   1      33.215  23.845  -5.628  0.00  0.00     0.051 C 
HETATM   40  C   UNK N   1      36.372  22.025  -4.690  0.00  0.00     0.001 A 
HETATM   41  C   UNK N   1      35.908  20.760  -4.340  0.00  0.00     0.009 A 
HETATM   42  C   UNK N   1      34.542  20.472  -4.384  0.00  0.00    -0.028 A 
HETATM   43  C   UNK N   1      34.082  19.108  -3.994  0.00  0.00     0.051 C 
ENDBRANCH  35  36
ENDBRANCH  34  35
ENDBRANCH  31  34
ENDBRANCH  29  30
BRANCH  29  44
HETATM   44  C   UNK N   1      29.143  25.810  -3.705  0.00  0.00     0.066 C 
BRANCH  44  45
HETATM   45  C   UNK N   1      30.017  26.577  -4.647  0.00  0.00    -0.056 A 
HETATM   46  C   UNK N   1      30.227  26.067  -5.932  0.00  0.00     0.007 A 
HETATM   47  C   UNK N   1      31.026  26.763  -6.844  0.00  0.00     0.001 A 
HETATM   48  C   UNK N   1      31.619  27.972  -6.472  0.00  0.00     0.000 A 
HETATM   49  C   UNK N   1      31.417  28.486  -5.189  0.00  0.00     0.001 A 
HETATM   50  C   UNK N   1      30.618  27.791  -4.277  0.00  0.00     0.007 A 
ENDBRANCH  44  45
ENDBRANCH  29  44
ENDBRANCH  26  29
ENDBRANCH   1  26
TORSDOF 16
ENDMDL
MODEL 8
REMARK VINA RESULT:      -6.2     17.828     22.114
REMARK  16 active torsions:
REMARK  status: ('A' for Active; 'I' for Inactive)
REMARK    1  A    between atoms: C_13  and  O_1 
REMARK    2  A    between atoms: O_5  and  C_32 
REMARK    3  A    between atoms: O_5  and  C_39 
REMARK    4  A    between atoms: N_6  and  C_11 
REMARK    5  A    between atoms: C_10  and  N_7 
REMARK       I    between atoms: N_7  and  C_17 
REMARK    6  A    between atoms: C_15  and  N_8 
REMARK       I    between atoms: N_8  and  C_27 
REMARK    7  A    between atoms: C_10  and  C_12 
REMARK    8  A    between atoms: C_10  and  C_16 
REMARK    9  A    between atoms: C_11  and  C_14 
REMARK   10  A    between atoms: C_11  and  C_17 
REMARK   11  A    between atoms: C_12  and  C_13 
REMARK   12  A    between atoms: C_13  and  C_15 
REMARK   13  A    between atoms: C_15  and  C_20 
REMARK   14  A    between atoms: C_16  and  C_25 
REMARK   15  A    between atoms: C_20  and  C_26 
REMARK   16  A    between atoms: C_27  and  C_32 
ROOT
HETATM    1  C   UNK N   1      25.642  24.315  -5.114  0.00  0.00     0.059 C 
ENDROOT
BRANCH   1   2
HETATM    2  C   UNK N   1      25.977  25.283  -6.244  0.00  0.00     0.091 C 
BRANCH   2   3
HETATM    3  N   UNK N   1      25.246  24.956  -7.463  0.00  0.00    -0.354 N 
HETATM    4  C   UNK N   1      25.567  23.960  -8.354  0.00  0.00     0.241 C 
HETATM    5  O   UNK N   1      24.813  23.754  -9.291  0.00  0.00    -0.271 OA
HETATM    6  H   UNK N   1      24.449  25.497  -7.666  0.00  0.00     0.162 HD
BRANCH   4   7
HETATM    7  C   UNK N   1      26.798  23.060  -8.206  0.00  0.00     0.184 C 
BRANCH   7   8
HETATM    8  N   UNK N   1      27.898  23.541  -9.064  0.00  0.00    -0.320 N 
HETATM    9  C   UNK N   1      28.925  24.323  -8.403  0.00  0.00     0.130 C 
HETATM   10  C   UNK N   1      29.364  25.472  -9.288  0.00  0.00     0.040 C 
HETATM   11  C   UNK N   1      29.932  24.866 -10.563  0.00  0.00     0.126 C 
HETATM   12  N   UNK N   1      29.016  23.901 -11.135  0.00  0.00    -0.343 N 
HETATM   13  C   UNK N   1      28.023  23.303 -10.422  0.00  0.00     0.319 C 
HETATM   14  H   UNK N   1      29.117  23.666 -12.086  0.00  0.00     0.164 HD
HETATM   15  O   UNK N   1      27.243  22.587 -11.021  0.00  0.00    -0.247 OA
ENDBRANCH   7   8
BRANCH   7  16
HETATM   16  C   UNK N   1      26.430  21.556  -8.250  0.00  0.00     0.010 C 
HETATM   17  C   UNK N   1      27.576  20.562  -8.115  0.00  0.00     0.012 C 
HETATM   18  C   UNK N   1      25.197  21.181  -7.443  0.00  0.00     0.012 C 
ENDBRANCH   7  16
ENDBRANCH   4   7
ENDBRANCH   2   3
BRANCH   2  19
HETATM   19  C   UNK N   1      25.629  26.650  -5.621  0.00  0.00     0.063 C 
BRANCH  19  20
HETATM   20  C   UNK N   1      26.542  27.834  -5.541  0.00  0.00    -0.056 A 
HETATM   21  C   UNK N   1      26.604  28.685  -4.432  0.00  0.00     0.007 A 
HETATM   22  C   UNK N   1      27.460  29.795  -4.454  0.00  0.00     0.001 A 
HETATM   23  C   UNK N   1      28.250  30.056  -5.580  0.00  0.00     0.000 A 
HETATM   24  C   UNK N   1      28.187  29.208  -6.687  0.00  0.00     0.001 A 
HETATM   25  C   UNK N   1      27.332  28.106  -6.666  0.00  0.00     0.007 A 
ENDBRANCH  19  20
ENDBRANCH   2  19
ENDBRANCH   1   2
BRANCH   1  26
HETATM   26  C   UNK N   1      26.832  23.928  -4.218  0.00  0.00     0.143 C 
BRANCH  26  27
HETATM   27  O   UNK N   1      26.643  24.076  -2.838  0.00  0.00    -0.393 OA
HETATM   28  H   UNK N   1      26.188  23.855  -2.010  0.00  0.00     0.210 HD
ENDBRANCH  26  27
BRANCH  26  29
HETATM   29  C   UNK N   1      28.210  24.360  -4.670  0.00  0.00     0.117 C 
BRANCH  29  30
HETATM   30  N   UNK N   1      29.062  23.188  -4.740  0.00  0.00    -0.352 N 
HETATM   31  C   UNK N   1      29.662  22.596  -3.673  0.00  0.00     0.242 C 
HETATM   32  O   UNK N   1      29.570  23.070  -2.551  0.00  0.00    -0.271 OA
HETATM   33  H   UNK N   1      29.218  22.790  -5.627  0.00  0.00     0.163 HD
BRANCH  31  34
HETATM   34  C   UNK N   1      30.435  21.345  -3.865  0.00  0.00     0.278 C 
BRANCH  34  35
HETATM   35  O   UNK N   1      31.669  21.615  -4.415  0.00  0.00    -0.341 OA
BRANCH  35  36
HETATM   36  C   UNK N   1      31.874  21.992  -5.709  0.00  0.00     0.081 A 
HETATM   37  C   UNK N   1      31.502  21.188  -6.826  0.00  0.00    -0.028 A 
HETATM   38  C   UNK N   1      31.707  21.665  -8.122  0.00  0.00     0.009 A 
HETATM   39  C   UNK N   1      30.916  19.823  -6.686  0.00  0.00     0.051 C 
HETATM   40  C   UNK N   1      32.273  22.920  -8.337  0.00  0.00     0.001 A 
HETATM   41  C   UNK N   1      32.662  23.704  -7.254  0.00  0.00     0.009 A 
HETATM   42  C   UNK N   1      32.473  23.246  -5.948  0.00  0.00    -0.028 A 
HETATM   43  C   UNK N   1      32.894  24.117  -4.813  0.00  0.00     0.051 C 
ENDBRANCH  35  36
ENDBRANCH  34  35
ENDBRANCH  31  34
ENDBRANCH  29  30
BRANCH  29  44
HETATM   44  C   UNK N   1      28.770  25.454  -3.747  0.00  0.00     0.066 C 
BRANCH  44  45
HETATM   45  C   UNK N   1      29.771  26.380  -4.364  0.00  0.00    -0.056 A 
HETATM   46  C   UNK N   1      30.129  26.182  -5.702  0.00  0.00     0.007 A 
HETATM   47  C   UNK N   1      31.050  27.035  -6.317  0.00  0.00     0.001 A 
HETATM   48  C   UNK N   1      31.616  28.090  -5.596  0.00  0.00     0.000 A 
HETATM   49  C   UNK N   1      31.265  28.291  -4.258  0.00  0.00     0.001 A 
HETATM   50  C   UNK N   1      30.345  27.439  -3.643  0.00  0.00     0.007 A 
ENDBRANCH  44  45
ENDBRANCH  29  44
ENDBRANCH  26  29
ENDBRANCH   1  26
TORSDOF 16
ENDMDL
MODEL 9
REMARK VINA RESULT:      -6.2     17.506     22.321
REMARK  16 active torsions:
REMARK  status: ('A' for Active; 'I' for Inactive)
REMARK    1  A    between atoms: C_13  and  O_1 
REMARK    2  A    between atoms: O_5  and  C_32 
REMARK    3  A    between atoms: O_5  and  C_39 
REMARK    4  A    between atoms: N_6  and  C_11 
REMARK    5  A    between atoms: C_10  and  N_7 
REMARK       I    between atoms: N_7  and  C_17 
REMARK    6  A    between atoms: C_15  and  N_8 
REMARK       I    between atoms: N_8  and  C_27 
REMARK    7  A    between atoms: C_10  and  C_12 
REMARK    8  A    between atoms: C_10  and  C_16 
REMARK    9  A    between atoms: C_11  and  C_14 
REMARK   10  A    between atoms: C_11  and  C_17 
REMARK   11  A    between atoms: C_12  and  C_13 
REMARK   12  A    between atoms: C_13  and  C_15 
REMARK   13  A    between atoms: C_15  and  C_20 
REMARK   14  A    between atoms: C_16  and  C_25 
REMARK   15  A    between atoms: C_20  and  C_26 
REMARK   16  A    between atoms: C_27  and  C_32 
ROOT
HETATM    1  C   UNK N   1      25.801  24.367  -4.490  0.00  0.00     0.059 C 
ENDROOT
BRANCH   1   2
HETATM    2  C   UNK N   1      25.914  24.715  -5.971  0.00  0.00     0.091 C 
BRANCH   2   3
HETATM    3  N   UNK N   1      25.226  23.735  -6.804  0.00  0.00    -0.354 N 
HETATM    4  C   UNK N   1      25.527  23.430  -8.110  0.00  0.00     0.241 C 
HETATM    5  O   UNK N   1      24.911  22.528  -8.653  0.00  0.00    -0.271 OA
HETATM    6  H   UNK N   1      24.476  23.247  -6.393  0.00  0.00     0.162 HD
BRANCH   4   7
HETATM    7  C   UNK N   1      26.634  24.131  -8.905  0.00  0.00     0.184 C 
BRANCH   7   8
HETATM    8  N   UNK N   1      26.100  24.672 -10.169  0.00  0.00    -0.320 N 
HETATM    9  C   UNK N   1      25.638  26.047 -10.128  0.00  0.00     0.130 C 
HETATM   10  C   UNK N   1      24.373  26.203 -10.946  0.00  0.00     0.040 C 
HETATM   11  C   UNK N   1      24.715  25.828 -12.380  0.00  0.00     0.126 C 
HETATM   12  N   UNK N   1      25.387  24.546 -12.438  0.00  0.00    -0.343 N 
HETATM   13  C   UNK N   1      26.012  23.984 -11.367  0.00  0.00     0.319 C 
HETATM   14  H   UNK N   1      25.394  24.058 -13.293  0.00  0.00     0.164 HD
HETATM   15  O   UNK N   1      26.456  22.858 -11.492  0.00  0.00    -0.247 OA
ENDBRANCH   7   8
BRANCH   7  16
HETATM   16  C   UNK N   1      27.938  23.297  -8.951  0.00  0.00     0.010 C 
HETATM   17  C   UNK N   1      29.185  23.994  -9.479  0.00  0.00     0.012 C 
HETATM   18  C   UNK N   1      28.190  22.445  -7.717  0.00  0.00     0.012 C 
ENDBRANCH   7  16
ENDBRANCH   4   7
ENDBRANCH   2   3
BRANCH   2  19
HETATM   19  C   UNK N   1      25.329  26.140  -6.021  0.00  0.00     0.063 C 
BRANCH  19  20
HETATM   20  C   UNK N   1      26.026  27.389  -5.576  0.00  0.00    -0.056 A 
HETATM   21  C   UNK N   1      25.756  28.032  -4.364  0.00  0.00     0.007 A 
HETATM   22  C   UNK N   1      26.427  29.221  -4.042  0.00  0.00     0.001 A 
HETATM   23  C   UNK N   1      27.363  29.766  -4.929  0.00  0.00     0.000 A 
HETATM   24  C   UNK N   1      27.632  29.124  -6.139  0.00  0.00     0.001 A 
HETATM   25  C   UNK N   1      26.960  27.944  -6.461  0.00  0.00     0.007 A 
ENDBRANCH  19  20
ENDBRANCH   2  19
ENDBRANCH   1   2
BRANCH   1  26
HETATM   26  C   UNK N   1      27.122  23.949  -3.820  0.00  0.00     0.143 C 
BRANCH  26  27
HETATM   27  O   UNK N   1      27.179  24.084  -2.427  0.00  0.00    -0.393 OA
HETATM   28  H   UNK N   1      26.910  24.512  -1.599  0.00  0.00     0.210 HD
ENDBRANCH  26  27
BRANCH  26  29
HETATM   29  C   UNK N   1      28.408  24.364  -4.502  0.00  0.00     0.117 C 
BRANCH  29  30
HETATM   30  N   UNK N   1      29.376  23.294  -4.351  0.00  0.00    -0.352 N 
HETATM   31  C   UNK N   1      30.205  23.138  -3.285  0.00  0.00     0.242 C 
HETATM   32  O   UNK N   1      30.233  23.957  -2.379  0.00  0.00    -0.271 OA
HETATM   33  H   UNK N   1      29.437  22.630  -5.076  0.00  0.00     0.163 HD
BRANCH  31  34
HETATM   34  C   UNK N   1      31.087  21.948  -3.208  0.00  0.00     0.278 C 
BRANCH  34  35
HETATM   35  O   UNK N   1      32.225  22.135  -3.961  0.00  0.00    -0.341 OA
BRANCH  35  36
HETATM   36  C   UNK N   1      32.241  22.286  -5.316  0.00  0.00     0.081 A 
HETATM   37  C   UNK N   1      31.844  21.259  -6.221  0.00  0.00    -0.028 A 
HETATM   38  C   UNK N   1      31.848  21.507  -7.595  0.00  0.00     0.009 A 
HETATM   39  C   UNK N   1      31.440  19.894  -5.775  0.00  0.00     0.051 C 
HETATM   40  C   UNK N   1      32.237  22.749  -8.093  0.00  0.00     0.001 A 
HETATM   41  C   UNK N   1      32.649  23.751  -7.219  0.00  0.00     0.009 A 
HETATM   42  C   UNK N   1      32.660  23.526  -5.840  0.00  0.00    -0.028 A 
HETATM   43  C   UNK N   1      33.100  24.626  -4.936  0.00  0.00     0.051 C 
ENDBRANCH  35  36
ENDBRANCH  34  35
ENDBRANCH  31  34
ENDBRANCH  29  30
BRANCH  29  44
HETATM   44  C   UNK N   1      28.909  25.708  -3.952  0.00  0.00     0.066 C 
BRANCH  44  45
HETATM   45  C   UNK N   1      29.810  26.489  -4.857  0.00  0.00    -0.056 A 
HETATM   46  C   UNK N   1      29.869  26.135  -6.209  0.00  0.00     0.007 A 
HETATM   47  C   UNK N   1      30.688  26.850  -7.088  0.00  0.00     0.001 A 
HETATM   48  C   UNK N   1      31.452  27.921  -6.617  0.00  0.00     0.000 A 
HETATM   49  C   UNK N   1      31.400  28.277  -5.267  0.00  0.00     0.001 A 
HETATM   50  C   UNK N   1      30.582  27.563  -4.388  0.00  0.00     0.007 A 
ENDBRANCH  44  45
ENDBRANCH  29  44
ENDBRANCH  26  29
ENDBRANCH   1  26
TORSDOF 16
ENDMDL
