MODEL 1
REMARK VINA RESULT:      -7.5      0.000      0.000
REMARK  11 active torsions:
REMARK  status: ('A' for Active; 'I' for Inactive)
REMARK    1  A    between atoms: O_3  and  C_19 
REMARK    2  A    between atoms: O_3  and  C_22 
REMARK    3  A    between atoms: O_6  and  C_22 
REMARK    4  A    between atoms: O_6  and  C_29 
REMARK    5  A    between atoms: O_7  and  C_29 
REMARK    6  A    between atoms: O_7  and  C_31 
REMARK    7  A    between atoms: C_15  and  N_10 
REMARK       I    between atoms: N_10  and  C_20 
REMARK    8  A    between atoms: C_21  and  N_11 
REMARK    9  A    between atoms: C_14  and  C_19 
REMARK   10  A    between atoms: C_20  and  C_21 
REMARK   11  A    between atoms: C_21  and  C_23 
ROOT
HETATM    1  S   UNK N   1      35.994  11.848   9.678  0.00  0.00    -0.135 SA
HETATM    2  O   UNK N   1      35.990  14.343  12.974  0.00  0.00    -0.277 OA
HETATM    3  N   UNK N   1      37.230  13.353  11.348  0.00  0.00    -0.220 NA
HETATM    4  C   UNK N   1      37.029  11.957  11.178  0.00  0.00     0.160 A 
HETATM    5  C   UNK N   1      36.905  13.300   9.017  0.00  0.00     0.028 C 
HETATM    6  C   UNK N   1      37.160  14.256  10.210  0.00  0.00     0.184 C 
HETATM    7  C   UNK N   1      36.277  11.945  12.610  0.00  0.00     0.199 A 
HETATM    8  C   UNK N   1      36.590  13.393  12.496  0.00  0.00     0.227 A 
HETATM    9  C   UNK N   1      36.184  13.923   7.833  0.00  0.00     0.029 C 
HETATM   10  C   UNK N   1      38.247  12.806   8.501  0.00  0.00     0.029 C 
ENDROOT
BRANCH   7  11
HETATM   11  N   UNK N   1      37.170  11.371  13.587  0.00  0.00    -0.344 N 
HETATM   12  C   UNK N   1      36.782  10.949  14.813  0.00  0.00     0.245 C 
HETATM   13  O   UNK N   1      37.607  10.424  15.545  0.00  0.00    -0.271 OA
HETATM   14  H   UNK N   1      38.121  11.281  13.347  0.00  0.00     0.163 HD
BRANCH  12  15
HETATM   15  C   UNK N   1      35.359  11.085  15.290  0.00  0.00     0.201 C 
BRANCH  15  16
HETATM   16  N   UNK N   1      34.754   9.762  15.358  0.00  0.00    -0.415 N 
HETATM   17  H   UNK N   1      34.744   9.217  16.220  0.00  0.00     0.151 HD
HETATM   18  H   UNK N   1      34.328   9.370  14.519  0.00  0.00     0.151 HD
ENDBRANCH  15  16
BRANCH  15  19
HETATM   19  C   UNK N   1      35.340  11.766  16.640  0.00  0.00    -0.027 A 
HETATM   20  C   UNK N   1      35.336  10.994  17.810  0.00  0.00     0.010 A 
HETATM   21  C   UNK N   1      35.285  11.614  19.063  0.00  0.00     0.001 A 
HETATM   22  C   UNK N   1      35.220  13.008  19.153  0.00  0.00     0.000 A 
HETATM   23  C   UNK N   1      35.217  13.784  17.993  0.00  0.00     0.001 A 
HETATM   24  C   UNK N   1      35.281  13.167  16.741  0.00  0.00     0.010 A 
ENDBRANCH  15  19
ENDBRANCH  12  15
ENDBRANCH   7  11
BRANCH   6  25
HETATM   25  C   UNK N   1      36.189  15.417  10.430  0.00  0.00     0.281 C 
HETATM   26  O   UNK N   1      36.604  16.534  10.696  0.00  0.00    -0.263 OA
BRANCH  25  27
HETATM   27  O   UNK N   1      34.846  15.220  10.335  0.00  0.00    -0.288 OA
BRANCH  27  28
HETATM   28  C   UNK N   1      34.077  15.757   9.319  0.00  0.00     0.277 C 
HETATM   29  C   UNK N   1      32.616  15.338   9.443  0.00  0.00     0.072 C 
BRANCH  28  30
HETATM   30  O   UNK N   1      34.196  17.134   9.273  0.00  0.00    -0.266 OA
BRANCH  30  31
HETATM   31  C   UNK N   1      34.540  17.852   8.174  0.00  0.00     0.408 C 
HETATM   32  O   UNK N   1      34.816  19.044   8.270  0.00  0.00    -0.229 OA
BRANCH  31  33
HETATM   33  O   UNK N   1      34.549  17.240   6.967  0.00  0.00    -0.298 OA
BRANCH  33  34
HETATM   34  C   UNK N   1      33.698  17.595   5.947  0.00  0.00     0.176 C 
HETATM   35  C   UNK N   1      32.291  17.149   6.281  0.00  0.00     0.034 C 
ENDBRANCH  33  34
ENDBRANCH  31  33
ENDBRANCH  30  31
ENDBRANCH  28  30
ENDBRANCH  27  28
ENDBRANCH  25  27
ENDBRANCH   6  25
TORSDOF 11
ENDMDL
MODEL 2
REMARK VINA RESULT:      -7.3      1.622      2.547
REMARK  11 active torsions:
REMARK  status: ('A' for Active; 'I' for Inactive)
REMARK    1  A    between atoms: O_3  and  C_19 
REMARK    2  A    between atoms: O_3  and  C_22 
REMARK    3  A    between atoms: O_6  and  C_22 
REMARK    4  A    between atoms: O_6  and  C_29 
REMARK    5  A    between atoms: O_7  and  C_29 
REMARK    6  A    between atoms: O_7  and  C_31 
REMARK    7  A    between atoms: C_15  and  N_10 
REMARK       I    between atoms: N_10  and  C_20 
REMARK    8  A    between atoms: C_21  and  N_11 
REMARK    9  A    between atoms: C_14  and  C_19 
REMARK   10  A    between atoms: C_20  and  C_21 
REMARK   11  A    between atoms: C_21  and  C_23 
ROOT
HETATM    1  S   UNK N   1      35.295  12.090  10.306  0.00  0.00    -0.135 SA
HETATM    2  O   UNK N   1      34.948  16.124  11.140  0.00  0.00    -0.277 OA
HETATM    3  N   UNK N   1      36.315  14.439  10.464  0.00  0.00    -0.220 NA
HETATM    4  C   UNK N   1      36.301  13.269  11.270  0.00  0.00     0.160 A 
HETATM    5  C   UNK N   1      36.006  12.825   8.779  0.00  0.00     0.028 C 
HETATM    6  C   UNK N   1      36.128  14.350   9.024  0.00  0.00     0.184 C 
HETATM    7  C   UNK N   1      35.553  14.131  12.415  0.00  0.00     0.199 A 
HETATM    8  C   UNK N   1      35.671  15.163  11.354  0.00  0.00     0.227 A 
HETATM    9  C   UNK N   1      35.213  12.429   7.544  0.00  0.00     0.029 C 
HETATM   10  C   UNK N   1      37.404  12.253   8.601  0.00  0.00     0.029 C 
ENDROOT
BRANCH   7  11
HETATM   11  N   UNK N   1      36.511  14.443  13.448  0.00  0.00    -0.344 N 
HETATM   12  C   UNK N   1      36.618  13.764  14.614  0.00  0.00     0.245 C 
HETATM   13  O   UNK N   1      37.503  14.072  15.398  0.00  0.00    -0.271 OA
HETATM   14  H   UNK N   1      37.127  15.197  13.295  0.00  0.00     0.163 HD
BRANCH  12  15
HETATM   15  C   UNK N   1      35.695  12.624  14.960  0.00  0.00     0.201 C 
BRANCH  15  16
HETATM   16  N   UNK N   1      36.244  11.388  14.419  0.00  0.00    -0.415 N 
HETATM   17  H   UNK N   1      36.491  10.600  15.018  0.00  0.00     0.151 HD
HETATM   18  H   UNK N   1      36.385  11.309  13.413  0.00  0.00     0.151 HD
ENDBRANCH  15  16
BRANCH  15  19
HETATM   19  C   UNK N   1      35.534  12.541  16.461  0.00  0.00    -0.027 A 
HETATM   20  C   UNK N   1      35.207  13.692  17.192  0.00  0.00     0.010 A 
HETATM   21  C   UNK N   1      35.089  13.632  18.585  0.00  0.00     0.001 A 
HETATM   22  C   UNK N   1      35.313  12.427  19.257  0.00  0.00     0.000 A 
HETATM   23  C   UNK N   1      35.645  11.277  18.537  0.00  0.00     0.001 A 
HETATM   24  C   UNK N   1      35.752  11.333  17.145  0.00  0.00     0.010 A 
ENDBRANCH  15  19
ENDBRANCH  12  15
ENDBRANCH   7  11
BRANCH   6  25
HETATM   25  C   UNK N   1      35.010  15.258   8.510  0.00  0.00     0.281 C 
HETATM   26  O   UNK N   1      33.839  14.973   8.700  0.00  0.00    -0.263 OA
BRANCH  25  27
HETATM   27  O   UNK N   1      35.307  16.399   7.829  0.00  0.00    -0.288 OA
BRANCH  27  28
HETATM   28  C   UNK N   1      34.363  17.365   7.533  0.00  0.00     0.277 C 
HETATM   29  C   UNK N   1      34.625  18.655   8.304  0.00  0.00     0.072 C 
BRANCH  28  30
HETATM   30  O   UNK N   1      34.299  17.603   6.172  0.00  0.00    -0.266 OA
BRANCH  30  31
HETATM   31  C   UNK N   1      33.384  17.064   5.328  0.00  0.00     0.408 C 
HETATM   32  O   UNK N   1      33.720  16.220   4.503  0.00  0.00    -0.229 OA
BRANCH  31  33
HETATM   33  O   UNK N   1      32.100  17.488   5.392  0.00  0.00    -0.298 OA
BRANCH  33  34
HETATM   34  C   UNK N   1      31.077  16.693   5.855  0.00  0.00     0.176 C 
HETATM   35  C   UNK N   1      30.655  17.158   7.231  0.00  0.00     0.034 C 
ENDBRANCH  33  34
ENDBRANCH  31  33
ENDBRANCH  30  31
ENDBRANCH  28  30
ENDBRANCH  27  28
ENDBRANCH  25  27
ENDBRANCH   6  25
TORSDOF 11
ENDMDL
MODEL 3
REMARK VINA RESULT:      -7.1      2.213      2.795
REMARK  11 active torsions:
REMARK  status: ('A' for Active; 'I' for Inactive)
REMARK    1  A    between atoms: O_3  and  C_19 
REMARK    2  A    between atoms: O_3  and  C_22 
REMARK    3  A    between atoms: O_6  and  C_22 
REMARK    4  A    between atoms: O_6  and  C_29 
REMARK    5  A    between atoms: O_7  and  C_29 
REMARK    6  A    between atoms: O_7  and  C_31 
REMARK    7  A    between atoms: C_15  and  N_10 
REMARK       I    between atoms: N_10  and  C_20 
REMARK    8  A    between atoms: C_21  and  N_11 
REMARK    9  A    between atoms: C_14  and  C_19 
REMARK   10  A    between atoms: C_20  and  C_21 
REMARK   11  A    between atoms: C_21  and  C_23 
ROOT
HETATM    1  S   UNK N   1      34.586  13.087   9.951  0.00  0.00    -0.135 SA
HETATM    2  O   UNK N   1      35.051  16.779  11.750  0.00  0.00    -0.277 OA
HETATM    3  N   UNK N   1      36.018  15.142  10.506  0.00  0.00    -0.220 NA
HETATM    4  C   UNK N   1      35.882  13.821  11.008  0.00  0.00     0.160 A 
HETATM    5  C   UNK N   1      35.253  14.075   8.553  0.00  0.00     0.028 C 
HETATM    6  C   UNK N   1      35.669  15.452   9.129  0.00  0.00     0.184 C 
HETATM    7  C   UNK N   1      35.422  14.461  12.420  0.00  0.00     0.199 A 
HETATM    8  C   UNK N   1      35.610  15.701  11.625  0.00  0.00     0.227 A 
HETATM    9  C   UNK N   1      34.277  14.129   7.389  0.00  0.00     0.029 C 
HETATM   10  C   UNK N   1      36.501  13.370   8.044  0.00  0.00     0.029 C 
ENDROOT
BRANCH   7  11
HETATM   11  N   UNK N   1      36.524  14.355  13.347  0.00  0.00    -0.344 N 
HETATM   12  C   UNK N   1      36.477  13.653  14.503  0.00  0.00     0.245 C 
HETATM   13  O   UNK N   1      37.485  13.579  15.190  0.00  0.00    -0.271 OA
HETATM   14  H   UNK N   1      37.362  14.822  13.124  0.00  0.00     0.163 HD
BRANCH  12  15
HETATM   15  C   UNK N   1      35.228  12.941  14.954  0.00  0.00     0.201 C 
BRANCH  15  16
HETATM   16  N   UNK N   1      35.062  11.729  14.165  0.00  0.00    -0.415 N 
HETATM   17  H   UNK N   1      35.113  11.736  13.146  0.00  0.00     0.151 HD
HETATM   18  H   UNK N   1      34.891  10.846  14.646  0.00  0.00     0.151 HD
ENDBRANCH  15  16
BRANCH  15  19
HETATM   19  C   UNK N   1      35.330  12.625  16.429  0.00  0.00    -0.027 A 
HETATM   20  C   UNK N   1      35.637  11.321  16.843  0.00  0.00     0.010 A 
HETATM   21  C   UNK N   1      35.700  11.011  18.206  0.00  0.00     0.001 A 
HETATM   22  C   UNK N   1      35.441  11.998  19.162  0.00  0.00     0.000 A 
HETATM   23  C   UNK N   1      35.129  13.297  18.759  0.00  0.00     0.001 A 
HETATM   24  C   UNK N   1      35.077  13.612  17.398  0.00  0.00     0.010 A 
ENDBRANCH  15  19
ENDBRANCH  12  15
ENDBRANCH   7  11
BRANCH   6  25
HETATM   25  C   UNK N   1      34.683  16.615   9.011  0.00  0.00     0.281 C 
HETATM   26  O   UNK N   1      35.082  17.767   8.959  0.00  0.00    -0.263 OA
BRANCH  25  27
HETATM   27  O   UNK N   1      33.343  16.381   8.965  0.00  0.00    -0.288 OA
BRANCH  27  28
HETATM   28  C   UNK N   1      32.443  17.266   8.401  0.00  0.00     0.277 C 
HETATM   29  C   UNK N   1      32.572  17.301   6.882  0.00  0.00     0.072 C 
BRANCH  28  30
HETATM   30  O   UNK N   1      31.146  16.975   8.783  0.00  0.00    -0.266 OA
BRANCH  30  31
HETATM   31  C   UNK N   1      30.119  17.862   8.797  0.00  0.00     0.408 C 
HETATM   32  O   UNK N   1      30.255  18.964   9.321  0.00  0.00    -0.229 OA
BRANCH  31  33
HETATM   33  O   UNK N   1      28.935  17.504   8.247  0.00  0.00    -0.298 OA
BRANCH  33  34
HETATM   34  C   UNK N   1      28.840  16.908   7.011  0.00  0.00     0.176 C 
HETATM   35  C   UNK N   1      28.932  17.962   5.930  0.00  0.00     0.034 C 
ENDBRANCH  33  34
ENDBRANCH  31  33
ENDBRANCH  30  31
ENDBRANCH  28  30
ENDBRANCH  27  28
ENDBRANCH  25  27
ENDBRANCH   6  25
TORSDOF 11
ENDMDL
MODEL 4
REMARK VINA RESULT:      -7.1     10.464     13.604
REMARK  11 active torsions:
REMARK  status: ('A' for Active; 'I' for Inactive)
REMARK    1  A    between atoms: O_3  and  C_19 
REMARK    2  A    between atoms: O_3  and  C_22 
REMARK    3  A    between atoms: O_6  and  C_22 
REMARK    4  A    between atoms: O_6  and  C_29 
REMARK    5  A    between atoms: O_7  and  C_29 
REMARK    6  A    between atoms: O_7  and  C_31 
REMARK    7  A    between atoms: C_15  and  N_10 
REMARK       I    between atoms: N_10  and  C_20 
REMARK    8  A    between atoms: C_21  and  N_11 
REMARK    9  A    between atoms: C_14  and  C_19 
REMARK   10  A    between atoms: C_20  and  C_21 
REMARK   11  A    between atoms: C_21  and  C_23 
ROOT
HETATM    1  S   UNK N   1      22.035  17.986   5.700  0.00  0.00    -0.135 SA
HETATM    2  O   UNK N   1      24.899  15.006   5.647  0.00  0.00    -0.277 OA
HETATM    3  N   UNK N   1      23.081  15.905   4.623  0.00  0.00    -0.220 NA
HETATM    4  C   UNK N   1      21.968  16.177   5.463  0.00  0.00     0.160 A 
HETATM    5  C   UNK N   1      22.654  18.127   3.975  0.00  0.00     0.028 C 
HETATM    6  C   UNK N   1      23.609  16.930   3.737  0.00  0.00     0.184 C 
HETATM    7  C   UNK N   1      22.660  15.249   6.592  0.00  0.00     0.199 A 
HETATM    8  C   UNK N   1      23.696  15.176   5.529  0.00  0.00     0.227 A 
HETATM    9  C   UNK N   1      23.255  19.497   3.705  0.00  0.00     0.029 C 
HETATM   10  C   UNK N   1      21.461  17.983   3.044  0.00  0.00     0.029 C 
ENDROOT
BRANCH   7  11
HETATM   11  N   UNK N   1      21.968  13.983   6.626  0.00  0.00    -0.344 N 
HETATM   12  C   UNK N   1      21.432  13.442   7.745  0.00  0.00     0.245 C 
HETATM   13  O   UNK N   1      20.815  12.391   7.655  0.00  0.00    -0.271 OA
HETATM   14  H   UNK N   1      21.879  13.482   5.782  0.00  0.00     0.163 HD
BRANCH  12  15
HETATM   15  C   UNK N   1      21.552  14.109   9.090  0.00  0.00     0.201 C 
BRANCH  15  16
HETATM   16  N   UNK N   1      20.233  14.183   9.702  0.00  0.00    -0.415 N 
HETATM   17  H   UNK N   1      20.105  14.448  10.679  0.00  0.00     0.151 HD
HETATM   18  H   UNK N   1      19.413  13.963   9.137  0.00  0.00     0.151 HD
ENDBRANCH  15  16
BRANCH  15  19
HETATM   19  C   UNK N   1      22.516  13.331   9.957  0.00  0.00    -0.027 A 
HETATM   20  C   UNK N   1      23.871  13.263   9.606  0.00  0.00     0.010 A 
HETATM   21  C   UNK N   1      24.764  12.517  10.383  0.00  0.00     0.001 A 
HETATM   22  C   UNK N   1      24.305  11.822  11.506  0.00  0.00     0.000 A 
HETATM   23  C   UNK N   1      22.955  11.879  11.859  0.00  0.00     0.001 A 
HETATM   24  C   UNK N   1      22.064  12.633  11.091  0.00  0.00     0.010 A 
ENDBRANCH  15  19
ENDBRANCH  12  15
ENDBRANCH   7  11
BRANCH   6  25
HETATM   25  C   UNK N   1      25.112  17.155   3.914  0.00  0.00     0.281 C 
HETATM   26  O   UNK N   1      25.912  16.656   3.139  0.00  0.00    -0.263 OA
BRANCH  25  27
HETATM   27  O   UNK N   1      25.579  17.914   4.943  0.00  0.00    -0.288 OA
BRANCH  27  28
HETATM   28  C   UNK N   1      26.893  18.336   5.030  0.00  0.00     0.277 C 
HETATM   29  C   UNK N   1      27.051  19.772   4.542  0.00  0.00     0.072 C 
BRANCH  28  30
HETATM   30  O   UNK N   1      27.382  18.191   6.316  0.00  0.00    -0.266 OA
BRANCH  30  31
HETATM   31  C   UNK N   1      27.959  17.066   6.809  0.00  0.00     0.408 C 
HETATM   32  O   UNK N   1      28.034  16.053   6.121  0.00  0.00    -0.229 OA
BRANCH  31  33
HETATM   33  O   UNK N   1      28.427  17.071   8.079  0.00  0.00    -0.298 OA
BRANCH  33  34
HETATM   34  C   UNK N   1      28.229  18.126   8.940  0.00  0.00     0.176 C 
HETATM   35  C   UNK N   1      29.565  18.634   9.437  0.00  0.00     0.034 C 
ENDBRANCH  33  34
ENDBRANCH  31  33
ENDBRANCH  30  31
ENDBRANCH  28  30
ENDBRANCH  27  28
ENDBRANCH  25  27
ENDBRANCH   6  25
TORSDOF 11
ENDMDL
MODEL 5
REMARK VINA RESULT:      -7.0      1.952      2.725
REMARK  11 active torsions:
REMARK  status: ('A' for Active; 'I' for Inactive)
REMARK    1  A    between atoms: O_3  and  C_19 
REMARK    2  A    between atoms: O_3  and  C_22 
REMARK    3  A    between atoms: O_6  and  C_22 
REMARK    4  A    between atoms: O_6  and  C_29 
REMARK    5  A    between atoms: O_7  and  C_29 
REMARK    6  A    between atoms: O_7  and  C_31 
REMARK    7  A    between atoms: C_15  and  N_10 
REMARK       I    between atoms: N_10  and  C_20 
REMARK    8  A    between atoms: C_21  and  N_11 
REMARK    9  A    between atoms: C_14  and  C_19 
REMARK   10  A    between atoms: C_20  and  C_21 
REMARK   11  A    between atoms: C_21  and  C_23 
ROOT
HETATM    1  S   UNK N   1      36.752  12.029  10.158  0.00  0.00    -0.135 SA
HETATM    2  O   UNK N   1      34.558  15.335  11.316  0.00  0.00    -0.277 OA
HETATM    3  N   UNK N   1      36.561  14.551  10.584  0.00  0.00    -0.220 NA
HETATM    4  C   UNK N   1      37.080  13.429  11.283  0.00  0.00     0.160 A 
HETATM    5  C   UNK N   1      37.065  13.166   8.749  0.00  0.00     0.028 C 
HETATM    6  C   UNK N   1      36.461  14.540   9.134  0.00  0.00     0.184 C 
HETATM    7  C   UNK N   1      35.999  13.722  12.449  0.00  0.00     0.199 A 
HETATM    8  C   UNK N   1      35.641  14.799  11.491  0.00  0.00     0.227 A 
HETATM    9  C   UNK N   1      36.566  12.584   7.437  0.00  0.00     0.029 C 
HETATM   10  C   UNK N   1      38.572  13.325   8.611  0.00  0.00     0.029 C 
ENDROOT
BRANCH   7  11
HETATM   11  N   UNK N   1      36.686  14.328  13.564  0.00  0.00    -0.344 N 
HETATM   12  C   UNK N   1      36.745  13.787  14.803  0.00  0.00     0.245 C 
HETATM   13  O   UNK N   1      37.402  14.353  15.663  0.00  0.00    -0.271 OA
HETATM   14  H   UNK N   1      37.141  15.188  13.413  0.00  0.00     0.163 HD
BRANCH  12  15
HETATM   15  C   UNK N   1      36.044  12.497  15.145  0.00  0.00     0.201 C 
BRANCH  15  16
HETATM   16  N   UNK N   1      36.900  11.380  14.769  0.00  0.00    -0.415 N 
HETATM   17  H   UNK N   1      37.831  11.255  15.166  0.00  0.00     0.151 HD
HETATM   18  H   UNK N   1      36.557  10.702  14.088  0.00  0.00     0.151 HD
ENDBRANCH  15  16
BRANCH  15  19
HETATM   19  C   UNK N   1      35.726  12.470  16.622  0.00  0.00    -0.027 A 
HETATM   20  C   UNK N   1      35.319  13.645  17.270  0.00  0.00     0.010 A 
HETATM   21  C   UNK N   1      35.054  13.637  18.644  0.00  0.00     0.001 A 
HETATM   22  C   UNK N   1      35.210  12.459  19.381  0.00  0.00     0.000 A 
HETATM   23  C   UNK N   1      35.621  11.286  18.745  0.00  0.00     0.001 A 
HETATM   24  C   UNK N   1      35.874  11.289  17.371  0.00  0.00     0.010 A 
ENDBRANCH  15  19
ENDBRANCH  12  15
ENDBRANCH   7  11
BRANCH   6  25
HETATM   25  C   UNK N   1      35.057  14.881   8.630  0.00  0.00     0.281 C 
HETATM   26  O   UNK N   1      34.125  14.116   8.820  0.00  0.00    -0.263 OA
BRANCH  25  27
HETATM   27  O   UNK N   1      34.828  16.043   7.960  0.00  0.00    -0.288 OA
BRANCH  27  28
HETATM   28  C   UNK N   1      34.026  17.054   8.457  0.00  0.00     0.277 C 
HETATM   29  C   UNK N   1      34.694  18.417   8.316  0.00  0.00     0.072 C 
BRANCH  28  30
HETATM   30  O   UNK N   1      32.780  17.046   7.858  0.00  0.00    -0.266 OA
BRANCH  30  31
HETATM   31  C   UNK N   1      31.606  16.827   8.502  0.00  0.00     0.408 C 
HETATM   32  O   UNK N   1      31.472  15.856   9.240  0.00  0.00    -0.229 OA
BRANCH  31  33
HETATM   33  O   UNK N   1      30.575  17.681   8.298  0.00  0.00    -0.298 OA
BRANCH  33  34
HETATM   34  C   UNK N   1      29.864  18.247   9.331  0.00  0.00     0.176 C 
HETATM   35  C   UNK N   1      28.382  18.142   9.044  0.00  0.00     0.034 C 
ENDBRANCH  33  34
ENDBRANCH  31  33
ENDBRANCH  30  31
ENDBRANCH  28  30
ENDBRANCH  27  28
ENDBRANCH  25  27
ENDBRANCH   6  25
TORSDOF 11
ENDMDL
MODEL 6
REMARK VINA RESULT:      -7.0      8.730     12.680
REMARK  11 active torsions:
REMARK  status: ('A' for Active; 'I' for Inactive)
REMARK    1  A    between atoms: O_3  and  C_19 
REMARK    2  A    between atoms: O_3  and  C_22 
REMARK    3  A    between atoms: O_6  and  C_22 
REMARK    4  A    between atoms: O_6  and  C_29 
REMARK    5  A    between atoms: O_7  and  C_29 
REMARK    6  A    between atoms: O_7  and  C_31 
REMARK    7  A    between atoms: C_15  and  N_10 
REMARK       I    between atoms: N_10  and  C_20 
REMARK    8  A    between atoms: C_21  and  N_11 
REMARK    9  A    between atoms: C_14  and  C_19 
REMARK   10  A    between atoms: C_20  and  C_21 
REMARK   11  A    between atoms: C_21  and  C_23 
ROOT
HETATM    1  S   UNK N   1      27.196  14.291   3.458  0.00  0.00    -0.135 SA
HETATM    2  O   UNK N   1      27.931  17.955   5.225  0.00  0.00    -0.277 OA
HETATM    3  N   UNK N   1      27.358  16.848   3.325  0.00  0.00    -0.220 NA
HETATM    4  C   UNK N   1      28.185  15.748   2.976  0.00  0.00     0.160 A 
HETATM    5  C   UNK N   1      25.692  15.225   2.963  0.00  0.00     0.028 C 
HETATM    6  C   UNK N   1      25.913  16.698   3.391  0.00  0.00     0.184 C 
HETATM    7  C   UNK N   1      29.275  16.297   4.037  0.00  0.00     0.199 A 
HETATM    8  C   UNK N   1      28.200  17.305   4.226  0.00  0.00     0.227 A 
HETATM    9  C   UNK N   1      24.427  14.578   3.503  0.00  0.00     0.029 C 
HETATM   10  C   UNK N   1      25.596  15.174   1.447  0.00  0.00     0.029 C 
ENDROOT
BRANCH   7  11
HETATM   11  N   UNK N   1      30.348  16.924   3.303  0.00  0.00    -0.344 N 
HETATM   12  C   UNK N   1      31.661  16.711   3.552  0.00  0.00     0.245 C 
HETATM   13  O   UNK N   1      32.492  17.247   2.833  0.00  0.00    -0.271 OA
HETATM   14  H   UNK N   1      30.110  17.544   2.576  0.00  0.00     0.163 HD
BRANCH  12  15
HETATM   15  C   UNK N   1      32.126  15.816   4.670  0.00  0.00     0.201 C 
BRANCH  15  16
HETATM   16  N   UNK N   1      33.296  15.070   4.225  0.00  0.00    -0.415 N 
HETATM   17  H   UNK N   1      33.215  14.228   3.655  0.00  0.00     0.151 HD
HETATM   18  H   UNK N   1      34.223  15.401   4.491  0.00  0.00     0.151 HD
ENDBRANCH  15  16
BRANCH  15  19
HETATM   19  C   UNK N   1      32.442  16.651   5.890  0.00  0.00    -0.027 A 
HETATM   20  C   UNK N   1      33.733  17.168   6.067  0.00  0.00     0.010 A 
HETATM   21  C   UNK N   1      34.043  17.914   7.209  0.00  0.00     0.001 A 
HETATM   22  C   UNK N   1      33.070  18.134   8.189  0.00  0.00     0.000 A 
HETATM   23  C   UNK N   1      31.783  17.618   8.024  0.00  0.00     0.001 A 
HETATM   24  C   UNK N   1      31.468  16.883   6.878  0.00  0.00     0.010 A 
ENDBRANCH  15  19
ENDBRANCH  12  15
ENDBRANCH   7  11
BRANCH   6  25
HETATM   25  C   UNK N   1      25.326  17.162   4.725  0.00  0.00     0.281 C 
HETATM   26  O   UNK N   1      25.404  16.457   5.718  0.00  0.00    -0.263 OA
BRANCH  25  27
HETATM   27  O   UNK N   1      24.702  18.368   4.822  0.00  0.00    -0.288 OA
BRANCH  27  28
HETATM   28  C   UNK N   1      23.479  18.632   4.234  0.00  0.00     0.277 C 
HETATM   29  C   UNK N   1      22.326  18.122   5.092  0.00  0.00     0.072 C 
BRANCH  28  30
HETATM   30  O   UNK N   1      23.335  19.979   3.958  0.00  0.00    -0.266 OA
BRANCH  30  31
HETATM   31  C   UNK N   1      23.415  20.536   2.722  0.00  0.00     0.408 C 
HETATM   32  O   UNK N   1      24.498  20.891   2.269  0.00  0.00    -0.229 OA
BRANCH  31  33
HETATM   33  O   UNK N   1      22.278  20.716   2.009  0.00  0.00    -0.298 OA
BRANCH  33  34
HETATM   34  C   UNK N   1      21.039  20.813   2.597  0.00  0.00     0.176 C 
HETATM   35  C   UNK N   1      20.234  19.568   2.294  0.00  0.00     0.034 C 
ENDBRANCH  33  34
ENDBRANCH  31  33
ENDBRANCH  30  31
ENDBRANCH  28  30
ENDBRANCH  27  28
ENDBRANCH  25  27
ENDBRANCH   6  25
TORSDOF 11
ENDMDL
MODEL 7
REMARK VINA RESULT:      -6.7      1.440      1.920
REMARK  11 active torsions:
REMARK  status: ('A' for Active; 'I' for Inactive)
REMARK    1  A    between atoms: O_3  and  C_19 
REMARK    2  A    between atoms: O_3  and  C_22 
REMARK    3  A    between atoms: O_6  and  C_22 
REMARK    4  A    between atoms: O_6  and  C_29 
REMARK    5  A    between atoms: O_7  and  C_29 
REMARK    6  A    between atoms: O_7  and  C_31 
REMARK    7  A    between atoms: C_15  and  N_10 
REMARK       I    between atoms: N_10  and  C_20 
REMARK    8  A    between atoms: C_21  and  N_11 
REMARK    9  A    between atoms: C_14  and  C_19 
REMARK   10  A    between atoms: C_20  and  C_21 
REMARK   11  A    between atoms: C_21  and  C_23 
ROOT
HETATM    1  S   UNK N   1      35.337  12.487   9.417  0.00  0.00    -0.135 SA
HETATM    2  O   UNK N   1      35.516  15.185  12.544  0.00  0.00    -0.277 OA
HETATM    3  N   UNK N   1      36.645  14.154  10.864  0.00  0.00    -0.220 NA
HETATM    4  C   UNK N   1      36.504  12.742  10.797  0.00  0.00     0.160 A 
HETATM    5  C   UNK N   1      36.100  13.937   8.585  0.00  0.00     0.028 C 
HETATM    6  C   UNK N   1      36.417  14.978   9.688  0.00  0.00     0.184 C 
HETATM    7  C   UNK N   1      35.896  12.785  12.295  0.00  0.00     0.199 A 
HETATM    8  C   UNK N   1      36.118  14.236  12.066  0.00  0.00     0.227 A 
HETATM    9  C   UNK N   1      35.235  14.447   7.443  0.00  0.00     0.029 C 
HETATM   10  C   UNK N   1      37.411  13.476   7.967  0.00  0.00     0.029 C 
ENDROOT
BRANCH   7  11
HETATM   11  N   UNK N   1      36.909  12.319  13.211  0.00  0.00    -0.344 N 
HETATM   12  C   UNK N   1      36.644  11.776  14.422  0.00  0.00     0.245 C 
HETATM   13  O   UNK N   1      37.572  11.359  15.097  0.00  0.00    -0.271 OA
HETATM   14  H   UNK N   1      37.852  12.400  12.937  0.00  0.00     0.163 HD
BRANCH  12  15
HETATM   15  C   UNK N   1      35.238  11.650  14.949  0.00  0.00     0.201 C 
BRANCH  15  16
HETATM   16  N   UNK N   1      34.772  10.287  14.733  0.00  0.00    -0.415 N 
HETATM   17  H   UNK N   1      35.327   9.601  14.222  0.00  0.00     0.151 HD
HETATM   18  H   UNK N   1      33.863  10.011  15.104  0.00  0.00     0.151 HD
ENDBRANCH  15  16
BRANCH  15  19
HETATM   19  C   UNK N   1      35.213  12.010  16.417  0.00  0.00    -0.027 A 
HETATM   20  C   UNK N   1      35.187  13.357  16.805  0.00  0.00     0.010 A 
HETATM   21  C   UNK N   1      35.198  13.701  18.161  0.00  0.00     0.001 A 
HETATM   22  C   UNK N   1      35.252  12.702  19.137  0.00  0.00     0.000 A 
HETATM   23  C   UNK N   1      35.285  11.358  18.761  0.00  0.00     0.001 A 
HETATM   24  C   UNK N   1      35.262  11.012  17.407  0.00  0.00     0.010 A 
ENDBRANCH  15  19
ENDBRANCH  12  15
ENDBRANCH   7  11
BRANCH   6  25
HETATM   25  C   UNK N   1      35.409  16.103   9.935  0.00  0.00     0.281 C 
HETATM   26  O   UNK N   1      35.776  17.183  10.369  0.00  0.00    -0.263 OA
BRANCH  25  27
HETATM   27  O   UNK N   1      34.087  15.913   9.675  0.00  0.00    -0.288 OA
BRANCH  27  28
HETATM   28  C   UNK N   1      33.277  16.897   9.140  0.00  0.00     0.277 C 
HETATM   29  C   UNK N   1      33.934  17.570   7.940  0.00  0.00     0.072 C 
BRANCH  28  30
HETATM   30  O   UNK N   1      32.031  16.396   8.808  0.00  0.00    -0.266 OA
BRANCH  30  31
HETATM   31  C   UNK N   1      31.122  17.022   8.018  0.00  0.00     0.408 C 
HETATM   32  O   UNK N   1      30.565  18.046   8.402  0.00  0.00    -0.229 OA
BRANCH  31  33
HETATM   33  O   UNK N   1      30.821  16.488   6.812  0.00  0.00    -0.298 OA
BRANCH  33  34
HETATM   34  C   UNK N   1      30.579  17.258   5.698  0.00  0.00     0.176 C 
HETATM   35  C   UNK N   1      31.832  17.339   4.854  0.00  0.00     0.034 C 
ENDBRANCH  33  34
ENDBRANCH  31  33
ENDBRANCH  30  31
ENDBRANCH  28  30
ENDBRANCH  27  28
ENDBRANCH  25  27
ENDBRANCH   6  25
TORSDOF 11
ENDMDL
MODEL 8
REMARK VINA RESULT:      -6.7      7.695     11.146
REMARK  11 active torsions:
REMARK  status: ('A' for Active; 'I' for Inactive)
REMARK    1  A    between atoms: O_3  and  C_19 
REMARK    2  A    between atoms: O_3  and  C_22 
REMARK    3  A    between atoms: O_6  and  C_22 
REMARK    4  A    between atoms: O_6  and  C_29 
REMARK    5  A    between atoms: O_7  and  C_29 
REMARK    6  A    between atoms: O_7  and  C_31 
REMARK    7  A    between atoms: C_15  and  N_10 
REMARK       I    between atoms: N_10  and  C_20 
REMARK    8  A    between atoms: C_21  and  N_11 
REMARK    9  A    between atoms: C_14  and  C_19 
REMARK   10  A    between atoms: C_20  and  C_21 
REMARK   11  A    between atoms: C_21  and  C_23 
ROOT
HETATM    1  S   UNK N   1      31.850  14.003   3.304  0.00  0.00    -0.135 SA
HETATM    2  O   UNK N   1      30.575  17.595   4.903  0.00  0.00    -0.277 OA
HETATM    3  N   UNK N   1      31.268  15.473   5.324  0.00  0.00    -0.220 NA
HETATM    4  C   UNK N   1      30.622  14.451   4.579  0.00  0.00     0.160 A 
HETATM    5  C   UNK N   1      33.166  14.318   4.547  0.00  0.00     0.028 C 
HETATM    6  C   UNK N   1      32.719  15.548   5.378  0.00  0.00     0.184 C 
HETATM    7  C   UNK N   1      29.488  15.532   4.179  0.00  0.00     0.199 A 
HETATM    8  C   UNK N   1      30.388  16.392   4.990  0.00  0.00     0.227 A 
HETATM    9  C   UNK N   1      34.534  14.439   3.896  0.00  0.00     0.029 C 
HETATM   10  C   UNK N   1      33.227  13.111   5.470  0.00  0.00     0.029 C 
ENDROOT
BRANCH   7  11
HETATM   11  N   UNK N   1      28.307  15.261   4.963  0.00  0.00    -0.344 N 
HETATM   12  C   UNK N   1      27.087  15.787   4.702  0.00  0.00     0.245 C 
HETATM   13  O   UNK N   1      26.139  15.448   5.393  0.00  0.00    -0.271 OA
HETATM   14  H   UNK N   1      28.393  14.656   5.735  0.00  0.00     0.163 HD
BRANCH  12  15
HETATM   15  C   UNK N   1      26.862  16.757   3.571  0.00  0.00     0.201 C 
BRANCH  15  16
HETATM   16  N   UNK N   1      25.708  16.321   2.796  0.00  0.00    -0.415 N 
HETATM   17  H   UNK N   1      25.214  16.950   2.163  0.00  0.00     0.151 HD
HETATM   18  H   UNK N   1      25.386  15.358   2.889  0.00  0.00     0.151 HD
ENDBRANCH  15  16
BRANCH  15  19
HETATM   19  C   UNK N   1      26.653  18.146   4.129  0.00  0.00    -0.027 A 
HETATM   20  C   UNK N   1      25.643  18.964   3.603  0.00  0.00     0.010 A 
HETATM   21  C   UNK N   1      25.465  20.264   4.090  0.00  0.00     0.001 A 
HETATM   22  C   UNK N   1      26.304  20.759   5.092  0.00  0.00     0.000 A 
HETATM   23  C   UNK N   1      27.316  19.953   5.617  0.00  0.00     0.001 A 
HETATM   24  C   UNK N   1      27.488  18.651   5.141  0.00  0.00     0.010 A 
ENDBRANCH  15  19
ENDBRANCH  12  15
ENDBRANCH   7  11
BRANCH   6  25
HETATM   25  C   UNK N   1      33.260  16.923   4.984  0.00  0.00     0.281 C 
HETATM   26  O   UNK N   1      33.279  17.274   3.816  0.00  0.00    -0.263 OA
BRANCH  25  27
HETATM   27  O   UNK N   1      33.732  17.776   5.935  0.00  0.00    -0.288 OA
BRANCH  27  28
HETATM   28  C   UNK N   1      33.521  17.586   7.288  0.00  0.00     0.277 C 
HETATM   29  C   UNK N   1      34.609  18.253   8.122  0.00  0.00     0.072 C 
BRANCH  28  30
HETATM   30  O   UNK N   1      32.265  18.025   7.666  0.00  0.00    -0.266 OA
BRANCH  30  31
HETATM   31  C   UNK N   1      31.440  17.380   8.530  0.00  0.00     0.408 C 
HETATM   32  O   UNK N   1      31.576  16.179   8.742  0.00  0.00    -0.229 OA
BRANCH  31  33
HETATM   33  O   UNK N   1      30.449  18.077   9.135  0.00  0.00    -0.298 OA
BRANCH  33  34
HETATM   34  C   UNK N   1      29.337  18.524   8.460  0.00  0.00     0.176 C 
HETATM   35  C   UNK N   1      28.096  17.893   9.052  0.00  0.00     0.034 C 
ENDBRANCH  33  34
ENDBRANCH  31  33
ENDBRANCH  30  31
ENDBRANCH  28  30
ENDBRANCH  27  28
ENDBRANCH  25  27
ENDBRANCH   6  25
TORSDOF 11
ENDMDL
MODEL 9
REMARK VINA RESULT:      -6.6     18.355     22.351
REMARK  11 active torsions:
REMARK  status: ('A' for Active; 'I' for Inactive)
REMARK    1  A    between atoms: O_3  and  C_19 
REMARK    2  A    between atoms: O_3  and  C_22 
REMARK    3  A    between atoms: O_6  and  C_22 
REMARK    4  A    between atoms: O_6  and  C_29 
REMARK    5  A    between atoms: O_7  and  C_29 
REMARK    6  A    between atoms: O_7  and  C_31 
REMARK    7  A    between atoms: C_15  and  N_10 
REMARK       I    between atoms: N_10  and  C_20 
REMARK    8  A    between atoms: C_21  and  N_11 
REMARK    9  A    between atoms: C_14  and  C_19 
REMARK   10  A    between atoms: C_20  and  C_21 
REMARK   11  A    between atoms: C_21  and  C_23 
ROOT
HETATM    1  S   UNK N   1      30.390  21.179  -9.306  0.00  0.00    -0.135 SA
HETATM    2  O   UNK N   1      28.959  22.654  -5.720  0.00  0.00    -0.277 OA
HETATM    3  N   UNK N   1      29.043  20.884  -7.142  0.00  0.00    -0.220 NA
HETATM    4  C   UNK N   1      28.750  21.168  -8.503  0.00  0.00     0.160 A 
HETATM    5  C   UNK N   1      30.897  19.842  -8.151  0.00  0.00     0.028 C 
HETATM    6  C   UNK N   1      30.251  20.160  -6.779  0.00  0.00     0.184 C 
HETATM    7  C   UNK N   1      28.143  22.587  -8.021  0.00  0.00     0.199 A 
HETATM    8  C   UNK N   1      28.596  22.045  -6.714  0.00  0.00     0.227 A 
HETATM    9  C   UNK N   1      32.406  19.662  -8.130  0.00  0.00     0.029 C 
HETATM   10  C   UNK N   1      30.309  18.539  -8.669  0.00  0.00     0.029 C 
ENDROOT
BRANCH   7  11
HETATM   11  N   UNK N   1      26.703  22.503  -8.063  0.00  0.00    -0.344 N 
HETATM   12  C   UNK N   1      25.882  23.577  -8.125  0.00  0.00     0.245 C 
HETATM   13  O   UNK N   1      24.678  23.395  -8.215  0.00  0.00    -0.271 OA
HETATM   14  H   UNK N   1      26.292  21.608  -8.045  0.00  0.00     0.163 HD
BRANCH  12  15
HETATM   15  C   UNK N   1      26.412  24.988  -8.112  0.00  0.00     0.201 C 
BRANCH  15  16
HETATM   16  N   UNK N   1      25.768  25.746  -9.176  0.00  0.00    -0.415 N 
HETATM   17  H   UNK N   1      25.469  26.712  -9.046  0.00  0.00     0.151 HD
HETATM   18  H   UNK N   1      25.613  25.296 -10.078  0.00  0.00     0.151 HD
ENDBRANCH  15  16
BRANCH  15  19
HETATM   19  C   UNK N   1      26.154  25.614  -6.761  0.00  0.00    -0.027 A 
HETATM   20  C   UNK N   1      25.264  26.692  -6.650  0.00  0.00     0.010 A 
HETATM   21  C   UNK N   1      25.044  27.299  -5.409  0.00  0.00     0.001 A 
HETATM   22  C   UNK N   1      25.723  26.844  -4.275  0.00  0.00     0.000 A 
HETATM   23  C   UNK N   1      26.616  25.775  -4.377  0.00  0.00     0.001 A 
HETATM   24  C   UNK N   1      26.828  25.160  -5.614  0.00  0.00     0.010 A 
ENDBRANCH  15  19
ENDBRANCH  12  15
ENDBRANCH   7  11
BRANCH   6  25
HETATM   25  C   UNK N   1      31.094  20.892  -5.733  0.00  0.00     0.281 C 
HETATM   26  O   UNK N   1      31.809  21.827  -6.054  0.00  0.00    -0.263 OA
BRANCH  25  27
HETATM   27  O   UNK N   1      31.061  20.506  -4.429  0.00  0.00    -0.288 OA
BRANCH  27  28
HETATM   28  C   UNK N   1      31.597  21.267  -3.406  0.00  0.00     0.277 C 
HETATM   29  C   UNK N   1      33.108  21.087  -3.309  0.00  0.00     0.072 C 
BRANCH  28  30
HETATM   30  O   UNK N   1      31.262  22.601  -3.544  0.00  0.00    -0.266 OA
BRANCH  30  31
HETATM   31  C   UNK N   1      30.688  23.366  -2.582  0.00  0.00     0.408 C 
HETATM   32  O   UNK N   1      30.458  22.899  -1.471  0.00  0.00    -0.229 OA
BRANCH  31  33
HETATM   33  O   UNK N   1      30.351  24.645  -2.873  0.00  0.00    -0.298 OA
BRANCH  33  34
HETATM   34  C   UNK N   1      30.684  25.248  -4.064  0.00  0.00     0.176 C 
HETATM   35  C   UNK N   1      30.472  26.742  -3.952  0.00  0.00     0.034 C 
ENDBRANCH  33  34
ENDBRANCH  31  33
ENDBRANCH  30  31
ENDBRANCH  28  30
ENDBRANCH  27  28
ENDBRANCH  25  27
ENDBRANCH   6  25
TORSDOF 11
ENDMDL
