MODEL 1
REMARK VINA RESULT:      -7.3      0.000      0.000
REMARK  6 active torsions:
REMARK  status: ('A' for Active; 'I' for Inactive)
REMARK    1  A    between atoms: O_3  and  C_17 
REMARK    2  A    between atoms: O_6  and  C_20 
REMARK    3  A    between atoms: O_7  and  C_21 
REMARK    4  A    between atoms: C_13  and  N_9 
REMARK       I    between atoms: N_9  and  C_18 
REMARK    5  A    between atoms: C_12  and  C_17 
REMARK    6  A    between atoms: C_18  and  C_19 
ROOT
HETATM    1  S   UNK N   1      36.779  13.780   8.407  0.00  0.00    -0.135 SA
HETATM    2  O   UNK N   1      35.602  17.206  10.382  0.00  0.00    -0.277 OA
HETATM    3  N   UNK N   1      35.239  15.008  10.112  0.00  0.00    -0.219 NA
HETATM    4  C   UNK N   1      35.159  14.539   8.767  0.00  0.00     0.160 A 
HETATM    5  C   UNK N   1      36.977  13.398  10.182  0.00  0.00     0.029 C 
HETATM    6  C   UNK N   1      36.320  14.560  10.949  0.00  0.00     0.182 C 
HETATM    7  C   UNK N   1      35.028  16.067   8.302  0.00  0.00     0.199 A 
HETATM    8  C   UNK N   1      35.098  16.268   9.778  0.00  0.00     0.227 A 
HETATM    9  C   UNK N   1      36.295  12.060  10.440  0.00  0.00     0.029 C 
HETATM   10  C   UNK N   1      38.446  13.299  10.539  0.00  0.00     0.029 C 
ENDROOT
BRANCH   7  11
HETATM   11  N   UNK N   1      33.745  16.300   7.653  0.00  0.00    -0.342 N 
HETATM   12  C   UNK N   1      33.412  17.234   6.724  0.00  0.00     0.258 C 
HETATM   13  O   UNK N   1      34.249  18.029   6.324  0.00  0.00    -0.267 OA
HETATM   14  H   UNK N   1      33.018  15.696   7.926  0.00  0.00     0.163 HD
BRANCH  12  15
HETATM   15  C   UNK N   1      32.039  17.208   6.108  0.00  0.00     0.098 A 
HETATM   16  C   UNK N   1      30.899  17.304   6.955  0.00  0.00     0.086 A 
HETATM   17  C   UNK N   1      29.613  17.371   6.393  0.00  0.00     0.038 A 
HETATM   18  C   UNK N   1      29.433  17.354   5.017  0.00  0.00     0.005 A 
HETATM   19  C   UNK N   1      30.533  17.250   4.177  0.00  0.00     0.038 A 
HETATM   20  C   UNK N   1      31.830  17.160   4.687  0.00  0.00     0.086 A 
BRANCH  16  21
HETATM   21  O   UNK N   1      31.054  17.374   8.302  0.00  0.00    -0.355 OA
HETATM   22  C   UNK N   1      30.438  18.317   9.093  0.00  0.00     0.210 C 
ENDBRANCH  16  21
BRANCH  20  23
HETATM   23  O   UNK N   1      32.826  17.008   3.780  0.00  0.00    -0.355 OA
HETATM   24  C   UNK N   1      33.154  15.798   3.209  0.00  0.00     0.210 C 
ENDBRANCH  20  23
ENDBRANCH  12  15
ENDBRANCH   7  11
BRANCH   6  25
HETATM   25  C   UNK N   1      35.915  14.235  12.363  0.00  0.00     0.160 C 
HETATM   26  O   UNK N   1      34.751  13.963  12.613  0.00  0.00    -0.649 OA
BRANCH  25  27
HETATM   27  O   UNK N   1      36.829  14.218  13.351  0.00  0.00    -0.775 OA
HETATM   28  H   UNK N   1      37.477  13.597  13.621  0.00  0.00     0.167 HD
ENDBRANCH  25  27
ENDBRANCH   6  25
TORSDOF 6
ENDMDL
MODEL 2
REMARK VINA RESULT:      -7.2      0.264      2.570
REMARK  6 active torsions:
REMARK  status: ('A' for Active; 'I' for Inactive)
REMARK    1  A    between atoms: O_3  and  C_17 
REMARK    2  A    between atoms: O_6  and  C_20 
REMARK    3  A    between atoms: O_7  and  C_21 
REMARK    4  A    between atoms: C_13  and  N_9 
REMARK       I    between atoms: N_9  and  C_18 
REMARK    5  A    between atoms: C_12  and  C_17 
REMARK    6  A    between atoms: C_18  and  C_19 
ROOT
HETATM    1  S   UNK N   1      36.606  13.744   8.511  0.00  0.00    -0.135 SA
HETATM    2  O   UNK N   1      35.672  17.232  10.509  0.00  0.00    -0.277 OA
HETATM    3  N   UNK N   1      35.193  15.053  10.267  0.00  0.00    -0.219 NA
HETATM    4  C   UNK N   1      35.039  14.583   8.928  0.00  0.00     0.160 A 
HETATM    5  C   UNK N   1      36.853  13.361  10.280  0.00  0.00     0.029 C 
HETATM    6  C   UNK N   1      36.282  14.557  11.064  0.00  0.00     0.182 C 
HETATM    7  C   UNK N   1      34.965  16.114   8.459  0.00  0.00     0.199 A 
HETATM    8  C   UNK N   1      35.101  16.317   9.931  0.00  0.00     0.227 A 
HETATM    9  C   UNK N   1      36.117  12.059  10.571  0.00  0.00     0.029 C 
HETATM   10  C   UNK N   1      38.328  13.192  10.582  0.00  0.00     0.029 C 
ENDROOT
BRANCH   7  11
HETATM   11  N   UNK N   1      33.671  16.406   7.858  0.00  0.00    -0.342 N 
HETATM   12  C   UNK N   1      33.361  17.307   6.889  0.00  0.00     0.258 C 
HETATM   13  O   UNK N   1      34.231  18.012   6.403  0.00  0.00    -0.267 OA
HETATM   14  H   UNK N   1      32.916  15.876   8.201  0.00  0.00     0.163 HD
BRANCH  12  15
HETATM   15  C   UNK N   1      31.959  17.351   6.342  0.00  0.00     0.098 A 
HETATM   16  C   UNK N   1      31.763  17.294   4.933  0.00  0.00     0.086 A 
HETATM   17  C   UNK N   1      30.461  17.245   4.409  0.00  0.00     0.038 A 
HETATM   18  C   UNK N   1      29.354  17.243   5.245  0.00  0.00     0.005 A 
HETATM   19  C   UNK N   1      29.525  17.310   6.621  0.00  0.00     0.038 A 
HETATM   20  C   UNK N   1      30.799  17.381   7.191  0.00  0.00     0.086 A 
BRANCH  16  21
HETATM   21  O   UNK N   1      32.833  17.243   4.098  0.00  0.00    -0.355 OA
HETATM   22  C   UNK N   1      32.911  16.405   3.009  0.00  0.00     0.210 C 
ENDBRANCH  16  21
BRANCH  20  23
HETATM   23  O   UNK N   1      30.851  17.496   8.540  0.00  0.00    -0.355 OA
HETATM   24  C   UNK N   1      30.057  18.363   9.258  0.00  0.00     0.210 C 
ENDBRANCH  20  23
ENDBRANCH  12  15
ENDBRANCH   7  11
BRANCH   6  25
HETATM   25  C   UNK N   1      35.917  14.258  12.495  0.00  0.00     0.160 C 
HETATM   26  O   UNK N   1      34.770  13.944  12.774  0.00  0.00    -0.649 OA
BRANCH  25  27
HETATM   27  O   UNK N   1      36.847  14.310  13.466  0.00  0.00    -0.775 OA
HETATM   28  H   UNK N   1      37.550  13.742  13.718  0.00  0.00     0.167 HD
ENDBRANCH  25  27
ENDBRANCH   6  25
TORSDOF 6
ENDMDL
MODEL 3
REMARK VINA RESULT:      -6.8      2.400      8.110
REMARK  6 active torsions:
REMARK  status: ('A' for Active; 'I' for Inactive)
REMARK    1  A    between atoms: O_3  and  C_17 
REMARK    2  A    between atoms: O_6  and  C_20 
REMARK    3  A    between atoms: O_7  and  C_21 
REMARK    4  A    between atoms: C_13  and  N_9 
REMARK       I    between atoms: N_9  and  C_18 
REMARK    5  A    between atoms: C_12  and  C_17 
REMARK    6  A    between atoms: C_18  and  C_19 
ROOT
HETATM    1  S   UNK N   1      31.887  15.296   9.555  0.00  0.00    -0.135 SA
HETATM    2  O   UNK N   1      35.449  17.287  10.170  0.00  0.00    -0.277 OA
HETATM    3  N   UNK N   1      34.384  15.732   8.952  0.00  0.00    -0.219 NA
HETATM    4  C   UNK N   1      33.629  14.765   9.680  0.00  0.00     0.160 A 
HETATM    5  C   UNK N   1      32.264  16.103   7.959  0.00  0.00     0.029 C 
HETATM    6  C   UNK N   1      33.699  16.648   8.080  0.00  0.00     0.182 C 
HETATM    7  C   UNK N   1      34.377  15.262  11.007  0.00  0.00     0.199 A 
HETATM    8  C   UNK N   1      35.046  16.143  10.006  0.00  0.00     0.227 A 
HETATM    9  C   UNK N   1      32.124  15.046   6.870  0.00  0.00     0.029 C 
HETATM   10  C   UNK N   1      31.293  17.236   7.699  0.00  0.00     0.029 C 
ENDROOT
BRANCH   7  11
HETATM   11  N   UNK N   1      35.167  14.184  11.586  0.00  0.00    -0.342 N 
HETATM   12  C   UNK N   1      36.030  14.223  12.635  0.00  0.00     0.258 C 
HETATM   13  O   UNK N   1      36.228  15.272  13.230  0.00  0.00    -0.267 OA
HETATM   14  H   UNK N   1      35.061  13.304  11.158  0.00  0.00     0.163 HD
BRANCH  12  15
HETATM   15  C   UNK N   1      36.652  12.944  13.130  0.00  0.00     0.098 A 
HETATM   16  C   UNK N   1      36.503  12.586  14.499  0.00  0.00     0.086 A 
HETATM   17  C   UNK N   1      37.000  11.355  14.959  0.00  0.00     0.038 A 
HETATM   18  C   UNK N   1      37.631  10.472  14.095  0.00  0.00     0.005 A 
HETATM   19  C   UNK N   1      37.794  10.810  12.758  0.00  0.00     0.038 A 
HETATM   20  C   UNK N   1      37.336  12.031  12.256  0.00  0.00     0.086 A 
BRANCH  16  21
HETATM   21  O   UNK N   1      35.844  13.412  15.353  0.00  0.00    -0.355 OA
HETATM   22  C   UNK N   1      34.736  13.035  16.076  0.00  0.00     0.210 C 
ENDBRANCH  16  21
BRANCH  20  23
HETATM   23  O   UNK N   1      37.596  12.282  10.950  0.00  0.00    -0.355 OA
HETATM   24  C   UNK N   1      38.698  12.983  10.517  0.00  0.00     0.210 C 
ENDBRANCH  20  23
ENDBRANCH  12  15
ENDBRANCH   7  11
BRANCH   6  25
HETATM   25  C   UNK N   1      34.395  16.892   6.767  0.00  0.00     0.160 C 
HETATM   26  O   UNK N   1      34.213  17.942   6.171  0.00  0.00    -0.649 OA
BRANCH  25  27
HETATM   27  O   UNK N   1      35.235  15.974   6.255  0.00  0.00    -0.775 OA
HETATM   28  H   UNK N   1      35.726  15.920   5.458  0.00  0.00     0.167 HD
ENDBRANCH  25  27
ENDBRANCH   6  25
TORSDOF 6
ENDMDL
MODEL 4
REMARK VINA RESULT:      -6.5      2.216      2.724
REMARK  6 active torsions:
REMARK  status: ('A' for Active; 'I' for Inactive)
REMARK    1  A    between atoms: O_3  and  C_17 
REMARK    2  A    between atoms: O_6  and  C_20 
REMARK    3  A    between atoms: O_7  and  C_21 
REMARK    4  A    between atoms: C_13  and  N_9 
REMARK       I    between atoms: N_9  and  C_18 
REMARK    5  A    between atoms: C_12  and  C_17 
REMARK    6  A    between atoms: C_18  and  C_19 
ROOT
HETATM    1  S   UNK N   1      36.172  11.281   9.441  0.00  0.00    -0.135 SA
HETATM    2  O   UNK N   1      37.571  15.125   9.979  0.00  0.00    -0.277 OA
HETATM    3  N   UNK N   1      35.892  13.693  10.385  0.00  0.00    -0.219 NA
HETATM    4  C   UNK N   1      35.421  12.935   9.271  0.00  0.00     0.160 A 
HETATM    5  C   UNK N   1      36.240  11.514  11.252  0.00  0.00     0.029 C 
HETATM    6  C   UNK N   1      36.522  13.010  11.483  0.00  0.00     0.182 C 
HETATM    7  C   UNK N   1      36.236  13.936   8.320  0.00  0.00     0.199 A 
HETATM    8  C   UNK N   1      36.542  14.555   9.642  0.00  0.00     0.227 A 
HETATM    9  C   UNK N   1      34.896  11.072  11.818  0.00  0.00     0.029 C 
HETATM   10  C   UNK N   1      37.348  10.673  11.851  0.00  0.00     0.029 C 
ENDROOT
BRANCH   7  11
HETATM   11  N   UNK N   1      35.331  14.655   7.434  0.00  0.00    -0.342 N 
HETATM   12  C   UNK N   1      35.551  15.119   6.176  0.00  0.00     0.258 C 
HETATM   13  O   UNK N   1      36.636  14.951   5.640  0.00  0.00    -0.267 OA
HETATM   14  H   UNK N   1      34.433  14.830   7.799  0.00  0.00     0.163 HD
BRANCH  12  15
HETATM   15  C   UNK N   1      34.416  15.740   5.407  0.00  0.00     0.098 A 
HETATM   16  C   UNK N   1      33.980  17.050   5.753  0.00  0.00     0.086 A 
HETATM   17  C   UNK N   1      32.982  17.680   4.990  0.00  0.00     0.038 A 
HETATM   18  C   UNK N   1      32.417  17.047   3.893  0.00  0.00     0.005 A 
HETATM   19  C   UNK N   1      32.822  15.766   3.547  0.00  0.00     0.038 A 
HETATM   20  C   UNK N   1      33.796  15.088   4.286  0.00  0.00     0.086 A 
BRANCH  16  21
HETATM   21  O   UNK N   1      34.555  17.708   6.792  0.00  0.00    -0.355 OA
HETATM   22  C   UNK N   1      33.856  18.165   7.886  0.00  0.00     0.210 C 
ENDBRANCH  16  21
BRANCH  20  23
HETATM   23  O   UNK N   1      34.079  13.822   3.894  0.00  0.00    -0.355 OA
HETATM   24  C   UNK N   1      33.342  13.137   2.953  0.00  0.00     0.210 C 
ENDBRANCH  20  23
ENDBRANCH  12  15
ENDBRANCH   7  11
BRANCH   6  25
HETATM   25  C   UNK N   1      36.126  13.524  12.843  0.00  0.00     0.160 C 
HETATM   26  O   UNK N   1      35.020  14.014  13.006  0.00  0.00    -0.649 OA
BRANCH  25  27
HETATM   27  O   UNK N   1      36.971  13.427  13.885  0.00  0.00    -0.775 OA
HETATM   28  H   UNK N   1      37.898  13.534  13.978  0.00  0.00     0.167 HD
ENDBRANCH  25  27
ENDBRANCH   6  25
TORSDOF 6
ENDMDL
MODEL 5
REMARK VINA RESULT:      -6.4      2.801      3.747
REMARK  6 active torsions:
REMARK  status: ('A' for Active; 'I' for Inactive)
REMARK    1  A    between atoms: O_3  and  C_17 
REMARK    2  A    between atoms: O_6  and  C_20 
REMARK    3  A    between atoms: O_7  and  C_21 
REMARK    4  A    between atoms: C_13  and  N_9 
REMARK       I    between atoms: N_9  and  C_18 
REMARK    5  A    between atoms: C_12  and  C_17 
REMARK    6  A    between atoms: C_18  and  C_19 
ROOT
HETATM    1  S   UNK N   1      36.151  11.287  11.795  0.00  0.00    -0.135 SA
HETATM    2  O   UNK N   1      36.297  15.164  13.201  0.00  0.00    -0.277 OA
HETATM    3  N   UNK N   1      35.094  13.272  13.110  0.00  0.00    -0.219 NA
HETATM    4  C   UNK N   1      34.958  12.668  11.825  0.00  0.00     0.160 A 
HETATM    5  C   UNK N   1      36.005  11.142  13.610  0.00  0.00     0.029 C 
HETATM    6  C   UNK N   1      35.810  12.573  14.143  0.00  0.00     0.182 C 
HETATM    7  C   UNK N   1      35.510  14.032  11.188  0.00  0.00     0.199 A 
HETATM    8  C   UNK N   1      35.514  14.417  12.629  0.00  0.00     0.227 A 
HETATM    9  C   UNK N   1      34.813  10.237  13.900  0.00  0.00     0.029 C 
HETATM   10  C   UNK N   1      37.263  10.531  14.193  0.00  0.00     0.029 C 
ENDROOT
BRANCH   7  11
HETATM   11  N   UNK N   1      34.504  14.644  10.332  0.00  0.00    -0.342 N 
HETATM   12  C   UNK N   1      34.565  14.925   9.004  0.00  0.00     0.258 C 
HETATM   13  O   UNK N   1      35.572  14.659   8.365  0.00  0.00    -0.267 OA
HETATM   14  H   UNK N   1      33.661  14.889  10.778  0.00  0.00     0.163 HD
BRANCH  12  15
HETATM   15  C   UNK N   1      33.345  15.462   8.304  0.00  0.00     0.098 A 
HETATM   16  C   UNK N   1      33.090  16.862   8.332  0.00  0.00     0.086 A 
HETATM   17  C   UNK N   1      32.006  17.390   7.611  0.00  0.00     0.038 A 
HETATM   18  C   UNK N   1      31.179  16.568   6.861  0.00  0.00     0.005 A 
HETATM   19  C   UNK N   1      31.406  15.199   6.830  0.00  0.00     0.038 A 
HETATM   20  C   UNK N   1      32.458  14.622   7.546  0.00  0.00     0.086 A 
BRANCH  16  21
HETATM   21  O   UNK N   1      33.917  17.692   9.019  0.00  0.00    -0.355 OA
HETATM   22  C   UNK N   1      34.800  18.558   8.417  0.00  0.00     0.210 C 
ENDBRANCH  16  21
BRANCH  20  23
HETATM   23  O   UNK N   1      32.557  13.271   7.490  0.00  0.00    -0.355 OA
HETATM   24  C   UNK N   1      33.166  12.598   6.455  0.00  0.00     0.210 C 
ENDBRANCH  20  23
ENDBRANCH  12  15
ENDBRANCH   7  11
BRANCH   6  25
HETATM   25  C   UNK N   1      35.174  12.659  15.506  0.00  0.00     0.160 C 
HETATM   26  O   UNK N   1      34.037  13.089  15.618  0.00  0.00    -0.649 OA
BRANCH  25  27
HETATM   27  O   UNK N   1      35.839  12.243  16.600  0.00  0.00    -0.775 OA
HETATM   28  H   UNK N   1      35.675  12.312  17.521  0.00  0.00     0.167 HD
ENDBRANCH  25  27
ENDBRANCH   6  25
TORSDOF 6
ENDMDL
MODEL 6
REMARK VINA RESULT:      -6.4      3.158      4.754
REMARK  6 active torsions:
REMARK  status: ('A' for Active; 'I' for Inactive)
REMARK    1  A    between atoms: O_3  and  C_17 
REMARK    2  A    between atoms: O_6  and  C_20 
REMARK    3  A    between atoms: O_7  and  C_21 
REMARK    4  A    between atoms: C_13  and  N_9 
REMARK       I    between atoms: N_9  and  C_18 
REMARK    5  A    between atoms: C_12  and  C_17 
REMARK    6  A    between atoms: C_18  and  C_19 
ROOT
HETATM    1  S   UNK N   1      36.047  10.846  12.891  0.00  0.00    -0.135 SA
HETATM    2  O   UNK N   1      36.414  14.871  13.727  0.00  0.00    -0.277 OA
HETATM    3  N   UNK N   1      35.067  13.078  13.813  0.00  0.00    -0.219 NA
HETATM    4  C   UNK N   1      34.973  12.298  12.622  0.00  0.00     0.160 A 
HETATM    5  C   UNK N   1      35.761  10.988  14.690  0.00  0.00     0.029 C 
HETATM    6  C   UNK N   1      35.649  12.493  14.992  0.00  0.00     0.182 C 
HETATM    7  C   UNK N   1      35.679  13.506  11.842  0.00  0.00     0.199 A 
HETATM    8  C   UNK N   1      35.613  14.104  13.207  0.00  0.00     0.227 A 
HETATM    9  C   UNK N   1      34.481  10.225  15.009  0.00  0.00     0.029 C 
HETATM   10  C   UNK N   1      36.920  10.384  15.457  0.00  0.00     0.029 C 
ENDROOT
BRANCH   7  11
HETATM   11  N   UNK N   1      34.790  14.053  10.826  0.00  0.00    -0.342 N 
HETATM   12  C   UNK N   1      35.097  14.783   9.722  0.00  0.00     0.258 C 
HETATM   13  O   UNK N   1      36.260  15.065   9.475  0.00  0.00    -0.267 OA
HETATM   14  H   UNK N   1      33.833  13.867  10.958  0.00  0.00     0.163 HD
BRANCH  12  15
HETATM   15  C   UNK N   1      34.008  15.144   8.748  0.00  0.00     0.098 A 
HETATM   16  C   UNK N   1      33.324  14.105   8.057  0.00  0.00     0.086 A 
HETATM   17  C   UNK N   1      32.247  14.417   7.211  0.00  0.00     0.038 A 
HETATM   18  C   UNK N   1      31.829  15.729   7.042  0.00  0.00     0.005 A 
HETATM   19  C   UNK N   1      32.491  16.757   7.699  0.00  0.00     0.038 A 
HETATM   20  C   UNK N   1      33.581  16.500   8.536  0.00  0.00     0.086 A 
BRANCH  16  21
HETATM   21  O   UNK N   1      33.683  12.809   8.246  0.00  0.00    -0.355 OA
HETATM   22  C   UNK N   1      33.452  11.811   7.327  0.00  0.00     0.210 C 
ENDBRANCH  16  21
BRANCH  20  23
HETATM   23  O   UNK N   1      34.187  17.580   9.085  0.00  0.00    -0.355 OA
HETATM   24  C   UNK N   1      34.735  18.602   8.343  0.00  0.00     0.210 C 
ENDBRANCH  20  23
ENDBRANCH  12  15
ENDBRANCH   7  11
BRANCH   6  25
HETATM   25  C   UNK N   1      34.928  12.829  16.271  0.00  0.00     0.160 C 
HETATM   26  O   UNK N   1      33.829  13.359  16.226  0.00  0.00    -0.649 OA
BRANCH  25  27
HETATM   27  O   UNK N   1      35.473  12.529  17.465  0.00  0.00    -0.775 OA
HETATM   28  H   UNK N   1      35.979  11.806  17.780  0.00  0.00     0.167 HD
ENDBRANCH  25  27
ENDBRANCH   6  25
TORSDOF 6
ENDMDL
MODEL 7
REMARK VINA RESULT:      -6.3     13.957     16.433
REMARK  6 active torsions:
REMARK  status: ('A' for Active; 'I' for Inactive)
REMARK    1  A    between atoms: O_3  and  C_17 
REMARK    2  A    between atoms: O_6  and  C_20 
REMARK    3  A    between atoms: O_7  and  C_21 
REMARK    4  A    between atoms: C_13  and  N_9 
REMARK       I    between atoms: N_9  and  C_18 
REMARK    5  A    between atoms: C_12  and  C_17 
REMARK    6  A    between atoms: C_18  and  C_19 
ROOT
HETATM    1  S   UNK N   1      33.049  24.293  -5.188  0.00  0.00    -0.135 SA
HETATM    2  O   UNK N   1      30.913  22.973  -1.913  0.00  0.00    -0.277 OA
HETATM    3  N   UNK N   1      31.229  22.762  -4.125  0.00  0.00    -0.219 NA
HETATM    4  C   UNK N   1      31.279  23.974  -4.876  0.00  0.00     0.160 A 
HETATM    5  C   UNK N   1      33.373  22.497  -5.100  0.00  0.00     0.029 C 
HETATM    6  C   UNK N   1      32.403  21.935  -4.044  0.00  0.00     0.182 C 
HETATM    7  C   UNK N   1      30.688  24.729  -3.592  0.00  0.00     0.199 A 
HETATM    8  C   UNK N   1      30.710  23.333  -3.065  0.00  0.00     0.227 A 
HETATM    9  C   UNK N   1      33.130  21.922  -6.490  0.00  0.00     0.029 C 
HETATM   10  C   UNK N   1      34.807  22.240  -4.685  0.00  0.00     0.029 C 
ENDROOT
BRANCH   7  11
HETATM   11  N   UNK N   1      29.388  25.313  -3.892  0.00  0.00    -0.342 N 
HETATM   12  C   UNK N   1      29.054  26.619  -4.059  0.00  0.00     0.258 C 
HETATM   13  O   UNK N   1      29.905  27.489  -3.958  0.00  0.00    -0.267 OA
HETATM   14  H   UNK N   1      28.648  24.671  -3.987  0.00  0.00     0.163 HD
BRANCH  12  15
HETATM   15  C   UNK N   1      27.653  26.977  -4.479  0.00  0.00     0.098 A 
HETATM   16  C   UNK N   1      27.139  26.448  -5.696  0.00  0.00     0.086 A 
HETATM   17  C   UNK N   1      25.806  26.698  -6.061  0.00  0.00     0.038 A 
HETATM   18  C   UNK N   1      24.972  27.451  -5.246  0.00  0.00     0.005 A 
HETATM   19  C   UNK N   1      25.460  27.983  -4.060  0.00  0.00     0.038 A 
HETATM   20  C   UNK N   1      26.784  27.780  -3.663  0.00  0.00     0.086 A 
BRANCH  16  21
HETATM   21  O   UNK N   1      27.921  25.666  -6.485  0.00  0.00    -0.355 OA
HETATM   22  C   UNK N   1      27.544  24.424  -6.942  0.00  0.00     0.210 C 
ENDBRANCH  16  21
BRANCH  20  23
HETATM   23  O   UNK N   1      27.171  28.389  -2.516  0.00  0.00    -0.355 OA
HETATM   24  C   UNK N   1      27.558  29.709  -2.452  0.00  0.00     0.210 C 
ENDBRANCH  20  23
ENDBRANCH  12  15
ENDBRANCH   7  11
BRANCH   6  25
HETATM   25  C   UNK N   1      32.131  20.458  -4.159  0.00  0.00     0.160 C 
HETATM   26  O   UNK N   1      31.058  20.072  -4.595  0.00  0.00    -0.649 OA
BRANCH  25  27
HETATM   27  O   UNK N   1      33.069  19.559  -3.807  0.00  0.00    -0.775 OA
HETATM   28  H   UNK N   1      33.032  18.669  -3.513  0.00  0.00     0.167 HD
ENDBRANCH  25  27
ENDBRANCH   6  25
TORSDOF 6
ENDMDL
MODEL 8
REMARK VINA RESULT:      -6.2     13.816     16.188
REMARK  6 active torsions:
REMARK  status: ('A' for Active; 'I' for Inactive)
REMARK    1  A    between atoms: O_3  and  C_17 
REMARK    2  A    between atoms: O_6  and  C_20 
REMARK    3  A    between atoms: O_7  and  C_21 
REMARK    4  A    between atoms: C_13  and  N_9 
REMARK       I    between atoms: N_9  and  C_18 
REMARK    5  A    between atoms: C_12  and  C_17 
REMARK    6  A    between atoms: C_18  and  C_19 
ROOT
HETATM    1  S   UNK N   1      33.013  24.222  -5.190  0.00  0.00    -0.135 SA
HETATM    2  O   UNK N   1      30.981  22.844  -1.873  0.00  0.00    -0.277 OA
HETATM    3  N   UNK N   1      31.308  22.595  -4.079  0.00  0.00    -0.219 NA
HETATM    4  C   UNK N   1      31.271  23.787  -4.864  0.00  0.00     0.160 A 
HETATM    5  C   UNK N   1      33.463  22.457  -5.054  0.00  0.00     0.029 C 
HETATM    6  C   UNK N   1      32.538  21.857  -3.981  0.00  0.00     0.182 C 
HETATM    7  C   UNK N   1      30.629  24.533  -3.599  0.00  0.00     0.199 A 
HETATM    8  C   UNK N   1      30.751  23.158  -3.034  0.00  0.00     0.227 A 
HETATM    9  C   UNK N   1      33.260  21.828  -6.428  0.00  0.00     0.029 C 
HETATM   10  C   UNK N   1      34.913  22.313  -4.637  0.00  0.00     0.029 C 
ENDROOT
BRANCH   7  11
HETATM   11  N   UNK N   1      29.291  25.014  -3.910  0.00  0.00    -0.342 N 
HETATM   12  C   UNK N   1      28.899  26.247  -4.326  0.00  0.00     0.258 C 
HETATM   13  O   UNK N   1      29.724  27.134  -4.484  0.00  0.00    -0.267 OA
HETATM   14  H   UNK N   1      28.568  24.354  -3.804  0.00  0.00     0.163 HD
BRANCH  12  15
HETATM   15  C   UNK N   1      27.459  26.480  -4.697  0.00  0.00     0.098 A 
HETATM   16  C   UNK N   1      26.742  27.534  -4.065  0.00  0.00     0.086 A 
HETATM   17  C   UNK N   1      25.426  27.823  -4.462  0.00  0.00     0.038 A 
HETATM   18  C   UNK N   1      24.810  27.099  -5.473  0.00  0.00     0.005 A 
HETATM   19  C   UNK N   1      25.490  26.060  -6.093  0.00  0.00     0.038 A 
HETATM   20  C   UNK N   1      26.793  25.721  -5.720  0.00  0.00     0.086 A 
BRANCH  16  21
HETATM   21  O   UNK N   1      27.342  28.289  -3.109  0.00  0.00    -0.355 OA
HETATM   22  C   UNK N   1      27.126  29.640  -2.956  0.00  0.00     0.210 C 
ENDBRANCH  16  21
BRANCH  20  23
HETATM   23  O   UNK N   1      27.344  24.656  -6.354  0.00  0.00    -0.355 OA
HETATM   24  C   UNK N   1      26.716  23.437  -6.473  0.00  0.00     0.210 C 
ENDBRANCH  20  23
ENDBRANCH  12  15
ENDBRANCH   7  11
BRANCH   6  25
HETATM   25  C   UNK N   1      32.371  20.362  -4.053  0.00  0.00     0.160 C 
HETATM   26  O   UNK N   1      31.334  19.888  -4.490  0.00  0.00    -0.649 OA
BRANCH  25  27
HETATM   27  O   UNK N   1      33.364  19.541  -3.664  0.00  0.00    -0.775 OA
HETATM   28  H   UNK N   1      34.274  19.672  -3.476  0.00  0.00     0.167 HD
ENDBRANCH  25  27
ENDBRANCH   6  25
TORSDOF 6
ENDMDL
MODEL 9
REMARK VINA RESULT:      -6.1      1.998      7.640
REMARK  6 active torsions:
REMARK  status: ('A' for Active; 'I' for Inactive)
REMARK    1  A    between atoms: O_3  and  C_17 
REMARK    2  A    between atoms: O_6  and  C_20 
REMARK    3  A    between atoms: O_7  and  C_21 
REMARK    4  A    between atoms: C_13  and  N_9 
REMARK       I    between atoms: N_9  and  C_18 
REMARK    5  A    between atoms: C_12  and  C_17 
REMARK    6  A    between atoms: C_18  and  C_19 
ROOT
HETATM    1  S   UNK N   1      31.240  16.201   8.425  0.00  0.00    -0.135 SA
HETATM    2  O   UNK N   1      34.706  18.102   7.243  0.00  0.00    -0.277 OA
HETATM    3  N   UNK N   1      33.284  16.418   6.824  0.00  0.00    -0.219 NA
HETATM    4  C   UNK N   1      32.901  15.618   7.942  0.00  0.00     0.160 A 
HETATM    5  C   UNK N   1      30.936  16.717   6.700  0.00  0.00     0.029 C 
HETATM    6  C   UNK N   1      32.288  17.208   6.152  0.00  0.00     0.182 C 
HETATM    7  C   UNK N   1      34.101  16.292   8.763  0.00  0.00     0.199 A 
HETATM    8  C   UNK N   1      34.299  16.966   7.447  0.00  0.00     0.227 A 
HETATM    9  C   UNK N   1      30.401  15.503   5.949  0.00  0.00     0.029 C 
HETATM   10  C   UNK N   1      29.914  17.835   6.656  0.00  0.00     0.029 C 
ENDROOT
BRANCH   7  11
HETATM   11  N   UNK N   1      35.081  15.289   9.157  0.00  0.00    -0.342 N 
HETATM   12  C   UNK N   1      36.105  15.394  10.045  0.00  0.00     0.258 C 
HETATM   13  O   UNK N   1      36.300  16.445  10.638  0.00  0.00    -0.267 OA
HETATM   14  H   UNK N   1      34.989  14.413   8.719  0.00  0.00     0.163 HD
BRANCH  12  15
HETATM   15  C   UNK N   1      36.925  14.176  10.377  0.00  0.00     0.098 A 
HETATM   16  C   UNK N   1      36.780  13.571  11.657  0.00  0.00     0.086 A 
HETATM   17  C   UNK N   1      37.471  12.384  11.952  0.00  0.00     0.038 A 
HETATM   18  C   UNK N   1      38.291  11.782  11.008  0.00  0.00     0.005 A 
HETATM   19  C   UNK N   1      38.452  12.363   9.759  0.00  0.00     0.038 A 
HETATM   20  C   UNK N   1      37.803  13.555   9.423  0.00  0.00     0.086 A 
BRANCH  16  21
HETATM   21  O   UNK N   1      35.944  14.115  12.578  0.00  0.00    -0.355 OA
HETATM   22  C   UNK N   1      36.342  14.498  13.838  0.00  0.00     0.210 C 
ENDBRANCH  16  21
BRANCH  20  23
HETATM   23  O   UNK N   1      38.073  14.064   8.197  0.00  0.00    -0.355 OA
HETATM   24  C   UNK N   1      39.178  13.711   7.455  0.00  0.00     0.210 C 
ENDBRANCH  20  23
ENDBRANCH  12  15
ENDBRANCH   7  11
BRANCH   6  25
HETATM   25  C   UNK N   1      32.401  17.202   4.650  0.00  0.00     0.160 C 
HETATM   26  O   UNK N   1      33.138  16.397   4.101  0.00  0.00    -0.649 OA
BRANCH  25  27
HETATM   27  O   UNK N   1      31.680  18.059   3.904  0.00  0.00    -0.775 OA
HETATM   28  H   UNK N   1      30.799  18.377   3.956  0.00  0.00     0.167 HD
ENDBRANCH  25  27
ENDBRANCH   6  25
TORSDOF 6
ENDMDL
