REMARK  6 active torsions:
REMARK  status: ('A' for Active; 'I' for Inactive)
REMARK    1  A    between atoms: O_3  and  C_17 
REMARK    2  A    between atoms: O_6  and  C_20 
REMARK    3  A    between atoms: O_7  and  C_21 
REMARK    4  A    between atoms: C_13  and  N_9 
REMARK       I    between atoms: N_9  and  C_18 
REMARK    5  A    between atoms: C_12  and  C_17 
REMARK    6  A    between atoms: C_18  and  C_19 
ROOT
HETATM    1  S   UNK N   1       8.780   1.039   0.720  0.00  0.00    -0.135 SA
HETATM    2  O   UNK N   1       5.761  -1.399   2.124  0.00  0.00    -0.277 OA
HETATM    3  N   UNK N   1       6.910  -0.730   0.316  0.00  0.00    -0.219 NA
HETATM    4  C   UNK N   1       7.081   0.678   0.159  0.00  0.00     0.160 A 
HETATM    5  C   UNK N   1       9.278  -0.655   0.251  0.00  0.00     0.029 C 
HETATM    6  C   UNK N   1       8.065  -1.557   0.541  0.00  0.00     0.182 C 
HETATM    7  C   UNK N   1       5.957   0.883   1.283  0.00  0.00     0.199 A 
HETATM    8  C   UNK N   1       5.961  -0.607   1.212  0.00  0.00     0.227 A 
HETATM    9  C   UNK N   1       9.653  -0.627  -1.226  0.00  0.00     0.029 C 
HETATM   10  C   UNK N   1      10.471  -1.100   1.072  0.00  0.00     0.029 C 
ENDROOT
BRANCH   7  11
HETATM   11  N   UNK N   1       4.801   1.578   0.734  0.00  0.00    -0.342 N 
HETATM   12  C   UNK N   1       3.688   1.061   0.151  0.00  0.00     0.258 C 
HETATM   13  O   UNK N   1       3.562  -0.148   0.030  0.00  0.00    -0.267 OA
HETATM   14  H   UNK N   1       4.830   2.560   0.794  0.00  0.00     0.163 HD
BRANCH  12  15
HETATM   15  C   UNK N   1       2.563   1.981  -0.242  0.00  0.00     0.098 A 
HETATM   16  C   UNK N   1       1.247   1.453  -0.364  0.00  0.00     0.086 A 
HETATM   17  C   UNK N   1       0.171   2.312  -0.643  0.00  0.00     0.038 A 
HETATM   18  C   UNK N   1       0.368   3.677  -0.795  0.00  0.00     0.005 A 
HETATM   19  C   UNK N   1       1.646   4.208  -0.690  0.00  0.00     0.038 A 
HETATM   20  C   UNK N   1       2.752   3.393  -0.434  0.00  0.00     0.086 A 
BRANCH  16  21
HETATM   21  O   UNK N   1       1.023   0.128  -0.169  0.00  0.00    -0.355 OA
HETATM   22  C   UNK N   1      -0.227  -0.447  -0.200  0.00  0.00     0.210 C 
ENDBRANCH  16  21
BRANCH  20  23
HETATM   23  O   UNK N   1       3.960   4.007  -0.405  0.00  0.00    -0.355 OA
HETATM   24  C   UNK N   1       5.057   3.556  -1.104  0.00  0.00     0.210 C 
ENDBRANCH  20  23
ENDBRANCH  12  15
ENDBRANCH   7  11
BRANCH   6  25
HETATM   25  C   UNK N   1       8.051  -2.860  -0.215  0.00  0.00     0.160 C 
HETATM   26  O   UNK N   1       8.960  -3.660  -0.060  0.00  0.00    -0.649 OA
BRANCH  25  27
HETATM   27  O   UNK N   1       7.033  -3.162  -1.042  0.00  0.00    -0.775 OA
HETATM   28  H   UNK N   1       6.496  -2.653  -1.618  0.00  0.00     0.167 HD
ENDBRANCH  25  27
ENDBRANCH   6  25
TORSDOF 6
