REMARK  10 active torsions:
REMARK  status: ('A' for Active; 'I' for Inactive)
REMARK    1  A    between atoms: O_3  and  C_18 
REMARK    2  A    between atoms: O_3  and  C_21 
REMARK    3  A    between atoms: O_6  and  C_21 
REMARK    4  A    between atoms: O_6  and  C_26 
REMARK    5  A    between atoms: C_14  and  N_9 
REMARK       I    between atoms: N_9  and  C_19 
REMARK    6  A    between atoms: C_20  and  N_10 
REMARK    7  A    between atoms: C_13  and  C_18 
REMARK    8  A    between atoms: C_19  and  C_20 
REMARK    9  A    between atoms: C_20  and  C_22 
REMARK   10  A    between atoms: C_23  and  C_26 
ROOT
HETATM    1  S   UNK N   1       9.292   3.505   0.750  0.00  0.00    -0.135 SA
HETATM    2  O   UNK N   1       6.215   0.724   1.190  0.00  0.00    -0.277 OA
HETATM    3  N   UNK N   1       7.800   1.563  -0.184  0.00  0.00    -0.220 NA
HETATM    4  C   UNK N   1       7.862   2.992  -0.266  0.00  0.00     0.160 A 
HETATM    5  C   UNK N   1      10.073   1.874   0.521  0.00  0.00     0.028 C 
HETATM    6  C   UNK N   1       8.929   0.859   0.375  0.00  0.00     0.184 C 
HETATM    7  C   UNK N   1       6.491   3.051   0.560  0.00  0.00     0.199 A 
HETATM    8  C   UNK N   1       6.640   1.583   0.428  0.00  0.00     0.227 A 
HETATM    9  C   UNK N   1      10.919   1.512   1.725  0.00  0.00     0.029 C 
HETATM   10  C   UNK N   1      10.953   1.989  -0.717  0.00  0.00     0.029 C 
ENDROOT
BRANCH   7  11
HETATM   11  N   UNK N   1       5.356   3.525  -0.189  0.00  0.00    -0.344 N 
HETATM   12  C   UNK N   1       4.191   3.783   0.466  0.00  0.00     0.245 C 
HETATM   13  O   UNK N   1       4.107   3.581   1.670  0.00  0.00    -0.271 OA
HETATM   14  H   UNK N   1       5.421   3.662  -1.162  0.00  0.00     0.163 HD
BRANCH  12  15
HETATM   15  C   UNK N   1       2.980   4.286  -0.267  0.00  0.00     0.201 C 
BRANCH  15  16
HETATM   16  N   UNK N   1       3.293   4.648  -1.640  0.00  0.00    -0.415 N 
HETATM   17  H   UNK N   1       3.623   4.585  -2.603  0.00  0.00     0.151 HD
HETATM   18  H   UNK N   1       2.958   5.612  -1.640  0.00  0.00     0.151 HD
ENDBRANCH  15  16
BRANCH  15  19
HETATM   19  C   UNK N   1       1.911   3.239  -0.239  0.00  0.00    -0.027 A 
HETATM   20  C   UNK N   1       2.125   1.994  -0.852  0.00  0.00     0.010 A 
HETATM   21  C   UNK N   1       1.135   1.010  -0.807  0.00  0.00     0.001 A 
HETATM   22  C   UNK N   1      -0.071   1.264  -0.149  0.00  0.00     0.000 A 
HETATM   23  C   UNK N   1      -0.288   2.503   0.464  0.00  0.00     0.001 A 
HETATM   24  C   UNK N   1       0.703   3.490   0.420  0.00  0.00     0.010 A 
ENDBRANCH  15  19
ENDBRANCH  12  15
ENDBRANCH   7  11
BRANCH   6  25
HETATM   25  C   UNK N   1       9.284  -0.498  -0.212  0.00  0.00     0.280 C 
HETATM   26  O   UNK N   1      10.183  -0.597  -1.030  0.00  0.00    -0.263 OA
BRANCH  25  27
HETATM   27  O   UNK N   1       8.725  -1.630   0.249  0.00  0.00    -0.294 OA
BRANCH  27  28
HETATM   28  C   UNK N   1       7.569  -1.670   0.980  0.00  0.00     0.358 C 
BRANCH  28  29
HETATM   29  O   UNK N   1       6.586  -2.327   0.270  0.00  0.00    -0.294 OA
BRANCH  29  30
HETATM   30  C   UNK N   1       6.836  -3.489  -0.386  0.00  0.00     0.268 C 
HETATM   31  O   UNK N   1       7.757  -3.560  -1.191  0.00  0.00    -0.264 OA
BRANCH  30  32
HETATM   32  C   UNK N   1       6.043  -4.715  -0.051  0.00  0.00     0.037 C 
HETATM   33  C   UNK N   1       5.422  -5.305  -1.301  0.00  0.00     0.025 C 
HETATM   34  C   UNK N   1       6.978  -5.732   0.576  0.00  0.00     0.025 C 
HETATM   35  C   UNK N   1       4.941  -4.398   0.945  0.00  0.00     0.025 C 
ENDBRANCH  30  32
ENDBRANCH  29  30
ENDBRANCH  28  29
ENDBRANCH  27  28
ENDBRANCH  25  27
ENDBRANCH   6  25
TORSDOF 10
