MODEL 1
REMARK VINA RESULT:      -7.8      0.000      0.000
REMARK  10 active torsions:
REMARK  status: ('A' for Active; 'I' for Inactive)
REMARK    1  A    between atoms: O_3  and  C_18 
REMARK    2  A    between atoms: O_3  and  C_21 
REMARK    3  A    between atoms: O_6  and  C_21 
REMARK    4  A    between atoms: O_6  and  C_26 
REMARK    5  A    between atoms: C_14  and  N_9 
REMARK       I    between atoms: N_9  and  C_19 
REMARK    6  A    between atoms: C_20  and  N_10 
REMARK    7  A    between atoms: C_13  and  C_18 
REMARK    8  A    between atoms: C_19  and  C_20 
REMARK    9  A    between atoms: C_20  and  C_22 
REMARK   10  A    between atoms: C_23  and  C_26 
ROOT
HETATM    1  S   UNK N   1      33.287  14.452   7.142  0.00  0.00    -0.135 SA
HETATM    2  O   UNK N   1      33.487  18.377   8.538  0.00  0.00    -0.277 OA
HETATM    3  N   UNK N   1      33.140  16.211   9.079  0.00  0.00    -0.220 NA
HETATM    4  C   UNK N   1      32.244  15.490   8.225  0.00  0.00     0.160 A 
HETATM    5  C   UNK N   1      34.626  14.462   8.379  0.00  0.00     0.028 C 
HETATM    6  C   UNK N   1      34.523  15.802   9.123  0.00  0.00     0.184 C 
HETATM    7  C   UNK N   1      31.862  16.882   7.531  0.00  0.00     0.199 A 
HETATM    8  C   UNK N   1      32.789  17.371   8.578  0.00  0.00     0.227 A 
HETATM    9  C   UNK N   1      35.979  14.361   7.704  0.00  0.00     0.029 C 
HETATM   10  C   UNK N   1      34.398  13.247   9.269  0.00  0.00     0.029 C 
ENDROOT
BRANCH   7  11
HETATM   11  N   UNK N   1      30.517  17.332   7.780  0.00  0.00    -0.344 N 
HETATM   12  C   UNK N   1      29.510  16.883   6.982  0.00  0.00     0.245 C 
HETATM   13  O   UNK N   1      29.756  16.134   6.047  0.00  0.00    -0.271 OA
HETATM   14  H   UNK N   1      30.327  17.955   8.519  0.00  0.00     0.163 HD
BRANCH  12  15
HETATM   15  C   UNK N   1      28.088  17.316   7.204  0.00  0.00     0.201 C 
BRANCH  15  16
HETATM   16  N   UNK N   1      27.801  17.519   8.615  0.00  0.00    -0.415 N 
HETATM   17  H   UNK N   1      27.407  17.392   9.547  0.00  0.00     0.151 HD
HETATM   18  H   UNK N   1      28.387  18.336   8.790  0.00  0.00     0.151 HD
ENDBRANCH  15  16
BRANCH  15  19
HETATM   19  C   UNK N   1      27.825  18.573   6.437  0.00  0.00    -0.027 A 
HETATM   20  C   UNK N   1      27.681  18.532   5.041  0.00  0.00     0.010 A 
HETATM   21  C   UNK N   1      27.414  19.703   4.328  0.00  0.00     0.001 A 
HETATM   22  C   UNK N   1      27.289  20.918   5.005  0.00  0.00     0.000 A 
HETATM   23  C   UNK N   1      27.430  20.964   6.396  0.00  0.00     0.001 A 
HETATM   24  C   UNK N   1      27.698  19.792   7.112  0.00  0.00     0.010 A 
ENDBRANCH  15  19
ENDBRANCH  12  15
ENDBRANCH   7  11
BRANCH   6  25
HETATM   25  C   UNK N   1      35.256  15.910  10.451  0.00  0.00     0.280 C 
HETATM   26  O   UNK N   1      36.179  16.696  10.580  0.00  0.00    -0.263 OA
BRANCH  25  27
HETATM   27  O   UNK N   1      34.827  15.257  11.544  0.00  0.00    -0.294 OA
BRANCH  27  28
HETATM   28  C   UNK N   1      35.645  14.551  12.384  0.00  0.00     0.358 C 
BRANCH  28  29
HETATM   29  O   UNK N   1      34.886  13.807  13.263  0.00  0.00    -0.294 OA
BRANCH  29  30
HETATM   30  C   UNK N   1      35.069  12.469  13.407  0.00  0.00     0.268 C 
HETATM   31  O   UNK N   1      35.475  11.795  12.468  0.00  0.00    -0.264 OA
BRANCH  30  32
HETATM   32  C   UNK N   1      34.864  11.832  14.747  0.00  0.00     0.037 C 
HETATM   33  C   UNK N   1      33.728  10.832  14.694  0.00  0.00     0.025 C 
HETATM   34  C   UNK N   1      36.146  11.120  15.138  0.00  0.00     0.025 C 
HETATM   35  C   UNK N   1      34.554  12.876  15.806  0.00  0.00     0.025 C 
ENDBRANCH  30  32
ENDBRANCH  29  30
ENDBRANCH  28  29
ENDBRANCH  27  28
ENDBRANCH  25  27
ENDBRANCH   6  25
TORSDOF 10
ENDMDL
MODEL 2
REMARK VINA RESULT:      -7.7      2.518      3.539
REMARK  10 active torsions:
REMARK  status: ('A' for Active; 'I' for Inactive)
REMARK    1  A    between atoms: O_3  and  C_18 
REMARK    2  A    between atoms: O_3  and  C_21 
REMARK    3  A    between atoms: O_6  and  C_21 
REMARK    4  A    between atoms: O_6  and  C_26 
REMARK    5  A    between atoms: C_14  and  N_9 
REMARK       I    between atoms: N_9  and  C_19 
REMARK    6  A    between atoms: C_20  and  N_10 
REMARK    7  A    between atoms: C_13  and  C_18 
REMARK    8  A    between atoms: C_19  and  C_20 
REMARK    9  A    between atoms: C_20  and  C_22 
REMARK   10  A    between atoms: C_23  and  C_26 
ROOT
HETATM    1  S   UNK N   1      36.663  13.566   8.409  0.00  0.00    -0.135 SA
HETATM    2  O   UNK N   1      34.959  16.787  10.439  0.00  0.00    -0.277 OA
HETATM    3  N   UNK N   1      34.904  14.557  10.081  0.00  0.00    -0.220 NA
HETATM    4  C   UNK N   1      34.955  14.144   8.710  0.00  0.00     0.160 A 
HETATM    5  C   UNK N   1      36.877  13.194  10.180  0.00  0.00     0.028 C 
HETATM    6  C   UNK N   1      36.002  14.198  10.946  0.00  0.00     0.184 C 
HETATM    7  C   UNK N   1      34.760  15.677   8.291  0.00  0.00     0.199 A 
HETATM    8  C   UNK N   1      34.670  15.808   9.764  0.00  0.00     0.227 A 
HETATM    9  C   UNK N   1      38.325  13.369  10.592  0.00  0.00     0.029 C 
HETATM   10  C   UNK N   1      36.455  11.743  10.369  0.00  0.00     0.029 C 
ENDROOT
BRANCH   7  11
HETATM   11  N   UNK N   1      33.497  15.975   7.667  0.00  0.00    -0.344 N 
HETATM   12  C   UNK N   1      33.416  17.026   6.805  0.00  0.00     0.245 C 
HETATM   13  O   UNK N   1      34.399  17.724   6.595  0.00  0.00    -0.271 OA
HETATM   14  H   UNK N   1      32.703  15.426   7.859  0.00  0.00     0.163 HD
BRANCH  12  15
HETATM   15  C   UNK N   1      32.124  17.376   6.122  0.00  0.00     0.201 C 
BRANCH  15  16
HETATM   16  N   UNK N   1      31.728  16.355   5.165  0.00  0.00    -0.415 N 
HETATM   17  H   UNK N   1      31.777  15.568   4.519  0.00  0.00     0.151 HD
HETATM   18  H   UNK N   1      30.734  16.574   5.088  0.00  0.00     0.151 HD
ENDBRANCH  15  16
BRANCH  15  19
HETATM   19  C   UNK N   1      31.053  17.565   7.150  0.00  0.00    -0.027 A 
HETATM   20  C   UNK N   1      29.763  17.057   6.928  0.00  0.00     0.010 A 
HETATM   21  C   UNK N   1      28.770  17.215   7.897  0.00  0.00     0.001 A 
HETATM   22  C   UNK N   1      29.061  17.879   9.091  0.00  0.00     0.000 A 
HETATM   23  C   UNK N   1      30.345  18.386   9.317  0.00  0.00     0.001 A 
HETATM   24  C   UNK N   1      31.342  18.228   8.347  0.00  0.00     0.010 A 
ENDBRANCH  15  19
ENDBRANCH  12  15
ENDBRANCH   7  11
BRANCH   6  25
HETATM   25  C   UNK N   1      35.688  13.869  12.397  0.00  0.00     0.280 C 
HETATM   26  O   UNK N   1      34.561  13.533  12.720  0.00  0.00    -0.263 OA
BRANCH  25  27
HETATM   27  O   UNK N   1      36.656  13.802  13.327  0.00  0.00    -0.294 OA
BRANCH  27  28
HETATM   28  C   UNK N   1      36.570  14.380  14.564  0.00  0.00     0.358 C 
BRANCH  28  29
HETATM   29  O   UNK N   1      36.600  13.408  15.542  0.00  0.00    -0.294 OA
BRANCH  29  30
HETATM   30  C   UNK N   1      35.489  12.708  15.887  0.00  0.00     0.268 C 
HETATM   31  O   UNK N   1      34.404  13.272  15.972  0.00  0.00    -0.264 OA
BRANCH  30  32
HETATM   32  C   UNK N   1      35.574  11.224  16.068  0.00  0.00     0.037 C 
HETATM   33  C   UNK N   1      36.848  10.684  15.452  0.00  0.00     0.025 C 
HETATM   34  C   UNK N   1      35.567  10.924  17.556  0.00  0.00     0.025 C 
HETATM   35  C   UNK N   1      34.384  10.526  15.432  0.00  0.00     0.025 C 
ENDBRANCH  30  32
ENDBRANCH  29  30
ENDBRANCH  28  29
ENDBRANCH  27  28
ENDBRANCH  25  27
ENDBRANCH   6  25
TORSDOF 10
ENDMDL
MODEL 3
REMARK VINA RESULT:      -7.4      2.896      4.226
REMARK  10 active torsions:
REMARK  status: ('A' for Active; 'I' for Inactive)
REMARK    1  A    between atoms: O_3  and  C_18 
REMARK    2  A    between atoms: O_3  and  C_21 
REMARK    3  A    between atoms: O_6  and  C_21 
REMARK    4  A    between atoms: O_6  and  C_26 
REMARK    5  A    between atoms: C_14  and  N_9 
REMARK       I    between atoms: N_9  and  C_19 
REMARK    6  A    between atoms: C_20  and  N_10 
REMARK    7  A    between atoms: C_13  and  C_18 
REMARK    8  A    between atoms: C_19  and  C_20 
REMARK    9  A    between atoms: C_20  and  C_22 
REMARK   10  A    between atoms: C_23  and  C_26 
ROOT
HETATM    1  S   UNK N   1      35.490  12.380   9.010  0.00  0.00    -0.135 SA
HETATM    2  O   UNK N   1      36.728  15.996  10.679  0.00  0.00    -0.277 OA
HETATM    3  N   UNK N   1      35.191  14.341  10.723  0.00  0.00    -0.220 NA
HETATM    4  C   UNK N   1      34.661  13.948   9.452  0.00  0.00     0.160 A 
HETATM    5  C   UNK N   1      35.807  12.022  10.769  0.00  0.00     0.028 C 
HETATM    6  C   UNK N   1      35.968  13.380  11.469  0.00  0.00     0.184 C 
HETATM    7  C   UNK N   1      35.398  15.215   8.806  0.00  0.00     0.199 A 
HETATM    8  C   UNK N   1      35.742  15.426  10.232  0.00  0.00     0.227 A 
HETATM    9  C   UNK N   1      37.081  11.217  10.930  0.00  0.00     0.029 C 
HETATM   10  C   UNK N   1      34.615  11.214  11.265  0.00  0.00     0.029 C 
ENDROOT
BRANCH   7  11
HETATM   11  N   UNK N   1      34.514  16.248   8.330  0.00  0.00    -0.344 N 
HETATM   12  C   UNK N   1      34.484  16.531   6.999  0.00  0.00     0.245 C 
HETATM   13  O   UNK N   1      35.224  15.936   6.228  0.00  0.00    -0.271 OA
HETATM   14  H   UNK N   1      33.938  16.742   8.957  0.00  0.00     0.163 HD
BRANCH  12  15
HETATM   15  C   UNK N   1      33.575  17.594   6.449  0.00  0.00     0.201 C 
BRANCH  15  16
HETATM   16  N   UNK N   1      33.439  17.492   5.005  0.00  0.00    -0.415 N 
HETATM   17  H   UNK N   1      33.083  17.232   4.085  0.00  0.00     0.151 HD
HETATM   18  H   UNK N   1      34.233  18.067   4.721  0.00  0.00     0.151 HD
ENDBRANCH  15  16
BRANCH  15  19
HETATM   19  C   UNK N   1      32.233  17.488   7.103  0.00  0.00    -0.027 A 
HETATM   20  C   UNK N   1      31.971  18.182   8.295  0.00  0.00     0.010 A 
HETATM   21  C   UNK N   1      30.712  18.100   8.893  0.00  0.00     0.001 A 
HETATM   22  C   UNK N   1      29.709  17.325   8.304  0.00  0.00     0.000 A 
HETATM   23  C   UNK N   1      29.966  16.632   7.116  0.00  0.00     0.001 A 
HETATM   24  C   UNK N   1      31.227  16.714   6.515  0.00  0.00     0.010 A 
ENDBRANCH  15  19
ENDBRANCH  12  15
ENDBRANCH   7  11
BRANCH   6  25
HETATM   25  C   UNK N   1      35.850  13.391  12.985  0.00  0.00     0.280 C 
HETATM   26  O   UNK N   1      34.833  13.803  13.518  0.00  0.00    -0.263 OA
BRANCH  25  27
HETATM   27  O   UNK N   1      36.786  12.826  13.766  0.00  0.00    -0.294 OA
BRANCH  27  28
HETATM   28  C   UNK N   1      36.933  13.093  15.100  0.00  0.00     0.358 C 
BRANCH  28  29
HETATM   29  O   UNK N   1      36.331  12.104  15.848  0.00  0.00    -0.294 OA
BRANCH  29  30
HETATM   30  C   UNK N   1      36.484  10.789  15.546  0.00  0.00     0.268 C 
HETATM   31  O   UNK N   1      37.604  10.302  15.448  0.00  0.00    -0.264 OA
BRANCH  30  32
HETATM   32  C   UNK N   1      35.276   9.910  15.429  0.00  0.00     0.037 C 
HETATM   33  C   UNK N   1      34.064  10.722  15.020  0.00  0.00     0.025 C 
HETATM   34  C   UNK N   1      35.555   8.854  14.375  0.00  0.00     0.025 C 
HETATM   35  C   UNK N   1      34.980   9.209  16.743  0.00  0.00     0.025 C 
ENDBRANCH  30  32
ENDBRANCH  29  30
ENDBRANCH  28  29
ENDBRANCH  27  28
ENDBRANCH  25  27
ENDBRANCH   6  25
TORSDOF 10
ENDMDL
MODEL 4
REMARK VINA RESULT:      -7.4      3.449      5.705
REMARK  10 active torsions:
REMARK  status: ('A' for Active; 'I' for Inactive)
REMARK    1  A    between atoms: O_3  and  C_18 
REMARK    2  A    between atoms: O_3  and  C_21 
REMARK    3  A    between atoms: O_6  and  C_21 
REMARK    4  A    between atoms: O_6  and  C_26 
REMARK    5  A    between atoms: C_14  and  N_9 
REMARK       I    between atoms: N_9  and  C_19 
REMARK    6  A    between atoms: C_20  and  N_10 
REMARK    7  A    between atoms: C_13  and  C_18 
REMARK    8  A    between atoms: C_19  and  C_20 
REMARK    9  A    between atoms: C_20  and  C_22 
REMARK   10  A    between atoms: C_23  and  C_26 
ROOT
HETATM    1  S   UNK N   1      35.359  12.028  10.673  0.00  0.00    -0.135 SA
HETATM    2  O   UNK N   1      36.440  15.184  13.176  0.00  0.00    -0.277 OA
HETATM    3  N   UNK N   1      34.850  13.667  12.654  0.00  0.00    -0.220 NA
HETATM    4  C   UNK N   1      34.533  13.548  11.261  0.00  0.00     0.160 A 
HETATM    5  C   UNK N   1      35.348  11.338  12.360  0.00  0.00     0.028 C 
HETATM    6  C   UNK N   1      35.442  12.532  13.321  0.00  0.00     0.184 C 
HETATM    7  C   UNK N   1      35.425  14.852  10.997  0.00  0.00     0.199 A 
HETATM    8  C   UNK N   1      35.523  14.778  12.473  0.00  0.00     0.227 A 
HETATM    9  C   UNK N   1      36.538  10.424  12.572  0.00  0.00     0.029 C 
HETATM   10  C   UNK N   1      34.054  10.545  12.491  0.00  0.00     0.029 C 
ENDROOT
BRANCH   7  11
HETATM   11  N   UNK N   1      34.683  16.017  10.586  0.00  0.00    -0.344 N 
HETATM   12  C   UNK N   1      34.669  16.363   9.270  0.00  0.00     0.245 C 
HETATM   13  O   UNK N   1      35.307  15.708   8.457  0.00  0.00    -0.271 OA
HETATM   14  H   UNK N   1      34.192  16.555  11.248  0.00  0.00     0.163 HD
BRANCH  12  15
HETATM   15  C   UNK N   1      33.905  17.563   8.788  0.00  0.00     0.201 C 
BRANCH  15  16
HETATM   16  N   UNK N   1      34.787  18.684   8.502  0.00  0.00    -0.415 N 
HETATM   17  H   UNK N   1      35.438  19.299   8.014  0.00  0.00     0.151 HD
HETATM   18  H   UNK N   1      34.687  19.203   9.375  0.00  0.00     0.151 HD
ENDBRANCH  15  16
BRANCH  15  19
HETATM   19  C   UNK N   1      33.121  17.197   7.568  0.00  0.00    -0.027 A 
HETATM   20  C   UNK N   1      31.907  16.503   7.690  0.00  0.00     0.010 A 
HETATM   21  C   UNK N   1      31.165  16.180   6.551  0.00  0.00     0.001 A 
HETATM   22  C   UNK N   1      31.631  16.550   5.287  0.00  0.00     0.000 A 
HETATM   23  C   UNK N   1      32.840  17.243   5.161  0.00  0.00     0.001 A 
HETATM   24  C   UNK N   1      33.585  17.568   6.301  0.00  0.00     0.010 A 
ENDBRANCH  15  19
ENDBRANCH  12  15
ENDBRANCH   7  11
BRANCH   6  25
HETATM   25  C   UNK N   1      35.061  12.280  14.771  0.00  0.00     0.280 C 
HETATM   26  O   UNK N   1      34.015  12.721  15.217  0.00  0.00    -0.263 OA
BRANCH  25  27
HETATM   27  O   UNK N   1      35.783  11.460  15.553  0.00  0.00    -0.294 OA
BRANCH  27  28
HETATM   28  C   UNK N   1      35.267  10.369  16.199  0.00  0.00     0.358 C 
BRANCH  28  29
HETATM   29  O   UNK N   1      35.806  10.274  17.465  0.00  0.00    -0.294 OA
BRANCH  29  30
HETATM   30  C   UNK N   1      35.024  10.109  18.563  0.00  0.00     0.268 C 
HETATM   31  O   UNK N   1      34.072   9.337  18.535  0.00  0.00    -0.264 OA
BRANCH  30  32
HETATM   32  C   UNK N   1      35.384  10.802  19.841  0.00  0.00     0.037 C 
HETATM   33  C   UNK N   1      35.318  12.306  19.668  0.00  0.00     0.025 C 
HETATM   34  C   UNK N   1      34.399  10.373  20.911  0.00  0.00     0.025 C 
HETATM   35  C   UNK N   1      36.782  10.419  20.294  0.00  0.00     0.025 C 
ENDBRANCH  30  32
ENDBRANCH  29  30
ENDBRANCH  28  29
ENDBRANCH  27  28
ENDBRANCH  25  27
ENDBRANCH   6  25
TORSDOF 10
ENDMDL
MODEL 5
REMARK VINA RESULT:      -7.3      2.548      9.746
REMARK  10 active torsions:
REMARK  status: ('A' for Active; 'I' for Inactive)
REMARK    1  A    between atoms: O_3  and  C_18 
REMARK    2  A    between atoms: O_3  and  C_21 
REMARK    3  A    between atoms: O_6  and  C_21 
REMARK    4  A    between atoms: O_6  and  C_26 
REMARK    5  A    between atoms: C_14  and  N_9 
REMARK       I    between atoms: N_9  and  C_19 
REMARK    6  A    between atoms: C_20  and  N_10 
REMARK    7  A    between atoms: C_13  and  C_18 
REMARK    8  A    between atoms: C_19  and  C_20 
REMARK    9  A    between atoms: C_20  and  C_22 
REMARK   10  A    between atoms: C_23  and  C_26 
ROOT
HETATM    1  S   UNK N   1      35.655  12.728   8.377  0.00  0.00    -0.135 SA
HETATM    2  O   UNK N   1      33.645  15.062  11.189  0.00  0.00    -0.277 OA
HETATM    3  N   UNK N   1      35.237  15.015   9.587  0.00  0.00    -0.220 NA
HETATM    4  C   UNK N   1      36.164  13.926   9.660  0.00  0.00     0.160 A 
HETATM    5  C   UNK N   1      34.848  14.055   7.422  0.00  0.00     0.028 C 
HETATM    6  C   UNK N   1      34.359  15.092   8.444  0.00  0.00     0.184 C 
HETATM    7  C   UNK N   1      35.550  13.562  11.094  0.00  0.00     0.199 A 
HETATM    8  C   UNK N   1      34.768  14.783  10.790  0.00  0.00     0.227 A 
HETATM    9  C   UNK N   1      33.664  13.512   6.647  0.00  0.00     0.029 C 
HETATM   10  C   UNK N   1      35.899  14.591   6.458  0.00  0.00     0.029 C 
ENDROOT
BRANCH   7  11
HETATM   11  N   UNK N   1      36.441  13.781  12.204  0.00  0.00    -0.344 N 
HETATM   12  C   UNK N   1      36.032  13.443  13.458  0.00  0.00     0.245 C 
HETATM   13  O   UNK N   1      34.910  12.989  13.635  0.00  0.00    -0.271 OA
HETATM   14  H   UNK N   1      37.334  14.170  12.060  0.00  0.00     0.163 HD
BRANCH  12  15
HETATM   15  C   UNK N   1      36.925  13.644  14.649  0.00  0.00     0.201 C 
BRANCH  15  16
HETATM   16  N   UNK N   1      37.132  15.055  14.935  0.00  0.00    -0.415 N 
HETATM   17  H   UNK N   1      37.529  15.913  15.316  0.00  0.00     0.151 HD
HETATM   18  H   UNK N   1      36.368  15.451  14.387  0.00  0.00     0.151 HD
ENDBRANCH  15  16
BRANCH  15  19
HETATM   19  C   UNK N   1      36.331  12.957  15.838  0.00  0.00    -0.027 A 
HETATM   20  C   UNK N   1      35.687  13.705  16.838  0.00  0.00     0.010 A 
HETATM   21  C   UNK N   1      35.114  13.061  17.936  0.00  0.00     0.001 A 
HETATM   22  C   UNK N   1      35.179  11.669  18.041  0.00  0.00     0.000 A 
HETATM   23  C   UNK N   1      35.819  10.920  17.047  0.00  0.00     0.001 A 
HETATM   24  C   UNK N   1      36.393  11.564  15.946  0.00  0.00     0.010 A 
ENDBRANCH  15  19
ENDBRANCH  12  15
ENDBRANCH   7  11
BRANCH   6  25
HETATM   25  C   UNK N   1      34.006  16.471   7.909  0.00  0.00     0.280 C 
HETATM   26  O   UNK N   1      34.738  17.421   8.128  0.00  0.00    -0.263 OA
BRANCH  25  27
HETATM   27  O   UNK N   1      32.969  16.655   7.073  0.00  0.00    -0.294 OA
BRANCH  27  28
HETATM   28  C   UNK N   1      31.676  16.328   7.375  0.00  0.00     0.358 C 
BRANCH  28  29
HETATM   29  O   UNK N   1      30.902  17.469   7.430  0.00  0.00    -0.294 OA
BRANCH  29  30
HETATM   30  C   UNK N   1      29.548  17.410   7.497  0.00  0.00     0.268 C 
HETATM   31  O   UNK N   1      28.924  16.653   6.762  0.00  0.00    -0.264 OA
BRANCH  30  32
HETATM   32  C   UNK N   1      28.822  18.202   8.540  0.00  0.00     0.037 C 
HETATM   33  C   UNK N   1      28.007  19.307   7.898  0.00  0.00     0.025 C 
HETATM   34  C   UNK N   1      27.896  17.265   9.293  0.00  0.00     0.025 C 
HETATM   35  C   UNK N   1      29.792  18.817   9.533  0.00  0.00     0.025 C 
ENDBRANCH  30  32
ENDBRANCH  29  30
ENDBRANCH  28  29
ENDBRANCH  27  28
ENDBRANCH  25  27
ENDBRANCH   6  25
TORSDOF 10
ENDMDL
MODEL 6
REMARK VINA RESULT:      -7.2      5.620      9.335
REMARK  10 active torsions:
REMARK  status: ('A' for Active; 'I' for Inactive)
REMARK    1  A    between atoms: O_3  and  C_18 
REMARK    2  A    between atoms: O_3  and  C_21 
REMARK    3  A    between atoms: O_6  and  C_21 
REMARK    4  A    between atoms: O_6  and  C_26 
REMARK    5  A    between atoms: C_14  and  N_9 
REMARK       I    between atoms: N_9  and  C_19 
REMARK    6  A    between atoms: C_20  and  N_10 
REMARK    7  A    between atoms: C_13  and  C_18 
REMARK    8  A    between atoms: C_19  and  C_20 
REMARK    9  A    between atoms: C_20  and  C_22 
REMARK   10  A    between atoms: C_23  and  C_26 
ROOT
HETATM    1  S   UNK N   1      25.832  20.243   5.298  0.00  0.00    -0.135 SA
HETATM    2  O   UNK N   1      24.074  16.484   5.713  0.00  0.00    -0.277 OA
HETATM    3  N   UNK N   1      25.488  17.769   4.506  0.00  0.00    -0.220 NA
HETATM    4  C   UNK N   1      25.006  19.073   4.162  0.00  0.00     0.160 A 
HETATM    5  C   UNK N   1      27.217  19.081   5.530  0.00  0.00     0.028 C 
HETATM    6  C   UNK N   1      26.631  17.669   5.382  0.00  0.00     0.184 C 
HETATM    7  C   UNK N   1      23.565  18.632   4.705  0.00  0.00     0.199 A 
HETATM    8  C   UNK N   1      24.301  17.359   4.887  0.00  0.00     0.227 A 
HETATM    9  C   UNK N   1      27.819  19.236   6.912  0.00  0.00     0.029 C 
HETATM   10  C   UNK N   1      28.253  19.430   4.469  0.00  0.00     0.029 C 
ENDROOT
BRANCH   7  11
HETATM   11  N   UNK N   1      22.552  18.502   3.689  0.00  0.00    -0.344 N 
HETATM   12  C   UNK N   1      21.309  19.004   3.926  0.00  0.00     0.245 C 
HETATM   13  O   UNK N   1      21.054  19.527   5.002  0.00  0.00    -0.271 OA
HETATM   14  H   UNK N   1      22.756  18.058   2.834  0.00  0.00     0.163 HD
BRANCH  12  15
HETATM   15  C   UNK N   1      20.219  18.902   2.897  0.00  0.00     0.201 C 
BRANCH  15  16
HETATM   16  N   UNK N   1      20.499  19.725   1.732  0.00  0.00    -0.415 N 
HETATM   17  H   UNK N   1      21.010  20.248   1.020  0.00  0.00     0.151 HD
HETATM   18  H   UNK N   1      19.545  19.892   1.411  0.00  0.00     0.151 HD
ENDBRANCH  15  16
BRANCH  15  19
HETATM   19  C   UNK N   1      20.051  17.471   2.491  0.00  0.00    -0.027 A 
HETATM   20  C   UNK N   1      20.095  17.112   1.134  0.00  0.00     0.010 A 
HETATM   21  C   UNK N   1      19.959  15.774   0.758  0.00  0.00     0.001 A 
HETATM   22  C   UNK N   1      19.780  14.790   1.733  0.00  0.00     0.000 A 
HETATM   23  C   UNK N   1      19.736  15.143   3.087  0.00  0.00     0.001 A 
HETATM   24  C   UNK N   1      19.873  16.484   3.465  0.00  0.00     0.010 A 
ENDBRANCH  15  19
ENDBRANCH  12  15
ENDBRANCH   7  11
BRANCH   6  25
HETATM   25  C   UNK N   1      27.617  16.537   5.140  0.00  0.00     0.280 C 
HETATM   26  O   UNK N   1      27.673  15.994   4.049  0.00  0.00    -0.263 OA
BRANCH  25  27
HETATM   27  O   UNK N   1      28.537  16.200   6.059  0.00  0.00    -0.294 OA
BRANCH  27  28
HETATM   28  C   UNK N   1      29.869  16.042   5.786  0.00  0.00     0.358 C 
BRANCH  28  29
HETATM   29  O   UNK N   1      30.551  17.203   6.087  0.00  0.00    -0.294 OA
BRANCH  29  30
HETATM   30  C   UNK N   1      31.840  17.182   6.514  0.00  0.00     0.268 C 
HETATM   31  O   UNK N   1      32.758  17.086   5.709  0.00  0.00    -0.264 OA
BRANCH  30  32
HETATM   32  C   UNK N   1      32.142  17.376   7.969  0.00  0.00     0.037 C 
HETATM   33  C   UNK N   1      32.348  16.040   8.652  0.00  0.00     0.025 C 
HETATM   34  C   UNK N   1      33.408  18.204   8.087  0.00  0.00     0.025 C 
HETATM   35  C   UNK N   1      31.016  18.119   8.667  0.00  0.00     0.025 C 
ENDBRANCH  30  32
ENDBRANCH  29  30
ENDBRANCH  28  29
ENDBRANCH  27  28
ENDBRANCH  25  27
ENDBRANCH   6  25
TORSDOF 10
ENDMDL
MODEL 7
REMARK VINA RESULT:      -7.1     15.408     18.540
REMARK  10 active torsions:
REMARK  status: ('A' for Active; 'I' for Inactive)
REMARK    1  A    between atoms: O_3  and  C_18 
REMARK    2  A    between atoms: O_3  and  C_21 
REMARK    3  A    between atoms: O_6  and  C_21 
REMARK    4  A    between atoms: O_6  and  C_26 
REMARK    5  A    between atoms: C_14  and  N_9 
REMARK       I    between atoms: N_9  and  C_19 
REMARK    6  A    between atoms: C_20  and  N_10 
REMARK    7  A    between atoms: C_13  and  C_18 
REMARK    8  A    between atoms: C_19  and  C_20 
REMARK    9  A    between atoms: C_20  and  C_22 
REMARK   10  A    between atoms: C_23  and  C_26 
ROOT
HETATM    1  S   UNK N   1      25.671  26.688  -6.595  0.00  0.00    -0.135 SA
HETATM    2  O   UNK N   1      26.977  24.098  -3.599  0.00  0.00    -0.277 OA
HETATM    3  N   UNK N   1      27.577  25.383  -5.358  0.00  0.00    -0.220 NA
HETATM    4  C   UNK N   1      26.779  25.236  -6.539  0.00  0.00     0.160 A 
HETATM    5  C   UNK N   1      26.845  27.656  -5.592  0.00  0.00     0.028 C 
HETATM    6  C   UNK N   1      27.566  26.655  -4.677  0.00  0.00     0.184 C 
HETATM    7  C   UNK N   1      26.075  23.974  -5.848  0.00  0.00     0.199 A 
HETATM    8  C   UNK N   1      27.068  24.309  -4.802  0.00  0.00     0.227 A 
HETATM    9  C   UNK N   1      26.112  28.677  -4.746  0.00  0.00     0.029 C 
HETATM   10  C   UNK N   1      27.769  28.364  -6.576  0.00  0.00     0.029 C 
ENDROOT
BRANCH   7  11
HETATM   11  N   UNK N   1      26.376  22.706  -6.460  0.00  0.00    -0.344 N 
HETATM   12  C   UNK N   1      25.731  22.354  -7.606  0.00  0.00     0.245 C 
HETATM   13  O   UNK N   1      24.884  23.095  -8.085  0.00  0.00    -0.271 OA
HETATM   14  H   UNK N   1      27.040  22.101  -6.057  0.00  0.00     0.163 HD
BRANCH  12  15
HETATM   15  C   UNK N   1      26.014  21.046  -8.288  0.00  0.00     0.201 C 
BRANCH  15  16
HETATM   16  N   UNK N   1      25.323  20.943  -9.564  0.00  0.00    -0.415 N 
HETATM   17  H   UNK N   1      24.651  21.108 -10.313  0.00  0.00     0.151 HD
HETATM   18  H   UNK N   1      25.895  20.223 -10.007  0.00  0.00     0.151 HD
ENDBRANCH  15  16
BRANCH  15  19
HETATM   19  C   UNK N   1      27.490  20.896  -8.486  0.00  0.00    -0.027 A 
HETATM   20  C   UNK N   1      28.185  21.788  -9.318  0.00  0.00     0.010 A 
HETATM   21  C   UNK N   1      29.566  21.661  -9.484  0.00  0.00     0.001 A 
HETATM   22  C   UNK N   1      30.258  20.645  -8.820  0.00  0.00     0.000 A 
HETATM   23  C   UNK N   1      29.569  19.754  -7.989  0.00  0.00     0.001 A 
HETATM   24  C   UNK N   1      28.185  19.880  -7.821  0.00  0.00     0.010 A 
ENDBRANCH  15  19
ENDBRANCH  12  15
ENDBRANCH   7  11
BRANCH   6  25
HETATM   25  C   UNK N   1      28.857  27.125  -4.025  0.00  0.00     0.280 C 
HETATM   26  O   UNK N   1      28.827  27.953  -3.130  0.00  0.00    -0.263 OA
BRANCH  25  27
HETATM   27  O   UNK N   1      30.037  26.550  -4.310  0.00  0.00    -0.294 OA
BRANCH  27  28
HETATM   28  C   UNK N   1      30.688  25.683  -3.475  0.00  0.00     0.358 C 
BRANCH  28  29
HETATM   29  O   UNK N   1      30.068  24.452  -3.497  0.00  0.00    -0.294 OA
BRANCH  29  30
HETATM   30  C   UNK N   1      30.722  23.317  -3.141  0.00  0.00     0.268 C 
HETATM   31  O   UNK N   1      30.981  23.095  -1.964  0.00  0.00    -0.264 OA
BRANCH  30  32
HETATM   32  C   UNK N   1      31.041  22.288  -4.181  0.00  0.00     0.037 C 
HETATM   33  C   UNK N   1      30.797  20.893  -3.642  0.00  0.00     0.025 C 
HETATM   34  C   UNK N   1      30.145  22.528  -5.382  0.00  0.00     0.025 C 
HETATM   35  C   UNK N   1      32.487  22.396  -4.632  0.00  0.00     0.025 C 
ENDBRANCH  30  32
ENDBRANCH  29  30
ENDBRANCH  28  29
ENDBRANCH  27  28
ENDBRANCH  25  27
ENDBRANCH   6  25
TORSDOF 10
ENDMDL
MODEL 8
REMARK VINA RESULT:      -7.1      3.784      9.700
REMARK  10 active torsions:
REMARK  status: ('A' for Active; 'I' for Inactive)
REMARK    1  A    between atoms: O_3  and  C_18 
REMARK    2  A    between atoms: O_3  and  C_21 
REMARK    3  A    between atoms: O_6  and  C_21 
REMARK    4  A    between atoms: O_6  and  C_26 
REMARK    5  A    between atoms: C_14  and  N_9 
REMARK       I    between atoms: N_9  and  C_19 
REMARK    6  A    between atoms: C_20  and  N_10 
REMARK    7  A    between atoms: C_13  and  C_18 
REMARK    8  A    between atoms: C_19  and  C_20 
REMARK    9  A    between atoms: C_20  and  C_22 
REMARK   10  A    between atoms: C_23  and  C_26 
ROOT
HETATM    1  S   UNK N   1      34.465  10.874   9.773  0.00  0.00    -0.135 SA
HETATM    2  O   UNK N   1      35.285  14.957   9.997  0.00  0.00    -0.277 OA
HETATM    3  N   UNK N   1      36.045  12.926   9.366  0.00  0.00    -0.220 NA
HETATM    4  C   UNK N   1      35.890  11.875  10.328  0.00  0.00     0.160 A 
HETATM    5  C   UNK N   1      34.722  11.415   8.052  0.00  0.00     0.028 C 
HETATM    6  C   UNK N   1      35.319  12.829   8.123  0.00  0.00     0.184 C 
HETATM    7  C   UNK N   1      35.460  12.985  11.400  0.00  0.00     0.199 A 
HETATM    8  C   UNK N   1      35.768  13.860  10.244  0.00  0.00     0.227 A 
HETATM    9  C   UNK N   1      33.406  11.459   7.302  0.00  0.00     0.029 C 
HETATM   10  C   UNK N   1      35.650  10.389   7.413  0.00  0.00     0.029 C 
ENDROOT
BRANCH   7  11
HETATM   11  N   UNK N   1      36.403  13.188  12.469  0.00  0.00    -0.344 N 
HETATM   12  C   UNK N   1      35.938  13.412  13.728  0.00  0.00     0.245 C 
HETATM   13  O   UNK N   1      34.734  13.471  13.936  0.00  0.00    -0.271 OA
HETATM   14  H   UNK N   1      37.372  13.165  12.292  0.00  0.00     0.163 HD
BRANCH  12  15
HETATM   15  C   UNK N   1      36.880  13.623  14.880  0.00  0.00     0.201 C 
BRANCH  15  16
HETATM   16  N   UNK N   1      37.194  15.030  15.068  0.00  0.00    -0.415 N 
HETATM   17  H   UNK N   1      37.093  16.045  15.108  0.00  0.00     0.151 HD
HETATM   18  H   UNK N   1      38.171  14.948  15.349  0.00  0.00     0.151 HD
ENDBRANCH  15  16
BRANCH  15  19
HETATM   19  C   UNK N   1      36.276  13.057  16.126  0.00  0.00    -0.027 A 
HETATM   20  C   UNK N   1      35.763  13.912  17.115  0.00  0.00     0.010 A 
HETATM   21  C   UNK N   1      35.181  13.382  18.268  0.00  0.00     0.001 A 
HETATM   22  C   UNK N   1      35.106  11.997  18.438  0.00  0.00     0.000 A 
HETATM   23  C   UNK N   1      35.615  11.141  17.455  0.00  0.00     0.001 A 
HETATM   24  C   UNK N   1      36.199  11.671  16.299  0.00  0.00     0.010 A 
ENDBRANCH  15  19
ENDBRANCH  12  15
ENDBRANCH   7  11
BRANCH   6  25
HETATM   25  C   UNK N   1      35.989  13.357   6.864  0.00  0.00     0.280 C 
HETATM   26  O   UNK N   1      37.183  13.187   6.686  0.00  0.00    -0.263 OA
BRANCH  25  27
HETATM   27  O   UNK N   1      35.273  13.892   5.860  0.00  0.00    -0.294 OA
BRANCH  27  28
HETATM   28  C   UNK N   1      35.216  15.232   5.590  0.00  0.00     0.358 C 
BRANCH  28  29
HETATM   29  O   UNK N   1      34.920  15.931   6.742  0.00  0.00    -0.294 OA
BRANCH  29  30
HETATM   30  C   UNK N   1      34.006  16.935   6.751  0.00  0.00     0.268 C 
HETATM   31  O   UNK N   1      34.286  18.032   6.283  0.00  0.00    -0.264 OA
BRANCH  30  32
HETATM   32  C   UNK N   1      32.618  16.669   7.247  0.00  0.00     0.037 C 
HETATM   33  C   UNK N   1      32.180  17.754   8.210  0.00  0.00     0.025 C 
HETATM   34  C   UNK N   1      31.680  16.644   6.055  0.00  0.00     0.025 C 
HETATM   35  C   UNK N   1      32.537  15.324   7.950  0.00  0.00     0.025 C 
ENDBRANCH  30  32
ENDBRANCH  29  30
ENDBRANCH  28  29
ENDBRANCH  27  28
ENDBRANCH  25  27
ENDBRANCH   6  25
TORSDOF 10
ENDMDL
MODEL 9
REMARK VINA RESULT:      -7.0      5.189     12.068
REMARK  10 active torsions:
REMARK  status: ('A' for Active; 'I' for Inactive)
REMARK    1  A    between atoms: O_3  and  C_18 
REMARK    2  A    between atoms: O_3  and  C_21 
REMARK    3  A    between atoms: O_6  and  C_21 
REMARK    4  A    between atoms: O_6  and  C_26 
REMARK    5  A    between atoms: C_14  and  N_9 
REMARK       I    between atoms: N_9  and  C_19 
REMARK    6  A    between atoms: C_20  and  N_10 
REMARK    7  A    between atoms: C_13  and  C_18 
REMARK    8  A    between atoms: C_19  and  C_20 
REMARK    9  A    between atoms: C_20  and  C_22 
REMARK   10  A    between atoms: C_23  and  C_26 
ROOT
HETATM    1  S   UNK N   1      35.953  10.280  14.130  0.00  0.00    -0.135 SA
HETATM    2  O   UNK N   1      34.040  13.375  16.169  0.00  0.00    -0.277 OA
HETATM    3  N   UNK N   1      35.979  12.639  15.272  0.00  0.00    -0.220 NA
HETATM    4  C   UNK N   1      36.346  11.293  15.599  0.00  0.00     0.160 A 
HETATM    5  C   UNK N   1      36.104  11.741  13.050  0.00  0.00     0.028 C 
HETATM    6  C   UNK N   1      35.684  12.953  13.895  0.00  0.00     0.184 C 
HETATM    7  C   UNK N   1      35.155  11.279  16.670  0.00  0.00     0.199 A 
HETATM    8  C   UNK N   1      35.046  12.678  16.194  0.00  0.00     0.227 A 
HETATM    9  C   UNK N   1      35.185  11.618  11.852  0.00  0.00     0.029 C 
HETATM   10  C   UNK N   1      37.555  11.787  12.590  0.00  0.00     0.029 C 
ENDROOT
BRANCH   7  11
HETATM   11  N   UNK N   1      35.581  11.233  18.045  0.00  0.00    -0.344 N 
HETATM   12  C   UNK N   1      35.232  10.163  18.811  0.00  0.00     0.245 C 
HETATM   13  O   UNK N   1      34.537   9.272  18.340  0.00  0.00    -0.271 OA
HETATM   14  H   UNK N   1      36.118  11.964  18.427  0.00  0.00     0.163 HD
BRANCH  12  15
HETATM   15  C   UNK N   1      35.657  10.062  20.248  0.00  0.00     0.201 C 
BRANCH  15  16
HETATM   16  N   UNK N   1      36.220  11.312  20.732  0.00  0.00    -0.415 N 
HETATM   17  H   UNK N   1      36.898  12.028  20.991  0.00  0.00     0.151 HD
HETATM   18  H   UNK N   1      35.358  11.799  20.982  0.00  0.00     0.151 HD
ENDBRANCH  15  16
BRANCH  15  19
HETATM   19  C   UNK N   1      34.483   9.664  21.087  0.00  0.00    -0.027 A 
HETATM   20  C   UNK N   1      33.499  10.610  21.420  0.00  0.00     0.010 A 
HETATM   21  C   UNK N   1      32.393  10.232  22.185  0.00  0.00     0.001 A 
HETATM   22  C   UNK N   1      32.264   8.911  22.619  0.00  0.00     0.000 A 
HETATM   23  C   UNK N   1      33.242   7.965  22.289  0.00  0.00     0.001 A 
HETATM   24  C   UNK N   1      34.350   8.342  21.522  0.00  0.00     0.010 A 
ENDBRANCH  15  19
ENDBRANCH  12  15
ENDBRANCH   7  11
BRANCH   6  25
HETATM   25  C   UNK N   1      36.084  14.326  13.376  0.00  0.00     0.280 C 
HETATM   26  O   UNK N   1      36.668  15.111  14.104  0.00  0.00    -0.263 OA
BRANCH  25  27
HETATM   27  O   UNK N   1      35.938  14.657  12.082  0.00  0.00    -0.294 OA
BRANCH  27  28
HETATM   28  C   UNK N   1      34.752  15.045  11.521  0.00  0.00     0.358 C 
BRANCH  28  29
HETATM   29  O   UNK N   1      34.943  15.365  10.193  0.00  0.00    -0.294 OA
BRANCH  29  30
HETATM   30  C   UNK N   1      34.918  16.651   9.759  0.00  0.00     0.268 C 
HETATM   31  O   UNK N   1      35.545  17.519  10.356  0.00  0.00    -0.264 OA
BRANCH  30  32
HETATM   32  C   UNK N   1      34.200  16.992   8.489  0.00  0.00     0.037 C 
HETATM   33  C   UNK N   1      34.601  16.041   7.379  0.00  0.00     0.025 C 
HETATM   34  C   UNK N   1      32.708  16.875   8.739  0.00  0.00     0.025 C 
HETATM   35  C   UNK N   1      34.503  18.415   8.054  0.00  0.00     0.025 C 
ENDBRANCH  30  32
ENDBRANCH  29  30
ENDBRANCH  28  29
ENDBRANCH  27  28
ENDBRANCH  25  27
ENDBRANCH   6  25
TORSDOF 10
ENDMDL
