MODEL 1
REMARK VINA RESULT:      -6.9      0.000      0.000
REMARK  7 active torsions:
REMARK  status: ('A' for Active; 'I' for Inactive)
REMARK    1  A    between atoms: O_4  and  C_18 
REMARK    2  A    between atoms: O_7  and  C_22 
REMARK    3  A    between atoms: C_14  and  N_10 
REMARK       I    between atoms: N_10  and  C_19 
REMARK    4  A    between atoms: C_13  and  C_18 
REMARK    5  A    between atoms: C_20  and  C_19 
REMARK    6  A    between atoms: C_20  and  C_21 
REMARK    7  A    between atoms: C_20  and  C_22 
ROOT
HETATM    1  S   UNK N   1      29.700  22.479  -5.756  0.00  0.00    -0.135 SA
HETATM    2  O   UNK N   1      30.691  23.183  -1.640  0.00  0.00    -0.277 OA
HETATM    3  N   UNK N   1      31.280  23.162  -3.815  0.00  0.00    -0.219 NA
HETATM    4  C   UNK N   1      30.423  23.828  -4.739  0.00  0.00     0.160 A 
HETATM    5  C   UNK N   1      31.218  21.482  -5.443  0.00  0.00     0.029 C 
HETATM    6  C   UNK N   1      31.517  21.758  -3.972  0.00  0.00     0.182 C 
HETATM    7  C   UNK N   1      29.659  24.462  -3.454  0.00  0.00     0.199 A 
HETATM    8  C   UNK N   1      30.705  23.671  -2.765  0.00  0.00     0.227 A 
HETATM    9  C   UNK N   1      30.964  20.007  -5.680  0.00  0.00     0.029 C 
HETATM   10  C   UNK N   1      32.335  21.963  -6.364  0.00  0.00     0.029 C 
ENDROOT
BRANCH   7  11
HETATM   11  N   UNK N   1      28.396  23.834  -3.141  0.00  0.00    -0.345 N 
HETATM   12  C   UNK N   1      27.226  24.343  -3.603  0.00  0.00     0.237 C 
HETATM   13  O   UNK N   1      26.170  23.856  -3.234  0.00  0.00    -0.272 OA
HETATM   14  H   UNK N   1      28.384  23.022  -2.584  0.00  0.00     0.163 HD
BRANCH  12  15
HETATM   15  C   UNK N   1      27.216  25.473  -4.604  0.00  0.00     0.209 C 
BRANCH  15  16
HETATM   16  C   UNK N   1      27.106  26.886  -4.119  0.00  0.00    -0.028 A 
HETATM   17  C   UNK N   1      25.858  27.561  -4.004  0.00  0.00     0.016 A 
HETATM   18  C   UNK N   1      25.979  28.886  -3.576  0.00  0.00     0.050 A 
HETATM   19  S   UNK N   1      27.605  29.145  -3.372  0.00  0.00    -0.113 SA
HETATM   20  C   UNK N   1      28.219  27.664  -3.794  0.00  0.00     0.058 A 
ENDBRANCH  15  16
BRANCH  15  21
HETATM   21  C   UNK N   1      26.674  25.158  -5.971  0.00  0.00     0.157 C 
HETATM   22  O   UNK N   1      27.342  25.392  -6.967  0.00  0.00    -0.649 OA
BRANCH  21  23
HETATM   23  O   UNK N   1      25.446  24.624  -6.108  0.00  0.00    -0.775 OA
HETATM   24  H   UNK N   1      25.150  23.776  -6.374  0.00  0.00     0.167 HD
ENDBRANCH  21  23
ENDBRANCH  15  21
ENDBRANCH  12  15
ENDBRANCH   7  11
BRANCH   6  25
HETATM   25  C   UNK N   1      32.779  21.266  -3.318  0.00  0.00     0.160 C 
HETATM   26  O   UNK N   1      33.766  20.999  -3.982  0.00  0.00    -0.649 OA
BRANCH  25  27
HETATM   27  O   UNK N   1      32.794  21.059  -1.988  0.00  0.00    -0.775 OA
HETATM   28  H   UNK N   1      32.253  21.570  -1.419  0.00  0.00     0.167 HD
ENDBRANCH  25  27
ENDBRANCH   6  25
TORSDOF 7
ENDMDL
MODEL 2
REMARK VINA RESULT:      -6.7     16.405     19.686
REMARK  7 active torsions:
REMARK  status: ('A' for Active; 'I' for Inactive)
REMARK    1  A    between atoms: O_4  and  C_18 
REMARK    2  A    between atoms: O_7  and  C_22 
REMARK    3  A    between atoms: C_14  and  N_10 
REMARK       I    between atoms: N_10  and  C_19 
REMARK    4  A    between atoms: C_13  and  C_18 
REMARK    5  A    between atoms: C_20  and  C_19 
REMARK    6  A    between atoms: C_20  and  C_21 
REMARK    7  A    between atoms: C_20  and  C_22 
ROOT
HETATM    1  S   UNK N   1      34.439  13.963   8.428  0.00  0.00    -0.135 SA
HETATM    2  O   UNK N   1      35.937  17.332  10.625  0.00  0.00    -0.277 OA
HETATM    3  N   UNK N   1      34.256  16.304   9.530  0.00  0.00    -0.219 NA
HETATM    4  C   UNK N   1      33.954  14.959   9.895  0.00  0.00     0.160 A 
HETATM    5  C   UNK N   1      34.094  15.429   7.366  0.00  0.00     0.029 C 
HETATM    6  C   UNK N   1      34.655  16.589   8.184  0.00  0.00     0.182 C 
HETATM    7  C   UNK N   1      34.933  15.168  11.174  0.00  0.00     0.199 A 
HETATM    8  C   UNK N   1      35.028  16.512  10.558  0.00  0.00     0.227 A 
HETATM    9  C   UNK N   1      34.798  15.315   6.029  0.00  0.00     0.029 C 
HETATM   10  C   UNK N   1      32.589  15.546   7.144  0.00  0.00     0.029 C 
ENDROOT
BRANCH   7  11
HETATM   11  N   UNK N   1      36.236  14.560  11.033  0.00  0.00    -0.345 N 
HETATM   12  C   UNK N   1      36.570  13.448  11.736  0.00  0.00     0.237 C 
HETATM   13  O   UNK N   1      37.711  13.019  11.679  0.00  0.00    -0.272 OA
HETATM   14  H   UNK N   1      36.893  14.959  10.417  0.00  0.00     0.163 HD
BRANCH  12  15
HETATM   15  C   UNK N   1      35.535  12.706  12.547  0.00  0.00     0.209 C 
BRANCH  15  16
HETATM   16  C   UNK N   1      35.488  12.895  14.031  0.00  0.00    -0.028 A 
HETATM   17  C   UNK N   1      36.395  13.746  14.724  0.00  0.00     0.016 A 
HETATM   18  C   UNK N   1      36.211  13.747  16.109  0.00  0.00     0.050 A 
HETATM   19  S   UNK N   1      34.953  12.703  16.395  0.00  0.00    -0.113 SA
HETATM   20  C   UNK N   1      34.588  12.213  14.853  0.00  0.00     0.058 A 
ENDBRANCH  15  16
BRANCH  15  21
HETATM   21  C   UNK N   1      35.062  11.389  11.994  0.00  0.00     0.157 C 
HETATM   22  O   UNK N   1      35.731  10.380  12.151  0.00  0.00    -0.649 OA
BRANCH  21  23
HETATM   23  O   UNK N   1      33.902  11.316  11.315  0.00  0.00    -0.775 OA
HETATM   24  H   UNK N   1      33.380  10.593  11.028  0.00  0.00     0.167 HD
ENDBRANCH  21  23
ENDBRANCH  15  21
ENDBRANCH  12  15
ENDBRANCH   7  11
BRANCH   6  25
HETATM   25  C   UNK N   1      34.449  18.020   7.767  0.00  0.00     0.160 C 
HETATM   26  O   UNK N   1      33.707  18.302   6.842  0.00  0.00    -0.649 OA
BRANCH  25  27
HETATM   27  O   UNK N   1      35.142  18.993   8.386  0.00  0.00    -0.775 OA
HETATM   28  H   UNK N   1      34.706  19.618   8.931  0.00  0.00     0.167 HD
ENDBRANCH  25  27
ENDBRANCH   6  25
TORSDOF 7
ENDMDL
MODEL 3
REMARK VINA RESULT:      -6.7     12.330     15.535
REMARK  7 active torsions:
REMARK  status: ('A' for Active; 'I' for Inactive)
REMARK    1  A    between atoms: O_4  and  C_18 
REMARK    2  A    between atoms: O_7  and  C_22 
REMARK    3  A    between atoms: C_14  and  N_10 
REMARK       I    between atoms: N_10  and  C_19 
REMARK    4  A    between atoms: C_13  and  C_18 
REMARK    5  A    between atoms: C_20  and  C_19 
REMARK    6  A    between atoms: C_20  and  C_21 
REMARK    7  A    between atoms: C_20  and  C_22 
ROOT
HETATM    1  S   UNK N   1      29.917  17.357   4.973  0.00  0.00    -0.135 SA
HETATM    2  O   UNK N   1      30.757  18.440   9.040  0.00  0.00    -0.277 OA
HETATM    3  N   UNK N   1      29.446  17.410   7.523  0.00  0.00    -0.219 NA
HETATM    4  C   UNK N   1      30.073  16.521   6.602  0.00  0.00     0.160 A 
HETATM    5  C   UNK N   1      28.385  18.179   5.584  0.00  0.00     0.029 C 
HETATM    6  C   UNK N   1      28.741  18.551   7.021  0.00  0.00     0.182 C 
HETATM    7  C   UNK N   1      31.407  16.635   7.521  0.00  0.00     0.199 A 
HETATM    8  C   UNK N   1      30.490  17.504   8.294  0.00  0.00     0.227 A 
HETATM    9  C   UNK N   1      28.060  19.412   4.766  0.00  0.00     0.029 C 
HETATM   10  C   UNK N   1      27.222  17.193   5.510  0.00  0.00     0.029 C 
ENDROOT
BRANCH   7  11
HETATM   11  N   UNK N   1      32.432  17.498   6.979  0.00  0.00    -0.345 N 
HETATM   12  C   UNK N   1      33.745  17.167   7.067  0.00  0.00     0.237 C 
HETATM   13  O   UNK N   1      34.593  17.964   6.698  0.00  0.00    -0.272 OA
HETATM   14  H   UNK N   1      32.173  18.340   6.539  0.00  0.00     0.163 HD
BRANCH  12  15
HETATM   15  C   UNK N   1      34.168  15.807   7.568  0.00  0.00     0.209 C 
BRANCH  15  16
HETATM   16  C   UNK N   1      34.459  15.617   9.025  0.00  0.00    -0.028 A 
HETATM   17  C   UNK N   1      35.119  16.603   9.810  0.00  0.00     0.016 A 
HETATM   18  C   UNK N   1      35.333  16.211  11.134  0.00  0.00     0.050 A 
HETATM   19  S   UNK N   1      34.705  14.680  11.255  0.00  0.00    -0.113 SA
HETATM   20  C   UNK N   1      34.152  14.439   9.710  0.00  0.00     0.058 A 
ENDBRANCH  15  16
BRANCH  15  21
HETATM   21  C   UNK N   1      34.891  14.922   6.589  0.00  0.00     0.157 C 
HETATM   22  O   UNK N   1      34.455  13.812   6.326  0.00  0.00    -0.649 OA
BRANCH  21  23
HETATM   23  O   UNK N   1      36.026  15.344   6.003  0.00  0.00    -0.775 OA
HETATM   24  H   UNK N   1      36.753  15.846   6.316  0.00  0.00     0.167 HD
ENDBRANCH  21  23
ENDBRANCH  15  21
ENDBRANCH  12  15
ENDBRANCH   7  11
BRANCH   6  25
HETATM   25  C   UNK N   1      27.715  19.112   7.968  0.00  0.00     0.160 C 
HETATM   26  O   UNK N   1      27.117  20.142   7.704  0.00  0.00    -0.649 OA
BRANCH  25  27
HETATM   27  O   UNK N   1      27.503  18.500   9.147  0.00  0.00    -0.775 OA
HETATM   28  H   UNK N   1      28.223  18.205   9.669  0.00  0.00     0.167 HD
ENDBRANCH  25  27
ENDBRANCH   6  25
TORSDOF 7
ENDMDL
MODEL 4
REMARK VINA RESULT:      -6.5     16.164     19.727
REMARK  7 active torsions:
REMARK  status: ('A' for Active; 'I' for Inactive)
REMARK    1  A    between atoms: O_4  and  C_18 
REMARK    2  A    between atoms: O_7  and  C_22 
REMARK    3  A    between atoms: C_14  and  N_10 
REMARK       I    between atoms: N_10  and  C_19 
REMARK    4  A    between atoms: C_13  and  C_18 
REMARK    5  A    between atoms: C_20  and  C_19 
REMARK    6  A    between atoms: C_20  and  C_21 
REMARK    7  A    between atoms: C_20  and  C_22 
ROOT
HETATM    1  S   UNK N   1      34.349  14.105   8.188  0.00  0.00    -0.135 SA
HETATM    2  O   UNK N   1      36.085  17.089  10.736  0.00  0.00    -0.277 OA
HETATM    3  N   UNK N   1      34.288  16.212   9.698  0.00  0.00    -0.219 NA
HETATM    4  C   UNK N   1      34.049  14.816   9.855  0.00  0.00     0.160 A 
HETATM    5  C   UNK N   1      33.856  15.720   7.451  0.00  0.00     0.029 C 
HETATM    6  C   UNK N   1      34.506  16.739   8.383  0.00  0.00     0.182 C 
HETATM    7  C   UNK N   1      35.182  14.832  11.018  0.00  0.00     0.199 A 
HETATM    8  C   UNK N   1      35.183  16.265  10.640  0.00  0.00     0.227 A 
HETATM    9  C   UNK N   1      34.383  15.862   6.037  0.00  0.00     0.029 C 
HETATM   10  C   UNK N   1      32.334  15.826   7.443  0.00  0.00     0.029 C 
ENDROOT
BRANCH   7  11
HETATM   11  N   UNK N   1      36.462  14.299  10.611  0.00  0.00    -0.345 N 
HETATM   12  C   UNK N   1      37.122  13.397  11.380  0.00  0.00     0.237 C 
HETATM   13  O   UNK N   1      38.248  13.047  11.065  0.00  0.00    -0.272 OA
HETATM   14  H   UNK N   1      36.862  14.595   9.760  0.00  0.00     0.163 HD
BRANCH  12  15
HETATM   15  C   UNK N   1      36.463  12.785  12.591  0.00  0.00     0.209 C 
BRANCH  15  16
HETATM   16  C   UNK N   1      35.687  11.512  12.443  0.00  0.00    -0.028 A 
HETATM   17  C   UNK N   1      35.957  10.354  13.225  0.00  0.00     0.016 A 
HETATM   18  C   UNK N   1      35.150   9.261  12.900  0.00  0.00     0.050 A 
HETATM   19  S   UNK N   1      34.162   9.783  11.672  0.00  0.00    -0.113 SA
HETATM   20  C   UNK N   1      34.677  11.348  11.492  0.00  0.00     0.058 A 
ENDBRANCH  15  16
BRANCH  15  21
HETATM   21  C   UNK N   1      36.054  13.730  13.688  0.00  0.00     0.157 C 
HETATM   22  O   UNK N   1      35.032  13.528  14.325  0.00  0.00    -0.649 OA
BRANCH  21  23
HETATM   23  O   UNK N   1      36.807  14.810  13.969  0.00  0.00    -0.775 OA
HETATM   24  H   UNK N   1      37.579  14.926  14.486  0.00  0.00     0.167 HD
ENDBRANCH  21  23
ENDBRANCH  15  21
ENDBRANCH  12  15
ENDBRANCH   7  11
BRANCH   6  25
HETATM   25  C   UNK N   1      34.235  18.213   8.253  0.00  0.00     0.160 C 
HETATM   26  O   UNK N   1      33.127  18.621   7.947  0.00  0.00    -0.649 OA
BRANCH  25  27
HETATM   27  O   UNK N   1      35.246  19.086   8.417  0.00  0.00    -0.775 OA
HETATM   28  H   UNK N   1      35.451  19.710   7.749  0.00  0.00     0.167 HD
ENDBRANCH  25  27
ENDBRANCH   6  25
TORSDOF 7
ENDMDL
MODEL 5
REMARK VINA RESULT:      -6.5     14.134     17.505
REMARK  7 active torsions:
REMARK  status: ('A' for Active; 'I' for Inactive)
REMARK    1  A    between atoms: O_4  and  C_18 
REMARK    2  A    between atoms: O_7  and  C_22 
REMARK    3  A    between atoms: C_14  and  N_10 
REMARK       I    between atoms: N_10  and  C_19 
REMARK    4  A    between atoms: C_13  and  C_18 
REMARK    5  A    between atoms: C_20  and  C_19 
REMARK    6  A    between atoms: C_20  and  C_21 
REMARK    7  A    between atoms: C_20  and  C_22 
ROOT
HETATM    1  S   UNK N   1      34.333  15.908   6.331  0.00  0.00    -0.135 SA
HETATM    2  O   UNK N   1      31.110  16.494   9.102  0.00  0.00    -0.277 OA
HETATM    3  N   UNK N   1      31.984  15.428   7.319  0.00  0.00    -0.219 NA
HETATM    4  C   UNK N   1      33.295  14.886   7.451  0.00  0.00     0.160 A 
HETATM    5  C   UNK N   1      32.844  16.209   5.288  0.00  0.00     0.029 C 
HETATM    6  C   UNK N   1      31.737  16.422   6.318  0.00  0.00     0.182 C 
HETATM    7  C   UNK N   1      33.173  15.180   9.043  0.00  0.00     0.199 A 
HETATM    8  C   UNK N   1      31.844  15.655   8.593  0.00  0.00     0.227 A 
HETATM    9  C   UNK N   1      33.022  17.437   4.418  0.00  0.00     0.029 C 
HETATM   10  C   UNK N   1      32.592  14.990   4.406  0.00  0.00     0.029 C 
ENDROOT
BRANCH   7  11
HETATM   11  N   UNK N   1      33.897  16.349   9.491  0.00  0.00    -0.345 N 
HETATM   12  C   UNK N   1      35.046  16.231  10.203  0.00  0.00     0.237 C 
HETATM   13  O   UNK N   1      35.576  17.231  10.660  0.00  0.00    -0.272 OA
HETATM   14  H   UNK N   1      33.550  17.245   9.275  0.00  0.00     0.163 HD
BRANCH  12  15
HETATM   15  C   UNK N   1      35.702  14.886  10.395  0.00  0.00     0.209 C 
BRANCH  15  16
HETATM   16  C   UNK N   1      35.579  14.188  11.715  0.00  0.00    -0.028 A 
HETATM   17  C   UNK N   1      36.105  14.730  12.921  0.00  0.00     0.016 A 
HETATM   18  C   UNK N   1      35.923  13.901  14.031  0.00  0.00     0.050 A 
HETATM   19  S   UNK N   1      35.135  12.557  13.461  0.00  0.00    -0.113 SA
HETATM   20  C   UNK N   1      34.987  12.931  11.853  0.00  0.00     0.058 A 
ENDBRANCH  15  16
BRANCH  15  21
HETATM   21  C   UNK N   1      36.929  14.610   9.570  0.00  0.00     0.157 C 
HETATM   22  O   UNK N   1      36.828  14.076   8.476  0.00  0.00    -0.649 OA
BRANCH  21  23
HETATM   23  O   UNK N   1      38.148  14.942  10.034  0.00  0.00    -0.775 OA
HETATM   24  H   UNK N   1      38.663  15.721   9.962  0.00  0.00     0.167 HD
ENDBRANCH  21  23
ENDBRANCH  15  21
ENDBRANCH  12  15
ENDBRANCH   7  11
BRANCH   6  25
HETATM   25  C   UNK N   1      30.295  16.547   5.911  0.00  0.00     0.160 C 
HETATM   26  O   UNK N   1      29.802  17.638   5.676  0.00  0.00    -0.649 OA
BRANCH  25  27
HETATM   27  O   UNK N   1      29.525  15.444   5.866  0.00  0.00    -0.775 OA
HETATM   28  H   UNK N   1      28.824  15.325   6.477  0.00  0.00     0.167 HD
ENDBRANCH  25  27
ENDBRANCH   6  25
TORSDOF 7
ENDMDL
MODEL 6
REMARK VINA RESULT:      -6.2     14.627     17.098
REMARK  7 active torsions:
REMARK  status: ('A' for Active; 'I' for Inactive)
REMARK    1  A    between atoms: O_4  and  C_18 
REMARK    2  A    between atoms: O_7  and  C_22 
REMARK    3  A    between atoms: C_14  and  N_10 
REMARK       I    between atoms: N_10  and  C_19 
REMARK    4  A    between atoms: C_13  and  C_18 
REMARK    5  A    between atoms: C_20  and  C_19 
REMARK    6  A    between atoms: C_20  and  C_21 
REMARK    7  A    between atoms: C_20  and  C_22 
ROOT
HETATM    1  S   UNK N   1      36.708  13.196   8.570  0.00  0.00    -0.135 SA
HETATM    2  O   UNK N   1      33.823  14.752  11.340  0.00  0.00    -0.277 OA
HETATM    3  N   UNK N   1      35.956  14.575  10.634  0.00  0.00    -0.219 NA
HETATM    4  C   UNK N   1      36.220  14.830   9.257  0.00  0.00     0.160 A 
HETATM    5  C   UNK N   1      37.331  12.723  10.239  0.00  0.00     0.029 C 
HETATM    6  C   UNK N   1      36.268  13.287  11.178  0.00  0.00     0.182 C 
HETATM    7  C   UNK N   1      34.706  15.406   9.153  0.00  0.00     0.199 A 
HETATM    8  C   UNK N   1      34.746  15.052  10.591  0.00  0.00     0.227 A 
HETATM    9  C   UNK N   1      37.439  11.219  10.378  0.00  0.00     0.029 C 
HETATM   10  C   UNK N   1      38.701  13.358  10.463  0.00  0.00     0.029 C 
ENDROOT
BRANCH   7  11
HETATM   11  N   UNK N   1      33.764  14.501   8.534  0.00  0.00    -0.345 N 
HETATM   12  C   UNK N   1      32.731  14.967   7.788  0.00  0.00     0.237 C 
HETATM   13  O   UNK N   1      31.891  14.187   7.368  0.00  0.00    -0.272 OA
HETATM   14  H   UNK N   1      33.875  13.530   8.654  0.00  0.00     0.163 HD
BRANCH  12  15
HETATM   15  C   UNK N   1      32.633  16.431   7.431  0.00  0.00     0.209 C 
BRANCH  15  16
HETATM   16  C   UNK N   1      31.359  17.171   7.699  0.00  0.00    -0.028 A 
HETATM   17  C   UNK N   1      31.178  17.994   8.846  0.00  0.00     0.016 A 
HETATM   18  C   UNK N   1      29.902  18.558   8.931  0.00  0.00     0.050 A 
HETATM   19  S   UNK N   1      29.079  18.008   7.599  0.00  0.00    -0.113 SA
HETATM   20  C   UNK N   1      30.237  17.068   6.874  0.00  0.00     0.058 A 
ENDBRANCH  15  16
BRANCH  15  21
HETATM   21  C   UNK N   1      33.491  16.905   6.290  0.00  0.00     0.157 C 
HETATM   22  O   UNK N   1      33.394  16.385   5.189  0.00  0.00    -0.649 OA
BRANCH  21  23
HETATM   23  O   UNK N   1      34.378  17.901   6.477  0.00  0.00    -0.775 OA
HETATM   24  H   UNK N   1      34.523  18.711   6.030  0.00  0.00     0.167 HD
ENDBRANCH  21  23
ENDBRANCH  15  21
ENDBRANCH  12  15
ENDBRANCH   7  11
BRANCH   6  25
HETATM   25  C   UNK N   1      36.447  13.272  12.671  0.00  0.00     0.160 C 
HETATM   26  O   UNK N   1      36.155  12.286  13.327  0.00  0.00    -0.649 OA
BRANCH  25  27
HETATM   27  O   UNK N   1      36.877  14.384  13.295  0.00  0.00    -0.775 OA
HETATM   28  H   UNK N   1      37.755  14.442  13.618  0.00  0.00     0.167 HD
ENDBRANCH  25  27
ENDBRANCH   6  25
TORSDOF 7
ENDMDL
MODEL 7
REMARK VINA RESULT:      -6.2     11.571     13.311
REMARK  7 active torsions:
REMARK  status: ('A' for Active; 'I' for Inactive)
REMARK    1  A    between atoms: O_4  and  C_18 
REMARK    2  A    between atoms: O_7  and  C_22 
REMARK    3  A    between atoms: C_14  and  N_10 
REMARK       I    between atoms: N_10  and  C_19 
REMARK    4  A    between atoms: C_13  and  C_18 
REMARK    5  A    between atoms: C_20  and  C_19 
REMARK    6  A    between atoms: C_20  and  C_21 
REMARK    7  A    between atoms: C_20  and  C_22 
ROOT
HETATM    1  S   UNK N   1      32.606  14.434   6.781  0.00  0.00    -0.135 SA
HETATM    2  O   UNK N   1      31.604  18.170   8.638  0.00  0.00    -0.277 OA
HETATM    3  N   UNK N   1      33.083  16.865   7.549  0.00  0.00    -0.219 NA
HETATM    4  C   UNK N   1      32.644  16.221   6.356  0.00  0.00     0.160 A 
HETATM    5  C   UNK N   1      33.942  14.738   8.014  0.00  0.00     0.029 C 
HETATM    6  C   UNK N   1      33.531  16.064   8.649  0.00  0.00     0.182 C 
HETATM    7  C   UNK N   1      31.325  17.166   6.424  0.00  0.00     0.199 A 
HETATM    8  C   UNK N   1      32.050  17.653   7.620  0.00  0.00     0.227 A 
HETATM    9  C   UNK N   1      33.996  13.632   9.048  0.00  0.00     0.029 C 
HETATM   10  C   UNK N   1      35.283  14.829   7.291  0.00  0.00     0.029 C 
ENDROOT
BRANCH   7  11
HETATM   11  N   UNK N   1      30.138  16.498   6.907  0.00  0.00    -0.345 N 
HETATM   12  C   UNK N   1      28.923  16.738   6.352  0.00  0.00     0.237 C 
HETATM   13  O   UNK N   1      27.925  16.243   6.850  0.00  0.00    -0.272 OA
HETATM   14  H   UNK N   1      30.211  15.858   7.652  0.00  0.00     0.163 HD
BRANCH  12  15
HETATM   15  C   UNK N   1      28.797  17.568   5.097  0.00  0.00     0.209 C 
BRANCH  15  16
HETATM   16  C   UNK N   1      27.995  18.833   5.129  0.00  0.00    -0.028 A 
HETATM   17  C   UNK N   1      27.335  19.350   3.979  0.00  0.00     0.016 A 
HETATM   18  C   UNK N   1      26.680  20.562   4.211  0.00  0.00     0.050 A 
HETATM   19  S   UNK N   1      26.958  20.924   5.806  0.00  0.00    -0.113 SA
HETATM   20  C   UNK N   1      27.879  19.627   6.272  0.00  0.00     0.058 A 
ENDBRANCH  15  16
BRANCH  15  21
HETATM   21  C   UNK N   1      28.892  16.832   3.789  0.00  0.00     0.157 C 
HETATM   22  O   UNK N   1      28.074  15.971   3.507  0.00  0.00    -0.649 OA
BRANCH  21  23
HETATM   23  O   UNK N   1      29.884  17.112   2.923  0.00  0.00    -0.775 OA
HETATM   24  H   UNK N   1      30.654  17.642   2.992  0.00  0.00     0.167 HD
ENDBRANCH  21  23
ENDBRANCH  15  21
ENDBRANCH  12  15
ENDBRANCH   7  11
BRANCH   6  25
HETATM   25  C   UNK N   1      34.429  16.787   9.616  0.00  0.00     0.160 C 
HETATM   26  O   UNK N   1      35.079  17.756   9.263  0.00  0.00    -0.649 OA
BRANCH  25  27
HETATM   27  O   UNK N   1      34.560  16.317  10.870  0.00  0.00    -0.775 OA
HETATM   28  H   UNK N   1      35.032  15.525  11.037  0.00  0.00     0.167 HD
ENDBRANCH  25  27
ENDBRANCH   6  25
TORSDOF 7
ENDMDL
MODEL 8
REMARK VINA RESULT:      -6.1     13.885     16.733
REMARK  7 active torsions:
REMARK  status: ('A' for Active; 'I' for Inactive)
REMARK    1  A    between atoms: O_4  and  C_18 
REMARK    2  A    between atoms: O_7  and  C_22 
REMARK    3  A    between atoms: C_14  and  N_10 
REMARK       I    between atoms: N_10  and  C_19 
REMARK    4  A    between atoms: C_13  and  C_18 
REMARK    5  A    between atoms: C_20  and  C_19 
REMARK    6  A    between atoms: C_20  and  C_21 
REMARK    7  A    between atoms: C_20  and  C_22 
ROOT
HETATM    1  S   UNK N   1      34.350  15.169  10.918  0.00  0.00    -0.135 SA
HETATM    2  O   UNK N   1      37.109  14.171   7.787  0.00  0.00    -0.277 OA
HETATM    3  N   UNK N   1      35.688  13.533   9.416  0.00  0.00    -0.219 NA
HETATM    4  C   UNK N   1      34.384  14.108   9.418  0.00  0.00     0.160 A 
HETATM    5  C   UNK N   1      35.584  14.043  11.697  0.00  0.00     0.029 C 
HETATM    6  C   UNK N   1      36.541  13.731  10.550  0.00  0.00     0.182 C 
HETATM    7  C   UNK N   1      34.723  14.691   7.941  0.00  0.00     0.199 A 
HETATM    8  C   UNK N   1      35.982  13.965   8.224  0.00  0.00     0.227 A 
HETATM    9  C   UNK N   1      36.306  14.727  12.839  0.00  0.00     0.029 C 
HETATM   10  C   UNK N   1      34.870  12.797  12.215  0.00  0.00     0.029 C 
ENDROOT
BRANCH   7  11
HETATM   11  N   UNK N   1      35.056  16.096   7.916  0.00  0.00    -0.345 N 
HETATM   12  C   UNK N   1      34.224  17.004   7.344  0.00  0.00     0.237 C 
HETATM   13  O   UNK N   1      34.581  18.167   7.241  0.00  0.00    -0.272 OA
HETATM   14  H   UNK N   1      35.900  16.401   8.321  0.00  0.00     0.163 HD
BRANCH  12  15
HETATM   15  C   UNK N   1      32.846  16.603   6.878  0.00  0.00     0.209 C 
BRANCH  15  16
HETATM   16  C   UNK N   1      32.595  16.393   5.416  0.00  0.00    -0.028 A 
HETATM   17  C   UNK N   1      32.763  17.427   4.453  0.00  0.00     0.016 A 
HETATM   18  C   UNK N   1      32.434  17.036   3.152  0.00  0.00     0.050 A 
HETATM   19  S   UNK N   1      31.953  15.452   3.268  0.00  0.00    -0.113 SA
HETATM   20  C   UNK N   1      32.126  15.184   4.895  0.00  0.00     0.058 A 
ENDBRANCH  15  16
BRANCH  15  21
HETATM   21  C   UNK N   1      31.689  17.051   7.729  0.00  0.00     0.157 C 
HETATM   22  O   UNK N   1      30.661  17.454   7.207  0.00  0.00    -0.649 OA
BRANCH  21  23
HETATM   23  O   UNK N   1      31.782  17.018   9.071  0.00  0.00    -0.775 OA
HETATM   24  H   UNK N   1      32.014  17.666   9.706  0.00  0.00     0.167 HD
ENDBRANCH  21  23
ENDBRANCH  15  21
ENDBRANCH  12  15
ENDBRANCH   7  11
BRANCH   6  25
HETATM   25  C   UNK N   1      37.633  12.707  10.691  0.00  0.00     0.160 C 
HETATM   26  O   UNK N   1      37.407  11.522  10.512  0.00  0.00    -0.649 OA
BRANCH  25  27
HETATM   27  O   UNK N   1      38.860  13.101  11.079  0.00  0.00    -0.775 OA
HETATM   28  H   UNK N   1      39.467  13.454  10.459  0.00  0.00     0.167 HD
ENDBRANCH  25  27
ENDBRANCH   6  25
TORSDOF 7
ENDMDL
MODEL 9
REMARK VINA RESULT:      -5.8     16.681     19.500
REMARK  7 active torsions:
REMARK  status: ('A' for Active; 'I' for Inactive)
REMARK    1  A    between atoms: O_4  and  C_18 
REMARK    2  A    between atoms: O_7  and  C_22 
REMARK    3  A    between atoms: C_14  and  N_10 
REMARK       I    between atoms: N_10  and  C_19 
REMARK    4  A    between atoms: C_13  and  C_18 
REMARK    5  A    between atoms: C_20  and  C_19 
REMARK    6  A    between atoms: C_20  and  C_21 
REMARK    7  A    between atoms: C_20  and  C_22 
ROOT
HETATM    1  S   UNK N   1      35.418  10.430  11.911  0.00  0.00    -0.135 SA
HETATM    2  O   UNK N   1      34.417  14.598  12.111  0.00  0.00    -0.277 OA
HETATM    3  N   UNK N   1      35.830  12.904  12.571  0.00  0.00    -0.219 NA
HETATM    4  C   UNK N   1      36.200  12.041  11.499  0.00  0.00     0.160 A 
HETATM    5  C   UNK N   1      35.535  10.873  13.696  0.00  0.00     0.029 C 
HETATM    6  C   UNK N   1      35.159  12.353  13.710  0.00  0.00     0.182 C 
HETATM    7  C   UNK N   1      35.510  13.118  10.498  0.00  0.00     0.199 A 
HETATM    8  C   UNK N   1      35.291  13.798  11.795  0.00  0.00     0.227 A 
HETATM    9  C   UNK N   1      34.567  10.057  14.528  0.00  0.00     0.029 C 
HETATM   10  C   UNK N   1      36.961  10.630  14.183  0.00  0.00     0.029 C 
ENDROOT
BRANCH   7  11
HETATM   11  N   UNK N   1      34.206  12.730  10.011  0.00  0.00    -0.345 N 
HETATM   12  C   UNK N   1      33.721  13.218   8.842  0.00  0.00     0.237 C 
HETATM   13  O   UNK N   1      32.575  12.959   8.510  0.00  0.00    -0.272 OA
HETATM   14  H   UNK N   1      33.661  12.101  10.537  0.00  0.00     0.163 HD
BRANCH  12  15
HETATM   15  C   UNK N   1      34.595  14.037   7.923  0.00  0.00     0.209 C 
BRANCH  15  16
HETATM   16  C   UNK N   1      34.374  15.514   7.819  0.00  0.00    -0.028 A 
HETATM   17  C   UNK N   1      33.943  16.142   6.616  0.00  0.00     0.016 A 
HETATM   18  C   UNK N   1      33.841  17.531   6.718  0.00  0.00     0.050 A 
HETATM   19  S   UNK N   1      34.291  17.901   8.272  0.00  0.00    -0.113 SA
HETATM   20  C   UNK N   1      34.624  16.393   8.875  0.00  0.00     0.058 A 
ENDBRANCH  15  16
BRANCH  15  21
HETATM   21  C   UNK N   1      35.163  13.328   6.724  0.00  0.00     0.157 C 
HETATM   22  O   UNK N   1      36.359  13.386   6.485  0.00  0.00    -0.649 OA
BRANCH  21  23
HETATM   23  O   UNK N   1      34.356  12.631   5.902  0.00  0.00    -0.775 OA
HETATM   24  H   UNK N   1      33.839  11.860   6.026  0.00  0.00     0.167 HD
ENDBRANCH  21  23
ENDBRANCH  15  21
ENDBRANCH  12  15
ENDBRANCH   7  11
BRANCH   6  25
HETATM   25  C   UNK N   1      35.275  13.183  14.959  0.00  0.00     0.160 C 
HETATM   26  O   UNK N   1      36.294  13.806  15.206  0.00  0.00    -0.649 OA
BRANCH  25  27
HETATM   27  O   UNK N   1      34.261  13.187  15.844  0.00  0.00    -0.775 OA
HETATM   28  H   UNK N   1      33.832  12.389  16.083  0.00  0.00     0.167 HD
ENDBRANCH  25  27
ENDBRANCH   6  25
TORSDOF 7
ENDMDL
