MODEL 1
REMARK VINA RESULT:      -6.9      0.000      0.000
REMARK  5 active torsions:
REMARK  status: ('A' for Active; 'I' for Inactive)
REMARK    1  A    between atoms: O_2  and  C_8 
REMARK    2  A    between atoms: N_3  and  C_11 
REMARK    3  A    between atoms: N_4  and  C_13 
REMARK    4  A    between atoms: C_11  and  C_12 
REMARK    5  A    between atoms: C_12  and  C_13 
ROOT
HETATM    1  S   UNK N   1      26.500  25.163  -4.051  0.00  0.00    -0.086 SA
HETATM    2  N   UNK N   1      29.132  24.938  -5.725  0.00  0.00    -0.345 N 
HETATM    3  N   UNK N   1      32.458  21.498  -2.525  0.00  0.00    -0.191 NA
HETATM    4  C   UNK N   1      29.096  24.237  -4.491  0.00  0.00     0.053 A 
HETATM    5  C   UNK N   1      28.387  26.151  -5.875  0.00  0.00     0.052 A 
HETATM    6  C   UNK N   1      28.004  24.308  -3.608  0.00  0.00     0.032 A 
HETATM    7  C   UNK N   1      27.247  26.416  -5.089  0.00  0.00     0.032 A 
HETATM    8  C   UNK N   1      30.213  23.492  -4.129  0.00  0.00     0.053 A 
HETATM    9  C   UNK N   1      28.841  27.142  -6.745  0.00  0.00     0.031 A 
HETATM   10  C   UNK N   1      28.056  23.617  -2.387  0.00  0.00     0.023 A 
HETATM   11  C   UNK N   1      26.621  27.665  -5.163  0.00  0.00     0.021 A 
HETATM   12  C   UNK N   1      30.279  22.826  -2.929  0.00  0.00     0.046 A 
HETATM   13  C   UNK N   1      28.229  28.394  -6.802  0.00  0.00     0.002 A 
HETATM   14  C   UNK N   1      29.199  22.880  -2.039  0.00  0.00     0.024 A 
HETATM   15  C   UNK N   1      27.127  28.661  -5.998  0.00  0.00     0.002 A 
HETATM   16  C   UNK N   1      31.470  22.079  -2.669  0.00  0.00     0.099 C 
ENDROOT
BRANCH   2  17
HETATM   17  C   UNK N   1      30.083  24.473  -6.730  0.00  0.00     0.131 C 
BRANCH  17  18
HETATM   18  C   UNK N   1      29.490  23.935  -8.025  0.00  0.00     0.050 C 
BRANCH  18  19
HETATM   19  C   UNK N   1      28.415  22.857  -7.896  0.00  0.00     0.274 C 
BRANCH  19  20
HETATM   20  N   UNK N   1      27.140  23.263  -8.523  0.00  0.00     0.088 N 
HETATM   21  C   UNK N   1      26.159  23.813  -7.579  0.00  0.00     0.275 C 
HETATM   22  C   UNK N   1      25.538  22.730  -6.682  0.00  0.00     0.062 C 
HETATM   23  C   UNK N   1      24.964  21.566  -7.471  0.00  0.00     0.121 C 
HETATM   24  C   UNK N   1      25.917  21.084  -8.569  0.00  0.00     0.062 C 
HETATM   25  C   UNK N   1      26.526  22.239  -9.379  0.00  0.00     0.275 C 
BRANCH  23  26
HETATM   26  O   UNK N   1      23.723  21.918  -7.993  0.00  0.00    -0.395 OA
HETATM   27  H   UNK N   1      23.293  22.785  -7.933  0.00  0.00     0.210 HD
ENDBRANCH  23  26
ENDBRANCH  19  20
ENDBRANCH  18  19
ENDBRANCH  17  18
ENDBRANCH   2  17
TORSDOF 5
ENDMDL
MODEL 2
REMARK VINA RESULT:      -6.7     11.791     13.395
REMARK  5 active torsions:
REMARK  status: ('A' for Active; 'I' for Inactive)
REMARK    1  A    between atoms: O_2  and  C_8 
REMARK    2  A    between atoms: N_3  and  C_11 
REMARK    3  A    between atoms: N_4  and  C_13 
REMARK    4  A    between atoms: C_11  and  C_12 
REMARK    5  A    between atoms: C_12  and  C_13 
ROOT
HETATM    1  S   UNK N   1      28.503  18.448   8.179  0.00  0.00    -0.086 SA
HETATM    2  N   UNK N   1      29.397  17.664   5.286  0.00  0.00    -0.345 N 
HETATM    3  N   UNK N   1      34.880  16.051   5.975  0.00  0.00    -0.191 NA
HETATM    4  C   UNK N   1      30.372  17.546   6.311  0.00  0.00     0.053 A 
HETATM    5  C   UNK N   1      28.379  18.664   5.385  0.00  0.00     0.052 A 
HETATM    6  C   UNK N   1      30.126  17.930   7.641  0.00  0.00     0.032 A 
HETATM    7  C   UNK N   1      27.975  19.181   6.634  0.00  0.00     0.032 A 
HETATM    8  C   UNK N   1      31.633  17.077   5.963  0.00  0.00     0.053 A 
HETATM    9  C   UNK N   1      27.833  19.218   4.228  0.00  0.00     0.031 A 
HETATM   10  C   UNK N   1      31.151  17.821   8.594  0.00  0.00     0.023 A 
HETATM   11  C   UNK N   1      27.075  20.252   6.689  0.00  0.00     0.021 A 
HETATM   12  C   UNK N   1      32.648  16.981   6.886  0.00  0.00     0.046 A 
HETATM   13  C   UNK N   1      26.953  20.299   4.284  0.00  0.00     0.002 A 
HETATM   14  C   UNK N   1      32.420  17.353   8.216  0.00  0.00     0.024 A 
HETATM   15  C   UNK N   1      26.587  20.827   5.517  0.00  0.00     0.002 A 
HETATM   16  C   UNK N   1      33.899  16.470   6.419  0.00  0.00     0.099 C 
ENDROOT
BRANCH   2  17
HETATM   17  C   UNK N   1      29.596  16.865   4.081  0.00  0.00     0.131 C 
BRANCH  17  18
HETATM   18  C   UNK N   1      28.704  15.641   3.926  0.00  0.00     0.050 C 
BRANCH  18  19
HETATM   19  C   UNK N   1      27.480  15.789   3.023  0.00  0.00     0.274 C 
BRANCH  19  20
HETATM   20  N   UNK N   1      26.293  15.104   3.576  0.00  0.00     0.088 N 
HETATM   21  C   UNK N   1      25.015  15.702   3.169  0.00  0.00     0.275 C 
HETATM   22  C   UNK N   1      24.745  17.042   3.871  0.00  0.00     0.062 C 
HETATM   23  C   UNK N   1      24.865  16.953   5.382  0.00  0.00     0.121 C 
HETATM   24  C   UNK N   1      26.118  16.188   5.820  0.00  0.00     0.062 C 
HETATM   25  C   UNK N   1      26.331  14.889   5.028  0.00  0.00     0.275 C 
BRANCH  23  26
HETATM   26  O   UNK N   1      23.712  16.383   5.913  0.00  0.00    -0.395 OA
HETATM   27  H   UNK N   1      23.666  15.687   6.587  0.00  0.00     0.210 HD
ENDBRANCH  23  26
ENDBRANCH  19  20
ENDBRANCH  18  19
ENDBRANCH  17  18
ENDBRANCH   2  17
TORSDOF 5
ENDMDL
MODEL 3
REMARK VINA RESULT:      -6.6     11.256     13.858
REMARK  5 active torsions:
REMARK  status: ('A' for Active; 'I' for Inactive)
REMARK    1  A    between atoms: O_2  and  C_8 
REMARK    2  A    between atoms: N_3  and  C_11 
REMARK    3  A    between atoms: N_4  and  C_13 
REMARK    4  A    between atoms: C_11  and  C_12 
REMARK    5  A    between atoms: C_12  and  C_13 
ROOT
HETATM    1  S   UNK N   1      30.550  16.820   3.305  0.00  0.00    -0.086 SA
HETATM    2  N   UNK N   1      29.651  16.821   6.300  0.00  0.00    -0.345 N 
HETATM    3  N   UNK N   1      34.568  17.687   9.167  0.00  0.00    -0.191 NA
HETATM    4  C   UNK N   1      31.036  17.005   6.047  0.00  0.00     0.053 A 
HETATM    5  C   UNK N   1      28.864  16.033   5.402  0.00  0.00     0.052 A 
HETATM    6  C   UNK N   1      31.585  16.957   4.753  0.00  0.00     0.032 A 
HETATM    7  C   UNK N   1      29.236  15.863   4.053  0.00  0.00     0.032 A 
HETATM    8  C   UNK N   1      31.881  17.191   7.135  0.00  0.00     0.053 A 
HETATM    9  C   UNK N   1      27.755  15.335   5.880  0.00  0.00     0.031 A 
HETATM   10  C   UNK N   1      32.970  17.109   4.584  0.00  0.00     0.023 A 
HETATM   11  C   UNK N   1      28.521  14.979   3.237  0.00  0.00     0.021 A 
HETATM   12  C   UNK N   1      33.240  17.325   6.979  0.00  0.00     0.046 A 
HETATM   13  C   UNK N   1      27.057  14.439   5.072  0.00  0.00     0.002 A 
HETATM   14  C   UNK N   1      33.804  17.285   5.699  0.00  0.00     0.024 A 
HETATM   15  C   UNK N   1      27.451  14.248   3.752  0.00  0.00     0.002 A 
HETATM   16  C   UNK N   1      34.009  17.527   8.168  0.00  0.00     0.099 C 
ENDROOT
BRANCH   2  17
HETATM   17  C   UNK N   1      29.136  17.305   7.578  0.00  0.00     0.131 C 
BRANCH  17  18
HETATM   18  C   UNK N   1      28.704  18.763   7.624  0.00  0.00     0.050 C 
BRANCH  18  19
HETATM   19  C   UNK N   1      27.450  19.136   6.835  0.00  0.00     0.274 C 
BRANCH  19  20
HETATM   20  N   UNK N   1      27.710  20.202   5.846  0.00  0.00     0.088 N 
HETATM   21  C   UNK N   1      26.573  21.107   5.630  0.00  0.00     0.275 C 
HETATM   22  C   UNK N   1      25.439  20.444   4.831  0.00  0.00     0.062 C 
HETATM   23  C   UNK N   1      25.917  19.826   3.529  0.00  0.00     0.121 C 
HETATM   24  C   UNK N   1      27.199  19.007   3.712  0.00  0.00     0.062 C 
HETATM   25  C   UNK N   1      28.252  19.730   4.565  0.00  0.00     0.275 C 
BRANCH  23  26
HETATM   26  O   UNK N   1      26.083  20.819   2.569  0.00  0.00    -0.395 OA
HETATM   27  H   UNK N   1      25.977  20.723   1.610  0.00  0.00     0.210 HD
ENDBRANCH  23  26
ENDBRANCH  19  20
ENDBRANCH  18  19
ENDBRANCH  17  18
ENDBRANCH   2  17
TORSDOF 5
ENDMDL
MODEL 4
REMARK VINA RESULT:      -6.5      2.978      5.707
REMARK  5 active torsions:
REMARK  status: ('A' for Active; 'I' for Inactive)
REMARK    1  A    between atoms: O_2  and  C_8 
REMARK    2  A    between atoms: N_3  and  C_11 
REMARK    3  A    between atoms: N_4  and  C_13 
REMARK    4  A    between atoms: C_11  and  C_12 
REMARK    5  A    between atoms: C_12  and  C_13 
ROOT
HETATM    1  S   UNK N   1      29.277  20.840  -8.504  0.00  0.00    -0.086 SA
HETATM    2  N   UNK N   1      28.557  22.724  -6.113  0.00  0.00    -0.345 N 
HETATM    3  N   UNK N   1      32.547  21.452  -2.164  0.00  0.00    -0.191 NA
HETATM    4  C   UNK N   1      29.670  21.860  -5.936  0.00  0.00     0.053 A 
HETATM    5  C   UNK N   1      27.469  22.318  -6.951  0.00  0.00     0.052 A 
HETATM    6  C   UNK N   1      30.060  20.915  -6.900  0.00  0.00     0.032 A 
HETATM    7  C   UNK N   1      27.650  21.381  -7.989  0.00  0.00     0.032 A 
HETATM    8  C   UNK N   1      30.364  21.928  -4.733  0.00  0.00     0.053 A 
HETATM    9  C   UNK N   1      26.180  22.777  -6.685  0.00  0.00     0.031 A 
HETATM   10  C   UNK N   1      31.148  20.068  -6.638  0.00  0.00     0.023 A 
HETATM   11  C   UNK N   1      26.544  20.904  -8.701  0.00  0.00     0.021 A 
HETATM   12  C   UNK N   1      31.421  21.092  -4.462  0.00  0.00     0.046 A 
HETATM   13  C   UNK N   1      25.076  22.284  -7.381  0.00  0.00     0.002 A 
HETATM   14  C   UNK N   1      31.827  20.148  -5.412  0.00  0.00     0.024 A 
HETATM   15  C   UNK N   1      25.257  21.334  -8.380  0.00  0.00     0.002 A 
HETATM   16  C   UNK N   1      32.070  21.261  -3.199  0.00  0.00     0.099 C 
ENDROOT
BRANCH   2  17
HETATM   17  C   UNK N   1      28.500  23.920  -5.278  0.00  0.00     0.131 C 
BRANCH  17  18
HETATM   18  C   UNK N   1      28.692  25.251  -5.990  0.00  0.00     0.050 C 
BRANCH  18  19
HETATM   19  C   UNK N   1      27.636  26.327  -5.737  0.00  0.00     0.274 C 
BRANCH  19  20
HETATM   20  N   UNK N   1      27.720  26.880  -4.370  0.00  0.00     0.088 N 
HETATM   21  C   UNK N   1      26.428  26.948  -3.674  0.00  0.00     0.275 C 
HETATM   22  C   UNK N   1      25.523  28.062  -4.224  0.00  0.00     0.062 C 
HETATM   23  C   UNK N   1      26.210  29.416  -4.261  0.00  0.00     0.121 C 
HETATM   24  C   UNK N   1      27.626  29.333  -4.841  0.00  0.00     0.062 C 
HETATM   25  C   UNK N   1      28.435  28.159  -4.269  0.00  0.00     0.275 C 
BRANCH  23  26
HETATM   26  O   UNK N   1      26.215  29.977  -2.989  0.00  0.00    -0.395 OA
HETATM   27  H   UNK N   1      25.537  30.557  -2.607  0.00  0.00     0.210 HD
ENDBRANCH  23  26
ENDBRANCH  19  20
ENDBRANCH  18  19
ENDBRANCH  17  18
ENDBRANCH   2  17
TORSDOF 5
ENDMDL
MODEL 5
REMARK VINA RESULT:      -6.5      3.083      6.254
REMARK  5 active torsions:
REMARK  status: ('A' for Active; 'I' for Inactive)
REMARK    1  A    between atoms: O_2  and  C_8 
REMARK    2  A    between atoms: N_3  and  C_11 
REMARK    3  A    between atoms: N_4  and  C_13 
REMARK    4  A    between atoms: C_11  and  C_12 
REMARK    5  A    between atoms: C_12  and  C_13 
ROOT
HETATM    1  S   UNK N   1      28.936  28.106  -7.104  0.00  0.00    -0.086 SA
HETATM    2  N   UNK N   1      26.404  26.364  -6.522  0.00  0.00    -0.345 N 
HETATM    3  N   UNK N   1      24.903  24.415 -11.727  0.00  0.00    -0.191 NA
HETATM    4  C   UNK N   1      26.821  26.457  -7.877  0.00  0.00     0.053 A 
HETATM    5  C   UNK N   1      26.640  27.458  -5.630  0.00  0.00     0.052 A 
HETATM    6  C   UNK N   1      27.899  27.261  -8.287  0.00  0.00     0.032 A 
HETATM    7  C   UNK N   1      27.682  28.381  -5.856  0.00  0.00     0.032 A 
HETATM    8  C   UNK N   1      26.093  25.759  -8.834  0.00  0.00     0.053 A 
HETATM    9  C   UNK N   1      25.770  27.685  -4.564  0.00  0.00     0.031 A 
HETATM   10  C   UNK N   1      28.228  27.334  -9.650  0.00  0.00     0.023 A 
HETATM   11  C   UNK N   1      27.802  29.514  -5.043  0.00  0.00     0.021 A 
HETATM   12  C   UNK N   1      26.399  25.836 -10.171  0.00  0.00     0.046 A 
HETATM   13  C   UNK N   1      25.878  28.825  -3.769  0.00  0.00     0.002 A 
HETATM   14  C   UNK N   1      27.473  26.627 -10.599  0.00  0.00     0.024 A 
HETATM   15  C   UNK N   1      26.886  29.749  -4.019  0.00  0.00     0.002 A 
HETATM   16  C   UNK N   1      25.593  25.063 -11.064  0.00  0.00     0.099 C 
ENDROOT
BRANCH   2  17
HETATM   17  C   UNK N   1      25.587  25.213  -6.153  0.00  0.00     0.131 C 
BRANCH  17  18
HETATM   18  C   UNK N   1      26.224  24.208  -5.204  0.00  0.00     0.050 C 
BRANCH  18  19
HETATM   19  C   UNK N   1      27.632  23.726  -5.553  0.00  0.00     0.274 C 
BRANCH  19  20
HETATM   20  N   UNK N   1      28.669  24.410  -4.754  0.00  0.00     0.088 N 
HETATM   21  C   UNK N   1      29.989  23.767  -4.813  0.00  0.00     0.275 C 
HETATM   22  C   UNK N   1      30.037  22.454  -4.016  0.00  0.00     0.062 C 
HETATM   23  C   UNK N   1      29.557  22.614  -2.584  0.00  0.00     0.121 C 
HETATM   24  C   UNK N   1      28.259  23.424  -2.495  0.00  0.00     0.062 C 
HETATM   25  C   UNK N   1      28.286  24.690  -3.364  0.00  0.00     0.275 C 
BRANCH  23  26
HETATM   26  O   UNK N   1      30.563  23.181  -1.810  0.00  0.00    -0.395 OA
HETATM   27  H   UNK N   1      30.449  23.695  -0.995  0.00  0.00     0.210 HD
ENDBRANCH  23  26
ENDBRANCH  19  20
ENDBRANCH  18  19
ENDBRANCH  17  18
ENDBRANCH   2  17
TORSDOF 5
ENDMDL
MODEL 6
REMARK VINA RESULT:      -6.4     16.782     21.203
REMARK  5 active torsions:
REMARK  status: ('A' for Active; 'I' for Inactive)
REMARK    1  A    between atoms: O_2  and  C_8 
REMARK    2  A    between atoms: N_3  and  C_11 
REMARK    3  A    between atoms: N_4  and  C_13 
REMARK    4  A    between atoms: C_11  and  C_12 
REMARK    5  A    between atoms: C_12  and  C_13 
ROOT
HETATM    1  S   UNK N   1      36.854  10.718  11.913  0.00  0.00    -0.086 SA
HETATM    2  N   UNK N   1      36.738  13.826  11.582  0.00  0.00    -0.345 N 
HETATM    3  N   UNK N   1      40.023  14.797   6.955  0.00  0.00    -0.191 NA
HETATM    4  C   UNK N   1      37.525  13.110  10.642  0.00  0.00     0.053 A 
HETATM    5  C   UNK N   1      36.593  13.324  12.914  0.00  0.00     0.052 A 
HETATM    6  C   UNK N   1      37.720  11.720  10.715  0.00  0.00     0.032 A 
HETATM    7  C   UNK N   1      36.741  11.952  13.204  0.00  0.00     0.032 A 
HETATM    8  C   UNK N   1      38.165  13.833   9.640  0.00  0.00     0.053 A 
HETATM    9  C   UNK N   1      36.396  14.211  13.973  0.00  0.00     0.031 A 
HETATM   10  C   UNK N   1      38.544  11.086   9.772  0.00  0.00     0.023 A 
HETATM   11  C   UNK N   1      36.727  11.513  14.533  0.00  0.00     0.021 A 
HETATM   12  C   UNK N   1      38.986  13.222   8.722  0.00  0.00     0.046 A 
HETATM   13  C   UNK N   1      36.404  13.774  15.297  0.00  0.00     0.002 A 
HETATM   14  C   UNK N   1      39.187  11.838   8.776  0.00  0.00     0.024 A 
HETATM   15  C   UNK N   1      36.586  12.424  15.578  0.00  0.00     0.002 A 
HETATM   16  C   UNK N   1      39.578  14.062   7.728  0.00  0.00     0.099 C 
ENDROOT
BRANCH   2  17
HETATM   17  C   UNK N   1      36.260  15.146  11.185  0.00  0.00     0.131 C 
BRANCH  17  18
HETATM   18  C   UNK N   1      34.751  15.313  11.072  0.00  0.00     0.050 C 
BRANCH  18  19
HETATM   19  C   UNK N   1      34.157  15.282   9.664  0.00  0.00     0.274 C 
BRANCH  19  20
HETATM   20  N   UNK N   1      34.982  16.030   8.694  0.00  0.00     0.088 N 
HETATM   21  C   UNK N   1      34.735  17.478   8.690  0.00  0.00     0.275 C 
HETATM   22  C   UNK N   1      33.389  17.841   8.043  0.00  0.00     0.062 C 
HETATM   23  C   UNK N   1      33.218  17.241   6.658  0.00  0.00     0.121 C 
HETATM   24  C   UNK N   1      33.627  15.766   6.611  0.00  0.00     0.062 C 
HETATM   25  C   UNK N   1      34.959  15.493   7.327  0.00  0.00     0.275 C 
BRANCH  23  26
HETATM   26  O   UNK N   1      33.928  17.994   5.728  0.00  0.00    -0.395 OA
HETATM   27  H   UNK N   1      33.706  18.883   5.411  0.00  0.00     0.210 HD
ENDBRANCH  23  26
ENDBRANCH  19  20
ENDBRANCH  18  19
ENDBRANCH  17  18
ENDBRANCH   2  17
TORSDOF 5
ENDMDL
MODEL 7
REMARK VINA RESULT:      -6.4      1.817      2.521
REMARK  5 active torsions:
REMARK  status: ('A' for Active; 'I' for Inactive)
REMARK    1  A    between atoms: O_2  and  C_8 
REMARK    2  A    between atoms: N_3  and  C_11 
REMARK    3  A    between atoms: N_4  and  C_13 
REMARK    4  A    between atoms: C_11  and  C_12 
REMARK    5  A    between atoms: C_12  and  C_13 
ROOT
HETATM    1  S   UNK N   1      25.737  27.208  -3.794  0.00  0.00    -0.086 SA
HETATM    2  N   UNK N   1      28.100  27.391  -5.835  0.00  0.00    -0.345 N 
HETATM    3  N   UNK N   1      30.835  22.371  -5.163  0.00  0.00    -0.191 NA
HETATM    4  C   UNK N   1      28.014  26.205  -5.060  0.00  0.00     0.053 A 
HETATM    5  C   UNK N   1      27.635  28.630  -5.291  0.00  0.00     0.052 A 
HETATM    6  C   UNK N   1      27.045  26.020  -4.058  0.00  0.00     0.032 A 
HETATM    7  C   UNK N   1      26.654  28.667  -4.279  0.00  0.00     0.032 A 
HETATM    8  C   UNK N   1      28.964  25.212  -5.276  0.00  0.00     0.053 A 
HETATM    9  C   UNK N   1      28.222  29.830  -5.692  0.00  0.00     0.031 A 
HETATM   10  C   UNK N   1      27.045  24.835  -3.305  0.00  0.00     0.023 A 
HETATM   11  C   UNK N   1      26.318  29.884  -3.674  0.00  0.00     0.021 A 
HETATM   12  C   UNK N   1      28.981  24.056  -4.532  0.00  0.00     0.046 A 
HETATM   13  C   UNK N   1      27.902  31.038  -5.074  0.00  0.00     0.002 A 
HETATM   14  C   UNK N   1      28.020  23.852  -3.535  0.00  0.00     0.024 A 
HETATM   15  C   UNK N   1      26.960  31.062  -4.052  0.00  0.00     0.002 A 
HETATM   16  C   UNK N   1      29.993  23.099  -4.852  0.00  0.00     0.099 C 
ENDROOT
BRANCH   2  17
HETATM   17  C   UNK N   1      28.835  27.314  -7.094  0.00  0.00     0.131 C 
BRANCH  17  18
HETATM   18  C   UNK N   1      27.997  27.178  -8.358  0.00  0.00     0.050 C 
BRANCH  18  19
HETATM   19  C   UNK N   1      27.622  25.760  -8.788  0.00  0.00     0.274 C 
BRANCH  19  20
HETATM   20  N   UNK N   1      26.162  25.539  -8.768  0.00  0.00     0.088 N 
HETATM   21  C   UNK N   1      25.641  25.102  -7.466  0.00  0.00     0.275 C 
HETATM   22  C   UNK N   1      26.011  23.645  -7.147  0.00  0.00     0.062 C 
HETATM   23  C   UNK N   1      25.625  22.680  -8.255  0.00  0.00     0.121 C 
HETATM   24  C   UNK N   1      26.021  23.201  -9.640  0.00  0.00     0.062 C 
HETATM   25  C   UNK N   1      25.658  24.680  -9.848  0.00  0.00     0.275 C 
BRANCH  23  26
HETATM   26  O   UNK N   1      24.263  22.405  -8.187  0.00  0.00    -0.395 OA
HETATM   27  H   UNK N   1      23.835  21.728  -7.641  0.00  0.00     0.210 HD
ENDBRANCH  23  26
ENDBRANCH  19  20
ENDBRANCH  18  19
ENDBRANCH  17  18
ENDBRANCH   2  17
TORSDOF 5
ENDMDL
MODEL 8
REMARK VINA RESULT:      -6.4     12.590     15.260
REMARK  5 active torsions:
REMARK  status: ('A' for Active; 'I' for Inactive)
REMARK    1  A    between atoms: O_2  and  C_8 
REMARK    2  A    between atoms: N_3  and  C_11 
REMARK    3  A    between atoms: N_4  and  C_13 
REMARK    4  A    between atoms: C_11  and  C_12 
REMARK    5  A    between atoms: C_12  and  C_13 
ROOT
HETATM    1  S   UNK N   1      21.439  19.474   3.110  0.00  0.00    -0.086 SA
HETATM    2  N   UNK N   1      23.007  16.960   4.113  0.00  0.00    -0.345 N 
HETATM    3  N   UNK N   1      28.374  18.925   4.801  0.00  0.00    -0.191 NA
HETATM    4  C   UNK N   1      23.751  18.159   3.956  0.00  0.00     0.053 A 
HETATM    5  C   UNK N   1      21.879  16.708   3.269  0.00  0.00     0.052 A 
HETATM    6  C   UNK N   1      23.187  19.342   3.447  0.00  0.00     0.032 A 
HETATM    7  C   UNK N   1      21.163  17.762   2.664  0.00  0.00     0.032 A 
HETATM    8  C   UNK N   1      25.104  18.135   4.274  0.00  0.00     0.053 A 
HETATM    9  C   UNK N   1      21.527  15.397   2.953  0.00  0.00     0.031 A 
HETATM   10  C   UNK N   1      23.996  20.478   3.283  0.00  0.00     0.023 A 
HETATM   11  C   UNK N   1      20.152  17.480   1.739  0.00  0.00     0.021 A 
HETATM   12  C   UNK N   1      25.906  19.238   4.102  0.00  0.00     0.046 A 
HETATM   13  C   UNK N   1      20.533  15.117   2.015  0.00  0.00     0.002 A 
HETATM   14  C   UNK N   1      25.362  20.427   3.603  0.00  0.00     0.024 A 
HETATM   15  C   UNK N   1      19.856  16.161   1.395  0.00  0.00     0.002 A 
HETATM   16  C   UNK N   1      27.279  19.103   4.478  0.00  0.00     0.099 C 
ENDROOT
BRANCH   2  17
HETATM   17  C   UNK N   1      23.548  15.953   5.020  0.00  0.00     0.131 C 
BRANCH  17  18
HETATM   18  C   UNK N   1      22.846  15.805   6.363  0.00  0.00     0.050 C 
BRANCH  18  19
HETATM   19  C   UNK N   1      22.907  14.429   7.026  0.00  0.00     0.274 C 
BRANCH  19  20
HETATM   20  N   UNK N   1      21.565  13.839   7.208  0.00  0.00     0.088 N 
HETATM   21  C   UNK N   1      20.603  14.734   7.863  0.00  0.00     0.275 C 
HETATM   22  C   UNK N   1      20.889  14.905   9.363  0.00  0.00     0.062 C 
HETATM   23  C   UNK N   1      21.009  13.581  10.097  0.00  0.00     0.121 C 
HETATM   24  C   UNK N   1      21.885  12.577   9.341  0.00  0.00     0.062 C 
HETATM   25  C   UNK N   1      21.561  12.513   7.841  0.00  0.00     0.275 C 
BRANCH  23  26
HETATM   26  O   UNK N   1      19.742  13.063  10.345  0.00  0.00    -0.395 OA
HETATM   27  H   UNK N   1      18.901  13.391   9.990  0.00  0.00     0.210 HD
ENDBRANCH  23  26
ENDBRANCH  19  20
ENDBRANCH  18  19
ENDBRANCH  17  18
ENDBRANCH   2  17
TORSDOF 5
ENDMDL
MODEL 9
REMARK VINA RESULT:      -6.4     15.304     17.882
REMARK  5 active torsions:
REMARK  status: ('A' for Active; 'I' for Inactive)
REMARK    1  A    between atoms: O_2  and  C_8 
REMARK    2  A    between atoms: N_3  and  C_11 
REMARK    3  A    between atoms: N_4  and  C_13 
REMARK    4  A    between atoms: C_11  and  C_12 
REMARK    5  A    between atoms: C_12  and  C_13 
ROOT
HETATM    1  S   UNK N   1      31.541  14.253   5.168  0.00  0.00    -0.086 SA
HETATM    2  N   UNK N   1      34.644  14.598   5.348  0.00  0.00    -0.345 N 
HETATM    3  N   UNK N   1      35.278  19.258   8.667  0.00  0.00    -0.191 NA
HETATM    4  C   UNK N   1      33.852  15.555   6.035  0.00  0.00     0.053 A 
HETATM    5  C   UNK N   1      34.142  13.985   4.156  0.00  0.00     0.052 A 
HETATM    6  C   UNK N   1      32.448  15.560   5.981  0.00  0.00     0.032 A 
HETATM    7  C   UNK N   1      32.758  13.880   3.910  0.00  0.00     0.032 A 
HETATM    8  C   UNK N   1      34.507  16.554   6.748  0.00  0.00     0.053 A 
HETATM    9  C   UNK N   1      35.028  13.566   3.164  0.00  0.00     0.031 A 
HETATM   10  C   UNK N   1      31.733  16.562   6.655  0.00  0.00     0.023 A 
HETATM   11  C   UNK N   1      32.301  13.399   2.677  0.00  0.00     0.021 A 
HETATM   12  C   UNK N   1      33.815  17.548   7.398  0.00  0.00     0.046 A 
HETATM   13  C   UNK N   1      34.572  13.108   1.928  0.00  0.00     0.002 A 
HETATM   14  C   UNK N   1      32.415  17.566   7.360  0.00  0.00     0.024 A 
HETATM   15  C   UNK N   1      33.206  13.039   1.679  0.00  0.00     0.002 A 
HETATM   16  C   UNK N   1      34.591  18.513   8.112  0.00  0.00     0.099 C 
ENDROOT
BRANCH   2  17
HETATM   17  C   UNK N   1      36.020  14.420   5.801  0.00  0.00     0.131 C 
BRANCH  17  18
HETATM   18  C   UNK N   1      36.256  13.323   6.830  0.00  0.00     0.050 C 
BRANCH  18  19
HETATM   19  C   UNK N   1      36.784  13.760   8.196  0.00  0.00     0.274 C 
BRANCH  19  20
HETATM   20  N   UNK N   1      35.753  14.449   8.998  0.00  0.00     0.088 N 
HETATM   21  C   UNK N   1      36.249  14.993  10.269  0.00  0.00     0.275 C 
HETATM   22  C   UNK N   1      36.528  13.895  11.307  0.00  0.00     0.062 C 
HETATM   23  C   UNK N   1      35.344  12.969  11.521  0.00  0.00     0.121 C 
HETATM   24  C   UNK N   1      34.714  12.519  10.199  0.00  0.00     0.062 C 
HETATM   25  C   UNK N   1      34.521  13.676   9.206  0.00  0.00     0.275 C 
BRANCH  23  26
HETATM   26  O   UNK N   1      34.408  13.583  12.346  0.00  0.00    -0.395 OA
HETATM   27  H   UNK N   1      34.587  14.071  13.165  0.00  0.00     0.210 HD
ENDBRANCH  23  26
ENDBRANCH  19  20
ENDBRANCH  18  19
ENDBRANCH  17  18
ENDBRANCH   2  17
TORSDOF 5
ENDMDL
