MODEL 1
REMARK VINA RESULT:      -6.5      0.000      0.000
REMARK  11 active torsions:
REMARK  status: ('A' for Active; 'I' for Inactive)
REMARK    1  A    between atoms: O_1  and  C_16 
REMARK    2  A    between atoms: O_1  and  C_21 
REMARK    3  A    between atoms: O_2  and  C_17 
REMARK    4  A    between atoms: O_2  and  C_20 
REMARK    5  A    between atoms: O_3  and  C_22 
REMARK    6  A    between atoms: N_6  and  C_21 
REMARK    7  A    between atoms: C_15  and  N_7 
REMARK       I    between atoms: N_13  and  C_27 
REMARK    8  A    between atoms: C_14  and  C_15 
REMARK    9  A    between atoms: C_15  and  C_20 
REMARK   10  A    between atoms: C_16  and  C_17 
REMARK   11  A    between atoms: C_16  and  C_22 
ROOT
HETATM    1  C   UNK N   1      34.307  13.974  10.734  0.00  0.00     0.301 C 
ENDROOT
BRANCH   1   2
HETATM    2  O   UNK N   1      34.524  13.768  12.096  0.00  0.00    -0.362 OA
BRANCH   2   3
HETATM    3  C   UNK N   1      35.114  12.508  12.168  0.00  0.00     0.171 C 
BRANCH   3   4
HETATM    4  C   UNK N   1      34.825  11.912  13.541  0.00  0.00     0.213 C 
BRANCH   4   5
HETATM    5  O   UNK N   1      34.735  12.896  14.499  0.00  0.00    -0.317 OA
BRANCH   5   6
HETATM    6  C   UNK N   1      35.504  12.910  15.616  0.00  0.00     0.281 C 
HETATM    7  O   UNK N   1      36.665  13.292  15.565  0.00  0.00    -0.263 OA
BRANCH   6   8
HETATM    8  C   UNK N   1      34.918  12.450  16.931  0.00  0.00     0.178 C 
BRANCH   8   9
HETATM    9  N   UNK N   1      35.075  11.006  17.051  0.00  0.00    -0.418 N 
HETATM   10  H   UNK N   1      35.028  10.410  16.223  0.00  0.00     0.150 HD
HETATM   11  H   UNK N   1      35.234  10.588  17.967  0.00  0.00     0.150 HD
ENDBRANCH   8   9
BRANCH   8  12
HETATM   12  C   UNK N   1      35.573  13.147  18.132  0.00  0.00     0.009 C 
HETATM   13  C   UNK N   1      35.025  14.552  18.319  0.00  0.00     0.012 C 
HETATM   14  C   UNK N   1      35.313  12.378  19.418  0.00  0.00     0.012 C 
ENDBRANCH   8  12
ENDBRANCH   6   8
ENDBRANCH   5   6
ENDBRANCH   4   5
ENDBRANCH   3   4
BRANCH   3  15
HETATM   15  C   UNK N   1      36.610  12.643  11.906  0.00  0.00     0.198 C 
BRANCH  15  16
HETATM   16  O   UNK N   1      37.151  13.655  12.700  0.00  0.00    -0.398 OA
HETATM   17  H   UNK N   1      36.880  14.584  12.767  0.00  0.00     0.209 HD
ENDBRANCH  15  16
ENDBRANCH   3  15
ENDBRANCH   2   3
ENDBRANCH   1   2
BRANCH   1  18
HETATM   18  N   UNK N   1      34.646  15.341  10.382  0.00  0.00    -0.305 N 
HETATM   19  C   UNK N   1      34.332  15.977   9.256  0.00  0.00     0.158 A 
HETATM   20  N   UNK N   1      33.659  15.483   8.188  0.00  0.00    -0.174 N 
HETATM   21  C   UNK N   1      34.785  17.242   9.312  0.00  0.00     0.147 A 
HETATM   22  C   UNK N   1      33.437  16.317   7.126  0.00  0.00     0.680 A 
HETATM   23  H   UNK N   1      33.339  14.552   8.176  0.00  0.00     0.186 HD
HETATM   24  N   UNK N   1      33.881  17.617   7.157  0.00  0.00    -0.154 N 
HETATM   25  N   UNK N   1      32.749  15.838   5.993  0.00  0.00    -0.234 N 
HETATM   26  C   UNK N   1      34.563  18.105   8.254  0.00  0.00     0.290 A 
ATOM     27  HN  UNK N   1      33.704  18.230   6.361  1.00  0.00     0.187 HD
HETATM   28  O   UNK N   1      34.949  19.259   8.282  0.00  0.00    -0.265 OA
HETATM   29  H   UNK N   1      32.550  14.878   5.908  0.00  0.00     0.174 HD
HETATM   30  H   UNK N   1      32.467  16.463   5.288  0.00  0.00     0.174 HD
HETATM   31  N   UNK N   1      35.414  17.448  10.488  0.00  0.00    -0.345 N 
HETATM   32  C   UNK N   1      35.313  16.252  11.135  0.00  0.00     0.187 A 
ATOM     33  HN  UNK N   1      35.861  18.304  10.817  1.00  0.00     0.167 HD
ENDBRANCH   1  18
TORSDOF 11
ENDMDL
MODEL 2
REMARK VINA RESULT:      -6.3      3.875      6.754
REMARK  11 active torsions:
REMARK  status: ('A' for Active; 'I' for Inactive)
REMARK    1  A    between atoms: O_1  and  C_16 
REMARK    2  A    between atoms: O_1  and  C_21 
REMARK    3  A    between atoms: O_2  and  C_17 
REMARK    4  A    between atoms: O_2  and  C_20 
REMARK    5  A    between atoms: O_3  and  C_22 
REMARK    6  A    between atoms: N_6  and  C_21 
REMARK    7  A    between atoms: C_15  and  N_7 
REMARK       I    between atoms: N_13  and  C_27 
REMARK    8  A    between atoms: C_14  and  C_15 
REMARK    9  A    between atoms: C_15  and  C_20 
REMARK   10  A    between atoms: C_16  and  C_17 
REMARK   11  A    between atoms: C_16  and  C_22 
ROOT
HETATM    1  C   UNK N   1      31.904  16.188   6.594  0.00  0.00     0.301 C 
ENDROOT
BRANCH   1   2
HETATM    2  O   UNK N   1      32.239  16.975   7.696  0.00  0.00    -0.362 OA
BRANCH   2   3
HETATM    3  C   UNK N   1      33.538  17.405   7.435  0.00  0.00     0.171 C 
BRANCH   3   4
HETATM    4  C   UNK N   1      34.511  16.332   7.908  0.00  0.00     0.213 C 
BRANCH   4   5
HETATM    5  O   UNK N   1      34.302  16.021   9.232  0.00  0.00    -0.317 OA
BRANCH   5   6
HETATM    6  C   UNK N   1      35.287  16.062  10.164  0.00  0.00     0.281 C 
HETATM    7  O   UNK N   1      35.705  17.135  10.576  0.00  0.00    -0.263 OA
BRANCH   6   8
HETATM    8  C   UNK N   1      35.867  14.772  10.693  0.00  0.00     0.178 C 
BRANCH   8   9
HETATM    9  N   UNK N   1      37.316  14.897  10.788  0.00  0.00    -0.418 N 
HETATM   10  H   UNK N   1      37.921  14.433  10.109  0.00  0.00     0.150 HD
HETATM   11  H   UNK N   1      37.729  15.452  11.536  0.00  0.00     0.150 HD
ENDBRANCH   8   9
BRANCH   8  12
HETATM   12  C   UNK N   1      35.286  14.395  12.065  0.00  0.00     0.009 C 
HETATM   13  C   UNK N   1      34.988  12.908  12.145  0.00  0.00     0.012 C 
HETATM   14  C   UNK N   1      36.263  14.729  13.181  0.00  0.00     0.012 C 
ENDBRANCH   8  12
ENDBRANCH   6   8
ENDBRANCH   5   6
ENDBRANCH   4   5
ENDBRANCH   3   4
BRANCH   3  15
HETATM   15  C   UNK N   1      33.771  18.738   8.137  0.00  0.00     0.198 C 
BRANCH  15  16
HETATM   16  O   UNK N   1      35.137  18.955   8.324  0.00  0.00    -0.398 OA
HETATM   17  H   UNK N   1      35.580  19.480   9.008  0.00  0.00     0.209 HD
ENDBRANCH  15  16
ENDBRANCH   3  15
ENDBRANCH   2   3
ENDBRANCH   1   2
BRANCH   1  18
HETATM   18  N   UNK N   1      30.881  16.852   5.807  0.00  0.00    -0.305 N 
HETATM   19  C   UNK N   1      29.787  17.455   6.265  0.00  0.00     0.158 A 
HETATM   20  N   UNK N   1      29.376  17.557   7.553  0.00  0.00    -0.174 N 
HETATM   21  C   UNK N   1      29.102  17.986   5.236  0.00  0.00     0.147 A 
HETATM   22  C   UNK N   1      28.212  18.232   7.805  0.00  0.00     0.680 A 
HETATM   23  H   UNK N   1      29.899  17.158   8.284  0.00  0.00     0.186 HD
HETATM   24  N   UNK N   1      27.495  18.792   6.776  0.00  0.00    -0.154 N 
HETATM   25  N   UNK N   1      27.748  18.352   9.130  0.00  0.00    -0.234 N 
HETATM   26  C   UNK N   1      27.928  18.681   5.469  0.00  0.00     0.290 A 
ATOM     27  HN  UNK N   1      26.632  19.297   6.979  1.00  0.00     0.187 HD
HETATM   28  O   UNK N   1      27.295  19.184   4.560  0.00  0.00    -0.265 OA
HETATM   29  H   UNK N   1      28.181  17.840   9.851  0.00  0.00     0.174 HD
HETATM   30  H   UNK N   1      26.992  18.947   9.334  0.00  0.00     0.174 HD
HETATM   31  N   UNK N   1      29.745  17.726   4.079  0.00  0.00    -0.345 N 
HETATM   32  C   UNK N   1      30.848  17.020   4.461  0.00  0.00     0.187 A 
ATOM     33  HN  UNK N   1      29.470  17.997   3.135  1.00  0.00     0.167 HD
ENDBRANCH   1  18
TORSDOF 11
ENDMDL
MODEL 3
REMARK VINA RESULT:      -6.3     12.880     15.000
REMARK  11 active torsions:
REMARK  status: ('A' for Active; 'I' for Inactive)
REMARK    1  A    between atoms: O_1  and  C_16 
REMARK    2  A    between atoms: O_1  and  C_21 
REMARK    3  A    between atoms: O_2  and  C_17 
REMARK    4  A    between atoms: O_2  and  C_20 
REMARK    5  A    between atoms: O_3  and  C_22 
REMARK    6  A    between atoms: N_6  and  C_21 
REMARK    7  A    between atoms: C_15  and  N_7 
REMARK       I    between atoms: N_13  and  C_27 
REMARK    8  A    between atoms: C_14  and  C_15 
REMARK    9  A    between atoms: C_15  and  C_20 
REMARK   10  A    between atoms: C_16  and  C_17 
REMARK   11  A    between atoms: C_16  and  C_22 
ROOT
HETATM    1  C   UNK N   1      21.243  16.139   5.833  0.00  0.00     0.301 C 
ENDROOT
BRANCH   1   2
HETATM    2  O   UNK N   1      20.108  16.577   6.514  0.00  0.00    -0.362 OA
BRANCH   2   3
HETATM    3  C   UNK N   1      20.465  16.518   7.860  0.00  0.00     0.171 C 
BRANCH   3   4
HETATM    4  C   UNK N   1      21.154  15.186   8.124  0.00  0.00     0.213 C 
BRANCH   4   5
HETATM    5  O   UNK N   1      21.223  14.922   9.472  0.00  0.00    -0.317 OA
BRANCH   5   6
HETATM    6  C   UNK N   1      21.118  13.671   9.986  0.00  0.00     0.281 C 
HETATM    7  O   UNK N   1      20.028  13.121  10.059  0.00  0.00    -0.263 OA
BRANCH   6   8
HETATM    8  C   UNK N   1      22.358  12.955  10.469  0.00  0.00     0.178 C 
BRANCH   8   9
HETATM    9  N   UNK N   1      21.980  11.673  11.051  0.00  0.00    -0.418 N 
HETATM   10  H   UNK N   1      21.936  11.558  12.064  0.00  0.00     0.150 HD
HETATM   11  H   UNK N   1      21.756  10.887  10.442  0.00  0.00     0.150 HD
ENDBRANCH   8   9
BRANCH   8  12
HETATM   12  C   UNK N   1      23.376  12.734   9.340  0.00  0.00     0.009 C 
HETATM   13  C   UNK N   1      24.785  13.066   9.799  0.00  0.00     0.012 C 
HETATM   14  C   UNK N   1      23.372  11.286   8.877  0.00  0.00     0.012 C 
ENDBRANCH   8  12
ENDBRANCH   6   8
ENDBRANCH   5   6
ENDBRANCH   4   5
ENDBRANCH   3   4
BRANCH   3  15
HETATM   15  C   UNK N   1      19.214  16.696   8.714  0.00  0.00     0.198 C 
BRANCH  15  16
HETATM   16  O   UNK N   1      18.993  18.049   8.972  0.00  0.00    -0.398 OA
HETATM   17  H   UNK N   1      18.938  18.786   8.344  0.00  0.00     0.209 HD
ENDBRANCH  15  16
ENDBRANCH   3  15
ENDBRANCH   2   3
ENDBRANCH   1   2
BRANCH   1  18
HETATM   18  N   UNK N   1      21.880  17.258   5.163  0.00  0.00    -0.305 N 
HETATM   19  C   UNK N   1      21.330  18.066   4.260  0.00  0.00     0.158 A 
HETATM   20  N   UNK N   1      20.075  18.005   3.750  0.00  0.00    -0.174 N 
HETATM   21  C   UNK N   1      22.219  19.008   3.899  0.00  0.00     0.147 A 
HETATM   22  C   UNK N   1      19.709  18.947   2.827  0.00  0.00     0.680 A 
HETATM   23  H   UNK N   1      19.447  17.303   4.035  0.00  0.00     0.186 HD
HETATM   24  N   UNK N   1      20.593  19.926   2.444  0.00  0.00    -0.154 N 
HETATM   25  N   UNK N   1      18.417  18.911   2.268  0.00  0.00    -0.234 N 
HETATM   26  C   UNK N   1      21.867  19.977   2.975  0.00  0.00     0.290 A 
ATOM     27  HN  UNK N   1      20.305  20.626   1.760  1.00  0.00     0.187 HD
HETATM   28  O   UNK N   1      22.646  20.849   2.639  0.00  0.00    -0.265 OA
HETATM   29  H   UNK N   1      17.830  18.138   2.434  0.00  0.00     0.174 HD
HETATM   30  H   UNK N   1      18.101  19.658   1.711  0.00  0.00     0.174 HD
HETATM   31  N   UNK N   1      23.377  18.820   4.565  0.00  0.00    -0.345 N 
HETATM   32  C   UNK N   1      23.141  17.726   5.345  0.00  0.00     0.187 A 
ATOM     33  HN  UNK N   1      24.233  19.371   4.500  1.00  0.00     0.167 HD
ENDBRANCH   1  18
TORSDOF 11
ENDMDL
MODEL 4
REMARK VINA RESULT:      -6.2      2.459      8.437
REMARK  11 active torsions:
REMARK  status: ('A' for Active; 'I' for Inactive)
REMARK    1  A    between atoms: O_1  and  C_16 
REMARK    2  A    between atoms: O_1  and  C_21 
REMARK    3  A    between atoms: O_2  and  C_17 
REMARK    4  A    between atoms: O_2  and  C_20 
REMARK    5  A    between atoms: O_3  and  C_22 
REMARK    6  A    between atoms: N_6  and  C_21 
REMARK    7  A    between atoms: C_15  and  N_7 
REMARK       I    between atoms: N_13  and  C_27 
REMARK    8  A    between atoms: C_14  and  C_15 
REMARK    9  A    between atoms: C_15  and  C_20 
REMARK   10  A    between atoms: C_16  and  C_17 
REMARK   11  A    between atoms: C_16  and  C_22 
ROOT
HETATM    1  C   UNK N   1      36.229  13.714  11.250  0.00  0.00     0.301 C 
ENDROOT
BRANCH   1   2
HETATM    2  O   UNK N   1      36.159  15.100  11.380  0.00  0.00    -0.362 OA
BRANCH   2   3
HETATM    3  C   UNK N   1      35.720  15.546  10.135  0.00  0.00     0.171 C 
BRANCH   3   4
HETATM    4  C   UNK N   1      35.415  17.036  10.231  0.00  0.00     0.213 C 
BRANCH   4   5
HETATM    5  O   UNK N   1      34.299  17.362   9.495  0.00  0.00    -0.317 OA
BRANCH   5   6
HETATM    6  C   UNK N   1      34.345  18.157   8.397  0.00  0.00     0.281 C 
HETATM    7  O   UNK N   1      35.065  19.146   8.379  0.00  0.00    -0.263 OA
BRANCH   6   8
HETATM    8  C   UNK N   1      33.502  17.815   7.191  0.00  0.00     0.178 C 
BRANCH   8   9
HETATM    9  N   UNK N   1      34.235  16.889   6.337  0.00  0.00    -0.418 N 
HETATM   10  H   UNK N   1      35.034  16.369   6.703  0.00  0.00     0.150 HD
HETATM   11  H   UNK N   1      33.948  16.758   5.368  0.00  0.00     0.150 HD
ENDBRANCH   8   9
BRANCH   8  12
HETATM   12  C   UNK N   1      32.150  17.200   7.586  0.00  0.00     0.009 C 
HETATM   13  C   UNK N   1      31.372  18.129   8.502  0.00  0.00     0.012 C 
HETATM   14  C   UNK N   1      31.291  16.939   6.359  0.00  0.00     0.012 C 
ENDBRANCH   8  12
ENDBRANCH   6   8
ENDBRANCH   5   6
ENDBRANCH   4   5
ENDBRANCH   3   4
BRANCH   3  15
HETATM   15  C   UNK N   1      34.496  14.736   9.720  0.00  0.00     0.198 C 
BRANCH  15  16
HETATM   16  O   UNK N   1      34.476  14.566   8.335  0.00  0.00    -0.398 OA
HETATM   17  H   UNK N   1      33.960  13.934   7.809  0.00  0.00     0.209 HD
ENDBRANCH  15  16
ENDBRANCH   3  15
ENDBRANCH   2   3
ENDBRANCH   1   2
BRANCH   1  18
HETATM   18  N   UNK N   1      35.761  13.079  12.468  0.00  0.00    -0.305 N 
HETATM   19  C   UNK N   1      35.996  13.475  13.717  0.00  0.00     0.158 A 
HETATM   20  N   UNK N   1      36.742  14.531  14.123  0.00  0.00    -0.174 N 
HETATM   21  C   UNK N   1      35.363  12.655  14.575  0.00  0.00     0.147 A 
HETATM   22  C   UNK N   1      36.850  14.764  15.467  0.00  0.00     0.680 A 
HETATM   23  H   UNK N   1      37.193  15.113  13.470  0.00  0.00     0.186 HD
HETATM   24  N   UNK N   1      36.208  13.949  16.368  0.00  0.00    -0.154 N 
HETATM   25  N   UNK N   1      37.623  15.847  15.929  0.00  0.00    -0.234 N 
HETATM   26  C   UNK N   1      35.450  12.878  15.938  0.00  0.00     0.290 A 
ATOM     27  HN  UNK N   1      36.292  14.138  17.367  1.00  0.00     0.187 HD
HETATM   28  O   UNK N   1      34.877  12.162  16.738  0.00  0.00    -0.265 OA
HETATM   29  H   UNK N   1      38.192  16.348  15.300  0.00  0.00     0.174 HD
HETATM   30  H   UNK N   1      37.595  16.102  16.878  0.00  0.00     0.174 HD
HETATM   31  N   UNK N   1      34.704  11.699  13.889  0.00  0.00    -0.345 N 
HETATM   32  C   UNK N   1      34.967  11.984  12.581  0.00  0.00     0.187 A 
ATOM     33  HN  UNK N   1      34.138  10.937  14.263  1.00  0.00     0.167 HD
ENDBRANCH   1  18
TORSDOF 11
ENDMDL
MODEL 5
REMARK VINA RESULT:      -6.2      2.839      3.995
REMARK  11 active torsions:
REMARK  status: ('A' for Active; 'I' for Inactive)
REMARK    1  A    between atoms: O_1  and  C_16 
REMARK    2  A    between atoms: O_1  and  C_21 
REMARK    3  A    between atoms: O_2  and  C_17 
REMARK    4  A    between atoms: O_2  and  C_20 
REMARK    5  A    between atoms: O_3  and  C_22 
REMARK    6  A    between atoms: N_6  and  C_21 
REMARK    7  A    between atoms: C_15  and  N_7 
REMARK       I    between atoms: N_13  and  C_27 
REMARK    8  A    between atoms: C_14  and  C_15 
REMARK    9  A    between atoms: C_15  and  C_20 
REMARK   10  A    between atoms: C_16  and  C_17 
REMARK   11  A    between atoms: C_16  and  C_22 
ROOT
HETATM    1  C   UNK N   1      33.158  14.377   9.056  0.00  0.00     0.301 C 
ENDROOT
BRANCH   1   2
HETATM    2  O   UNK N   1      33.561  15.419   9.891  0.00  0.00    -0.362 OA
BRANCH   2   3
HETATM    3  C   UNK N   1      34.890  15.131  10.191  0.00  0.00     0.171 C 
BRANCH   3   4
HETATM    4  C   UNK N   1      34.927  13.976  11.184  0.00  0.00     0.213 C 
BRANCH   4   5
HETATM    5  O   UNK N   1      34.890  14.435  12.481  0.00  0.00    -0.317 OA
BRANCH   5   6
HETATM    6  C   UNK N   1      35.868  14.175  13.384  0.00  0.00     0.281 C 
HETATM    7  O   UNK N   1      36.543  15.086  13.846  0.00  0.00    -0.263 OA
BRANCH   6   8
HETATM    8  C   UNK N   1      36.122  12.751  13.820  0.00  0.00     0.178 C 
BRANCH   8   9
HETATM    9  N   UNK N   1      37.421  12.317  13.319  0.00  0.00    -0.418 N 
HETATM   10  H   UNK N   1      37.816  12.737  12.477  0.00  0.00     0.150 HD
HETATM   11  H   UNK N   1      37.937  11.591  13.813  0.00  0.00     0.150 HD
ENDBRANCH   8   9
BRANCH   8  12
HETATM   12  C   UNK N   1      36.075  12.596  15.348  0.00  0.00     0.009 C 
HETATM   13  C   UNK N   1      34.669  12.814  15.878  0.00  0.00     0.012 C 
HETATM   14  C   UNK N   1      36.515  11.203  15.768  0.00  0.00     0.012 C 
ENDBRANCH   8  12
ENDBRANCH   6   8
ENDBRANCH   5   6
ENDBRANCH   4   5
ENDBRANCH   3   4
BRANCH   3  15
HETATM   15  C   UNK N   1      35.557  16.385  10.746  0.00  0.00     0.198 C 
BRANCH  15  16
HETATM   16  O   UNK N   1      36.928  16.175  10.903  0.00  0.00    -0.398 OA
HETATM   17  H   UNK N   1      37.493  16.398  11.659  0.00  0.00     0.209 HD
ENDBRANCH  15  16
ENDBRANCH   3  15
ENDBRANCH   2   3
ENDBRANCH   1   2
BRANCH   1  18
HETATM   18  N   UNK N   1      32.340  14.898   7.976  0.00  0.00    -0.305 N 
HETATM   19  C   UNK N   1      31.485  15.916   8.042  0.00  0.00     0.158 A 
HETATM   20  N   UNK N   1      31.173  16.666   9.127  0.00  0.00    -0.174 N 
HETATM   21  C   UNK N   1      30.944  16.127   6.829  0.00  0.00     0.147 A 
HETATM   22  C   UNK N   1      30.264  17.677   8.971  0.00  0.00     0.680 A 
HETATM   23  H   UNK N   1      31.587  16.487  10.002  0.00  0.00     0.186 HD
HETATM   24  N   UNK N   1      29.699  17.922   7.742  0.00  0.00    -0.154 N 
HETATM   25  N   UNK N   1      29.907  18.472  10.078  0.00  0.00    -0.234 N 
HETATM   26  C   UNK N   1      30.031  17.151   6.646  0.00  0.00     0.290 A 
ATOM     27  HN  UNK N   1      29.028  18.683   7.639  1.00  0.00     0.187 HD
HETATM   28  O   UNK N   1      29.534  17.373   5.557  0.00  0.00    -0.265 OA
HETATM   29  H   UNK N   1      30.202  18.217  10.982  0.00  0.00     0.174 HD
HETATM   30  H   UNK N   1      29.363  19.281   9.947  0.00  0.00     0.174 HD
HETATM   31  N   UNK N   1      31.439  15.233   5.948  0.00  0.00    -0.345 N 
HETATM   32  C   UNK N   1      32.305  14.481   6.686  0.00  0.00     0.187 A 
ATOM     33  HN  UNK N   1      31.216  15.142   4.957  1.00  0.00     0.167 HD
ENDBRANCH   1  18
TORSDOF 11
ENDMDL
MODEL 6
REMARK VINA RESULT:      -6.1      1.521      2.012
REMARK  11 active torsions:
REMARK  status: ('A' for Active; 'I' for Inactive)
REMARK    1  A    between atoms: O_1  and  C_16 
REMARK    2  A    between atoms: O_1  and  C_21 
REMARK    3  A    between atoms: O_2  and  C_17 
REMARK    4  A    between atoms: O_2  and  C_20 
REMARK    5  A    between atoms: O_3  and  C_22 
REMARK    6  A    between atoms: N_6  and  C_21 
REMARK    7  A    between atoms: C_15  and  N_7 
REMARK       I    between atoms: N_13  and  C_27 
REMARK    8  A    between atoms: C_14  and  C_15 
REMARK    9  A    between atoms: C_15  and  C_20 
REMARK   10  A    between atoms: C_16  and  C_17 
REMARK   11  A    between atoms: C_16  and  C_22 
ROOT
HETATM    1  C   UNK N   1      34.619  13.692  10.119  0.00  0.00     0.301 C 
ENDROOT
BRANCH   1   2
HETATM    2  O   UNK N   1      35.584  13.054   9.341  0.00  0.00    -0.362 OA
BRANCH   2   3
HETATM    3  C   UNK N   1      36.504  12.559  10.263  0.00  0.00     0.171 C 
BRANCH   3   4
HETATM    4  C   UNK N   1      35.762  12.189  11.541  0.00  0.00     0.213 C 
BRANCH   4   5
HETATM    5  O   UNK N   1      36.536  12.435  12.652  0.00  0.00    -0.317 OA
BRANCH   5   6
HETATM    6  C   UNK N   1      36.073  13.097  13.742  0.00  0.00     0.281 C 
HETATM    7  O   UNK N   1      35.040  13.749  13.678  0.00  0.00    -0.263 OA
BRANCH   6   8
HETATM    8  C   UNK N   1      36.842  13.025  15.040  0.00  0.00     0.178 C 
BRANCH   8   9
HETATM    9  N   UNK N   1      37.171  14.375  15.482  0.00  0.00    -0.418 N 
HETATM   10  H   UNK N   1      38.039  14.557  15.987  0.00  0.00     0.150 HD
HETATM   11  H   UNK N   1      36.529  15.142  15.285  0.00  0.00     0.150 HD
ENDBRANCH   8   9
BRANCH   8  12
HETATM   12  C   UNK N   1      36.056  12.295  16.139  0.00  0.00     0.009 C 
HETATM   13  C   UNK N   1      35.202  13.264  16.939  0.00  0.00     0.012 C 
HETATM   14  C   UNK N   1      35.129  11.248  15.543  0.00  0.00     0.012 C 
ENDBRANCH   8  12
ENDBRANCH   6   8
ENDBRANCH   5   6
ENDBRANCH   4   5
ENDBRANCH   3   4
BRANCH   3  15
HETATM   15  C   UNK N   1      37.579  13.612  10.508  0.00  0.00     0.198 C 
BRANCH  15  16
HETATM   16  O   UNK N   1      38.691  13.035  11.122  0.00  0.00    -0.398 OA
HETATM   17  H   UNK N   1      38.731  12.250  11.691  0.00  0.00     0.209 HD
ENDBRANCH  15  16
ENDBRANCH   3  15
ENDBRANCH   2   3
ENDBRANCH   1   2
BRANCH   1  18
HETATM   18  N   UNK N   1      34.747  15.132   9.981  0.00  0.00    -0.305 N 
HETATM   19  C   UNK N   1      34.569  15.847   8.873  0.00  0.00     0.158 A 
HETATM   20  N   UNK N   1      34.261  15.390   7.635  0.00  0.00    -0.174 N 
HETATM   21  C   UNK N   1      34.736  17.152   9.149  0.00  0.00     0.147 A 
HETATM   22  C   UNK N   1      34.117  16.307   6.629  0.00  0.00     0.680 A 
HETATM   23  H   UNK N   1      34.145  14.428   7.464  0.00  0.00     0.186 HD
HETATM   24  N   UNK N   1      34.274  17.648   6.882  0.00  0.00    -0.154 N 
HETATM   25  N   UNK N   1      33.806  15.871   5.326  0.00  0.00    -0.234 N 
HETATM   26  C   UNK N   1      34.585  18.097   8.150  0.00  0.00     0.290 A 
ATOM     27  HN  UNK N   1      34.158  18.321   6.123  1.00  0.00     0.187 HD
HETATM   28  O   UNK N   1      34.716  19.287   8.373  0.00  0.00    -0.265 OA
HETATM   29  H   UNK N   1      33.827  14.910   5.110  0.00  0.00     0.174 HD
HETATM   30  H   UNK N   1      33.567  16.525   4.632  0.00  0.00     0.174 HD
HETATM   31  N   UNK N   1      35.035  17.307  10.456  0.00  0.00    -0.345 N 
HETATM   32  C   UNK N   1      35.036  16.036  10.951  0.00  0.00     0.187 A 
ATOM     33  HN  UNK N   1      35.218  18.176  10.958  1.00  0.00     0.167 HD
ENDBRANCH   1  18
TORSDOF 11
ENDMDL
MODEL 7
REMARK VINA RESULT:      -6.0      1.910      2.567
REMARK  11 active torsions:
REMARK  status: ('A' for Active; 'I' for Inactive)
REMARK    1  A    between atoms: O_1  and  C_16 
REMARK    2  A    between atoms: O_1  and  C_21 
REMARK    3  A    between atoms: O_2  and  C_17 
REMARK    4  A    between atoms: O_2  and  C_20 
REMARK    5  A    between atoms: O_3  and  C_22 
REMARK    6  A    between atoms: N_6  and  C_21 
REMARK    7  A    between atoms: C_15  and  N_7 
REMARK       I    between atoms: N_13  and  C_27 
REMARK    8  A    between atoms: C_14  and  C_15 
REMARK    9  A    between atoms: C_15  and  C_20 
REMARK   10  A    between atoms: C_16  and  C_17 
REMARK   11  A    between atoms: C_16  and  C_22 
ROOT
HETATM    1  C   UNK N   1      34.155  13.581  10.052  0.00  0.00     0.301 C 
ENDROOT
BRANCH   1   2
HETATM    2  O   UNK N   1      34.175  14.322  11.232  0.00  0.00    -0.362 OA
BRANCH   2   3
HETATM    3  C   UNK N   1      35.491  14.228  11.681  0.00  0.00     0.171 C 
BRANCH   3   4
HETATM    4  C   UNK N   1      35.522  13.334  12.914  0.00  0.00     0.213 C 
BRANCH   4   5
HETATM    5  O   UNK N   1      35.638  14.079  14.065  0.00  0.00    -0.317 OA
BRANCH   5   6
HETATM    6  C   UNK N   1      36.326  13.653  15.154  0.00  0.00     0.281 C 
HETATM    7  O   UNK N   1      37.478  14.019  15.341  0.00  0.00    -0.263 OA
BRANCH   6   8
HETATM    8  C   UNK N   1      35.660  12.722  16.139  0.00  0.00     0.178 C 
BRANCH   8   9
HETATM    9  N   UNK N   1      34.250  13.075  16.260  0.00  0.00    -0.418 N 
HETATM   10  H   UNK N   1      33.886  13.458  17.132  0.00  0.00     0.150 HD
HETATM   11  H   UNK N   1      33.625  12.938  15.467  0.00  0.00     0.150 HD
ENDBRANCH   8   9
BRANCH   8  12
HETATM   12  C   UNK N   1      35.795  11.249  15.727  0.00  0.00     0.009 C 
HETATM   13  C   UNK N   1      36.499  10.440  16.802  0.00  0.00     0.012 C 
HETATM   14  C   UNK N   1      34.430  10.619  15.498  0.00  0.00     0.012 C 
ENDBRANCH   8  12
ENDBRANCH   6   8
ENDBRANCH   5   6
ENDBRANCH   4   5
ENDBRANCH   3   4
BRANCH   3  15
HETATM   15  C   UNK N   1      36.017  15.628  11.976  0.00  0.00     0.198 C 
BRANCH  15  16
HETATM   16  O   UNK N   1      36.844  16.063  10.939  0.00  0.00    -0.398 OA
HETATM   17  H   UNK N   1      37.599  16.670  10.979  0.00  0.00     0.209 HD
ENDBRANCH  15  16
ENDBRANCH   3  15
ENDBRANCH   2   3
ENDBRANCH   1   2
BRANCH   1  18
HETATM   18  N   UNK N   1      34.403  14.452   8.917  0.00  0.00    -0.305 N 
HETATM   19  C   UNK N   1      33.719  15.544   8.585  0.00  0.00     0.158 A 
HETATM   20  N   UNK N   1      32.634  16.063   9.210  0.00  0.00    -0.174 N 
HETATM   21  C   UNK N   1      34.272  16.106   7.495  0.00  0.00     0.147 A 
HETATM   22  C   UNK N   1      32.084  17.207   8.699  0.00  0.00     0.680 A 
HETATM   23  H   UNK N   1      32.253  15.629  10.006  0.00  0.00     0.186 HD
HETATM   24  N   UNK N   1      32.631  17.808   7.591  0.00  0.00    -0.154 N 
HETATM   25  N   UNK N   1      30.950  17.772   9.315  0.00  0.00    -0.234 N 
HETATM   26  C   UNK N   1      33.738  17.269   6.968  0.00  0.00     0.290 A 
ATOM     27  HN  UNK N   1      32.214  18.665   7.225  1.00  0.00     0.187 HD
HETATM   28  O   UNK N   1      34.225  17.807   5.990  0.00  0.00    -0.265 OA
HETATM   29  H   UNK N   1      30.475  17.276  10.021  0.00  0.00     0.174 HD
HETATM   30  H   UNK N   1      30.632  18.661   9.041  0.00  0.00     0.174 HD
HETATM   31  N   UNK N   1      35.332  15.374   7.093  0.00  0.00    -0.345 N 
HETATM   32  C   UNK N   1      35.393  14.351   7.994  0.00  0.00     0.187 A 
ATOM     33  HN  UNK N   1      35.947  15.547   6.298  1.00  0.00     0.167 HD
ENDBRANCH   1  18
TORSDOF 11
ENDMDL
MODEL 8
REMARK VINA RESULT:      -6.0      4.534      8.408
REMARK  11 active torsions:
REMARK  status: ('A' for Active; 'I' for Inactive)
REMARK    1  A    between atoms: O_1  and  C_16 
REMARK    2  A    between atoms: O_1  and  C_21 
REMARK    3  A    between atoms: O_2  and  C_17 
REMARK    4  A    between atoms: O_2  and  C_20 
REMARK    5  A    between atoms: O_3  and  C_22 
REMARK    6  A    between atoms: N_6  and  C_21 
REMARK    7  A    between atoms: C_15  and  N_7 
REMARK       I    between atoms: N_13  and  C_27 
REMARK    8  A    between atoms: C_14  and  C_15 
REMARK    9  A    between atoms: C_15  and  C_20 
REMARK   10  A    between atoms: C_16  and  C_17 
REMARK   11  A    between atoms: C_16  and  C_22 
ROOT
HETATM    1  C   UNK N   1      33.648  17.626   6.109  0.00  0.00     0.301 C 
ENDROOT
BRANCH   1   2
HETATM    2  O   UNK N   1      33.932  16.501   5.335  0.00  0.00    -0.362 OA
BRANCH   2   3
HETATM    3  C   UNK N   1      33.083  16.610   4.236  0.00  0.00     0.171 C 
BRANCH   3   4
HETATM    4  C   UNK N   1      31.900  17.491   4.619  0.00  0.00     0.213 C 
BRANCH   4   5
HETATM    5  O   UNK N   1      30.777  16.734   4.860  0.00  0.00    -0.317 OA
BRANCH   5   6
HETATM    6  C   UNK N   1      30.299  16.499   6.108  0.00  0.00     0.281 C 
HETATM    7  O   UNK N   1      30.551  15.448   6.680  0.00  0.00    -0.263 OA
BRANCH   6   8
HETATM    8  C   UNK N   1      29.453  17.547   6.792  0.00  0.00     0.178 C 
BRANCH   8   9
HETATM    9  N   UNK N   1      28.063  17.388   6.381  0.00  0.00    -0.418 N 
HETATM   10  H   UNK N   1      27.554  16.531   6.601  0.00  0.00     0.150 HD
HETATM   11  H   UNK N   1      27.597  18.137   5.872  0.00  0.00     0.150 HD
ENDBRANCH   8   9
BRANCH   8  12
HETATM   12  C   UNK N   1      29.555  17.466   8.323  0.00  0.00     0.009 C 
HETATM   13  C   UNK N   1      30.749  18.254   8.835  0.00  0.00     0.012 C 
HETATM   14  C   UNK N   1      28.310  18.035   8.984  0.00  0.00     0.012 C 
ENDBRANCH   8  12
ENDBRANCH   6   8
ENDBRANCH   5   6
ENDBRANCH   4   5
ENDBRANCH   3   4
BRANCH   3  15
HETATM   15  C   UNK N   1      32.644  15.215   3.806  0.00  0.00     0.198 C 
BRANCH  15  16
HETATM   16  O   UNK N   1      32.688  14.338   4.891  0.00  0.00    -0.398 OA
HETATM   17  H   UNK N   1      33.357  13.669   5.103  0.00  0.00     0.209 HD
ENDBRANCH  15  16
ENDBRANCH   3  15
ENDBRANCH   2   3
ENDBRANCH   1   2
BRANCH   1  18
HETATM   18  N   UNK N   1      34.026  17.384   7.489  0.00  0.00    -0.305 N 
HETATM   19  C   UNK N   1      33.859  16.257   8.177  0.00  0.00     0.158 A 
HETATM   20  N   UNK N   1      33.279  15.107   7.753  0.00  0.00    -0.174 N 
HETATM   21  C   UNK N   1      34.370  16.405   9.412  0.00  0.00     0.147 A 
HETATM   22  C   UNK N   1      33.215  14.058   8.630  0.00  0.00     0.680 A 
HETATM   23  H   UNK N   1      32.914  15.030   6.843  0.00  0.00     0.186 HD
HETATM   24  N   UNK N   1      33.736  14.176   9.896  0.00  0.00    -0.154 N 
HETATM   25  N   UNK N   1      32.613  12.850   8.230  0.00  0.00    -0.234 N 
HETATM   26  C   UNK N   1      34.325  15.354  10.311  0.00  0.00     0.290 A 
ATOM     27  HN  UNK N   1      33.687  13.384  10.537  1.00  0.00     0.187 HD
HETATM   28  O   UNK N   1      34.791  15.454  11.431  0.00  0.00    -0.265 OA
HETATM   29  H   UNK N   1      32.120  12.804   7.378  0.00  0.00     0.174 HD
HETATM   30  H   UNK N   1      32.684  12.052   8.800  0.00  0.00     0.174 HD
HETATM   31  N   UNK N   1      34.876  17.648   9.550  0.00  0.00    -0.345 N 
HETATM   32  C   UNK N   1      34.650  18.237   8.340  0.00  0.00     0.187 A 
ATOM     33  HN  UNK N   1      35.326  18.053  10.371  1.00  0.00     0.167 HD
ENDBRANCH   1  18
TORSDOF 11
ENDMDL
MODEL 9
REMARK VINA RESULT:      -5.9     12.795     17.091
REMARK  11 active torsions:
REMARK  status: ('A' for Active; 'I' for Inactive)
REMARK    1  A    between atoms: O_1  and  C_16 
REMARK    2  A    between atoms: O_1  and  C_21 
REMARK    3  A    between atoms: O_2  and  C_17 
REMARK    4  A    between atoms: O_2  and  C_20 
REMARK    5  A    between atoms: O_3  and  C_22 
REMARK    6  A    between atoms: N_6  and  C_21 
REMARK    7  A    between atoms: C_15  and  N_7 
REMARK       I    between atoms: N_13  and  C_27 
REMARK    8  A    between atoms: C_14  and  C_15 
REMARK    9  A    between atoms: C_15  and  C_20 
REMARK   10  A    between atoms: C_16  and  C_17 
REMARK   11  A    between atoms: C_16  and  C_22 
ROOT
HETATM    1  C   UNK N   1      22.716  20.554   2.699  0.00  0.00     0.301 C 
ENDROOT
BRANCH   1   2
HETATM    2  O   UNK N   1      21.583  20.318   3.476  0.00  0.00    -0.362 OA
BRANCH   2   3
HETATM    3  C   UNK N   1      20.525  20.353   2.570  0.00  0.00     0.171 C 
BRANCH   3   4
HETATM    4  C   UNK N   1      19.703  19.081   2.733  0.00  0.00     0.213 C 
BRANCH   4   5
HETATM    5  O   UNK N   1      20.498  17.961   2.650  0.00  0.00    -0.317 OA
BRANCH   5   6
HETATM    6  C   UNK N   1      20.293  16.976   1.740  0.00  0.00     0.281 C 
HETATM    7  O   UNK N   1      19.916  17.247   0.608  0.00  0.00    -0.263 OA
BRANCH   6   8
HETATM    8  C   UNK N   1      20.534  15.537   2.131  0.00  0.00     0.178 C 
BRANCH   8   9
HETATM    9  N   UNK N   1      19.297  14.781   1.976  0.00  0.00    -0.418 N 
HETATM   10  H   UNK N   1      19.307  13.761   2.007  0.00  0.00     0.150 HD
HETATM   11  H   UNK N   1      18.417  15.275   1.835  0.00  0.00     0.150 HD
ENDBRANCH   8   9
BRANCH   8  12
HETATM   12  C   UNK N   1      21.649  14.889   1.297  0.00  0.00     0.009 C 
HETATM   13  C   UNK N   1      22.907  14.688   2.124  0.00  0.00     0.012 C 
HETATM   14  C   UNK N   1      21.219  13.527   0.776  0.00  0.00     0.012 C 
ENDBRANCH   8  12
ENDBRANCH   6   8
ENDBRANCH   5   6
ENDBRANCH   4   5
ENDBRANCH   3   4
BRANCH   3  15
HETATM   15  C   UNK N   1      21.084  20.497   1.159  0.00  0.00     0.198 C 
BRANCH  15  16
HETATM   16  O   UNK N   1      20.295  21.374   0.413  0.00  0.00    -0.398 OA
HETATM   17  H   UNK N   1      20.284  21.514  -0.547  0.00  0.00     0.209 HD
ENDBRANCH  15  16
ENDBRANCH   3  15
ENDBRANCH   2   3
ENDBRANCH   1   2
BRANCH   1  18
HETATM   18  N   UNK N   1      23.873  19.921   3.306  0.00  0.00    -0.305 N 
HETATM   19  C   UNK N   1      23.881  18.811   4.041  0.00  0.00     0.158 A 
HETATM   20  N   UNK N   1      22.819  18.052   4.405  0.00  0.00    -0.174 N 
HETATM   21  C   UNK N   1      25.145  18.516   4.393  0.00  0.00     0.147 A 
HETATM   22  C   UNK N   1      23.055  16.939   5.165  0.00  0.00     0.680 A 
HETATM   23  H   UNK N   1      21.906  18.294   4.131  0.00  0.00     0.186 HD
HETATM   24  N   UNK N   1      24.336  16.606   5.534  0.00  0.00    -0.154 N 
HETATM   25  N   UNK N   1      21.976  16.129   5.571  0.00  0.00    -0.234 N 
HETATM   26  C   UNK N   1      25.407  17.389   5.153  0.00  0.00     0.290 A 
ATOM     27  HN  UNK N   1      24.497  15.770   6.096  1.00  0.00     0.187 HD
HETATM   28  O   UNK N   1      26.542  17.089   5.476  0.00  0.00    -0.265 OA
HETATM   29  H   UNK N   1      21.050  16.434   5.427  0.00  0.00     0.174 HD
HETATM   30  H   UNK N   1      22.146  15.260   5.998  0.00  0.00     0.174 HD
HETATM   31  N   UNK N   1      25.986  19.444   3.892  0.00  0.00    -0.345 N 
HETATM   32  C   UNK N   1      25.171  20.306   3.220  0.00  0.00     0.187 A 
ATOM     33  HN  UNK N   1      27.000  19.489   3.993  1.00  0.00     0.167 HD
ENDBRANCH   1  18
TORSDOF 11
ENDMDL
