MODEL 1
REMARK VINA RESULT:      -5.7      0.000      0.000
REMARK  10 active torsions:
REMARK  status: ('A' for Active; 'I' for Inactive)
REMARK    1  A    between atoms: O_2  and  C_15 
REMARK    2  A    between atoms: N_3  and  C_10 
REMARK    3  A    between atoms: N_3  and  C_11 
REMARK    4  A    between atoms: N_3  and  C_13 
REMARK    5  A    between atoms: N_4  and  C_9 
REMARK    6  A    between atoms: N_4  and  C_14 
REMARK    7  A    between atoms: C_7  and  C_8 
REMARK    8  A    between atoms: C_7  and  C_9 
REMARK    9  A    between atoms: C_8  and  C_10 
REMARK   10  A    between atoms: C_11  and  C_15 
ROOT
HETATM    1  N   UNK N   1      31.554  16.734   6.186  0.00  0.00    -0.385 N 
HETATM    2  H   UNK N   1      31.602  15.756   6.083  0.00  0.00     0.160 HD
ENDROOT
BRANCH   1   3
HETATM    3  C   UNK N   1      32.694  17.514   5.748  0.00  0.00     0.077 C 
HETATM    4  C   UNK N   1      32.987  17.272   4.279  0.00  0.00     0.032 C 
BRANCH   3   5
HETATM    5  C   UNK N   1      33.923  17.057   6.510  0.00  0.00     0.026 C 
BRANCH   5   6
HETATM    6  C   UNK N   1      34.204  17.951   7.700  0.00  0.00     0.032 C 
BRANCH   6   7
HETATM    7  C   UNK N   1      33.873  17.200   8.995  0.00  0.00     0.272 C 
BRANCH   7   8
HETATM    8  N   UNK N   1      34.911  16.281   9.505  0.00  0.00     0.090 N 
BRANCH   8   9
HETATM    9  C   UNK N   1      34.266  14.990   9.691  0.00  0.00     0.298 C 
BRANCH   9  10
HETATM   10  C   UNK N   1      32.767  15.113   9.495  0.00  0.00     0.194 C 
BRANCH  10  11
HETATM   11  O   UNK N   1      32.126  15.111  10.735  0.00  0.00    -0.399 OA
HETATM   12  H   UNK N   1      32.235  15.700  11.498  0.00  0.00     0.209 HD
ENDBRANCH  10  11
ENDBRANCH   9  10
ENDBRANCH   8   9
BRANCH   8  13
HETATM   13  C   UNK N   1      35.474  16.663  10.801  0.00  0.00     0.268 C 
HETATM   14  C   UNK N   1      35.720  15.431  11.651  0.00  0.00     0.037 C 
ENDBRANCH   8  13
ENDBRANCH   7   8
ENDBRANCH   6   7
ENDBRANCH   5   6
ENDBRANCH   3   5
ENDBRANCH   1   3
BRANCH   1  15
HETATM   15  C   UNK N   1      30.367  17.283   6.756  0.00  0.00     0.042 A 
HETATM   16  C   UNK N   1      29.255  17.548   5.940  0.00  0.00     0.017 A 
HETATM   17  C   UNK N   1      28.111  18.156   6.504  0.00  0.00     0.046 A 
HETATM   18  C   UNK N   1      29.266  17.230   4.574  0.00  0.00     0.018 A 
HETATM   19  N   UNK N   1      28.089  18.471   7.827  0.00  0.00    -0.365 N 
HETATM   20  C   UNK N   1      27.004  18.444   5.700  0.00  0.00     0.054 A 
HETATM   21  C   UNK N   1      29.150  18.209   8.636  0.00  0.00     0.090 A 
ATOM     22  HN  UNK N   1      27.258  18.915   8.221  1.00  0.00     0.165 HD
HETATM   23  C   UNK N   1      30.302  17.616   8.117  0.00  0.00     0.047 A 
HETATM   24  C   UNK N   1      27.027  18.125   4.340  0.00  0.00     0.036 A 
HETATM   25 Cl   UNK N   1      25.644  18.495   3.334  0.00  0.00    -0.084 Cl
HETATM   26  C   UNK N   1      28.153  17.516   3.779  0.00  0.00     0.025 A 
ENDBRANCH   1  15
TORSDOF 10
ENDMDL
MODEL 2
REMARK VINA RESULT:      -5.7      8.756     12.169
REMARK  10 active torsions:
REMARK  status: ('A' for Active; 'I' for Inactive)
REMARK    1  A    between atoms: O_2  and  C_15 
REMARK    2  A    between atoms: N_3  and  C_10 
REMARK    3  A    between atoms: N_3  and  C_11 
REMARK    4  A    between atoms: N_3  and  C_13 
REMARK    5  A    between atoms: N_4  and  C_9 
REMARK    6  A    between atoms: N_4  and  C_14 
REMARK    7  A    between atoms: C_7  and  C_8 
REMARK    8  A    between atoms: C_7  and  C_9 
REMARK    9  A    between atoms: C_8  and  C_10 
REMARK   10  A    between atoms: C_11  and  C_15 
ROOT
HETATM    1  N   UNK N   1      21.432  14.699   6.943  0.00  0.00    -0.385 N 
HETATM    2  H   UNK N   1      20.613  14.206   7.180  0.00  0.00     0.160 HD
ENDROOT
BRANCH   1   3
HETATM    3  C   UNK N   1      21.293  15.880   6.116  0.00  0.00     0.077 C 
HETATM    4  C   UNK N   1      20.533  16.970   6.849  0.00  0.00     0.032 C 
BRANCH   3   5
HETATM    5  C   UNK N   1      20.464  15.529   4.894  0.00  0.00     0.026 C 
BRANCH   5   6
HETATM    6  C   UNK N   1      19.691  16.727   4.385  0.00  0.00     0.032 C 
BRANCH   6   7
HETATM    7  C   UNK N   1      20.420  17.336   3.182  0.00  0.00     0.272 C 
BRANCH   7   8
HETATM    8  N   UNK N   1      20.330  18.802   3.032  0.00  0.00     0.090 N 
BRANCH   8   9
HETATM    9  C   UNK N   1      20.395  19.078   1.605  0.00  0.00     0.298 C 
BRANCH   9  10
HETATM   10  C   UNK N   1      20.611  20.559   1.360  0.00  0.00     0.194 C 
BRANCH  10  11
HETATM   11  O   UNK N   1      20.906  20.777   0.013  0.00  0.00    -0.399 OA
HETATM   12  H   UNK N   1      21.446  21.465  -0.407  0.00  0.00     0.209 HD
ENDBRANCH  10  11
ENDBRANCH   9  10
ENDBRANCH   8   9
BRANCH   8  13
HETATM   13  C   UNK N   1      21.426  19.544   3.656  0.00  0.00     0.268 C 
HETATM   14  C   UNK N   1      22.600  18.621   3.924  0.00  0.00     0.037 C 
ENDBRANCH   8  13
ENDBRANCH   7   8
ENDBRANCH   6   7
ENDBRANCH   5   6
ENDBRANCH   3   5
ENDBRANCH   1   3
BRANCH   1  15
HETATM   15  C   UNK N   1      22.673  14.197   7.437  0.00  0.00     0.042 A 
HETATM   16  C   UNK N   1      22.728  13.582   8.698  0.00  0.00     0.017 A 
HETATM   17  C   UNK N   1      23.975  13.152   9.206  0.00  0.00     0.046 A 
HETATM   18  C   UNK N   1      21.568  13.397   9.466  0.00  0.00     0.018 A 
HETATM   19  N   UNK N   1      25.106  13.328   8.473  0.00  0.00    -0.365 N 
HETATM   20  C   UNK N   1      24.047  12.556  10.468  0.00  0.00     0.054 A 
HETATM   21  C   UNK N   1      25.072  13.909   7.244  0.00  0.00     0.090 A 
ATOM     22  HN  UNK N   1      26.001  13.018   8.854  1.00  0.00     0.165 HD
HETATM   23  C   UNK N   1      23.862  14.354   6.709  0.00  0.00     0.047 A 
HETATM   24  C   UNK N   1      22.886  12.378  11.226  0.00  0.00     0.036 A 
HETATM   25 Cl   UNK N   1      22.981  11.639  12.808  0.00  0.00    -0.084 Cl
HETATM   26  C   UNK N   1      21.649  12.794  10.723  0.00  0.00     0.025 A 
ENDBRANCH   1  15
TORSDOF 10
ENDMDL
MODEL 3
REMARK VINA RESULT:      -5.5      4.240      8.082
REMARK  10 active torsions:
REMARK  status: ('A' for Active; 'I' for Inactive)
REMARK    1  A    between atoms: O_2  and  C_15 
REMARK    2  A    between atoms: N_3  and  C_10 
REMARK    3  A    between atoms: N_3  and  C_11 
REMARK    4  A    between atoms: N_3  and  C_13 
REMARK    5  A    between atoms: N_4  and  C_9 
REMARK    6  A    between atoms: N_4  and  C_14 
REMARK    7  A    between atoms: C_7  and  C_8 
REMARK    8  A    between atoms: C_7  and  C_9 
REMARK    9  A    between atoms: C_8  and  C_10 
REMARK   10  A    between atoms: C_11  and  C_15 
ROOT
HETATM    1  N   UNK N   1      28.498  17.754   5.704  0.00  0.00    -0.385 N 
HETATM    2  H   UNK N   1      28.820  18.371   5.008  0.00  0.00     0.160 HD
ENDROOT
BRANCH   1   3
HETATM    3  C   UNK N   1      27.437  16.834   5.350  0.00  0.00     0.077 C 
HETATM    4  C   UNK N   1      27.848  15.398   5.623  0.00  0.00     0.032 C 
BRANCH   3   5
HETATM    5  C   UNK N   1      27.182  16.928   3.857  0.00  0.00     0.026 C 
BRANCH   5   6
HETATM    6  C   UNK N   1      25.744  17.297   3.561  0.00  0.00     0.032 C 
BRANCH   6   7
HETATM    7  C   UNK N   1      25.084  17.850   4.829  0.00  0.00     0.272 C 
BRANCH   7   8
HETATM    8  N   UNK N   1      24.662  19.265   4.786  0.00  0.00     0.090 N 
BRANCH   8   9
HETATM    9  C   UNK N   1      23.742  19.388   3.665  0.00  0.00     0.298 C 
BRANCH   9  10
HETATM   10  C   UNK N   1      24.027  20.655   2.881  0.00  0.00     0.194 C 
BRANCH  10  11
HETATM   11  O   UNK N   1      22.891  21.466   2.863  0.00  0.00    -0.399 OA
HETATM   12  H   UNK N   1      21.951  21.230   2.913  0.00  0.00     0.209 HD
ENDBRANCH  10  11
ENDBRANCH   9  10
ENDBRANCH   8   9
BRANCH   8  13
HETATM   13  C   UNK N   1      25.749  20.214   4.545  0.00  0.00     0.268 C 
HETATM   14  C   UNK N   1      26.369  20.649   5.860  0.00  0.00     0.037 C 
ENDBRANCH   8  13
ENDBRANCH   7   8
ENDBRANCH   6   7
ENDBRANCH   5   6
ENDBRANCH   3   5
ENDBRANCH   1   3
BRANCH   1  15
HETATM   15  C   UNK N   1      29.109  17.830   6.990  0.00  0.00     0.042 A 
HETATM   16  C   UNK N   1      30.455  17.464   7.150  0.00  0.00     0.017 A 
HETATM   17  C   UNK N   1      31.029  17.477   8.441  0.00  0.00     0.046 A 
HETATM   18  C   UNK N   1      31.236  17.076   6.050  0.00  0.00     0.018 A 
HETATM   19  N   UNK N   1      30.283  17.849   9.515  0.00  0.00    -0.365 N 
HETATM   20  C   UNK N   1      32.363  17.097   8.617  0.00  0.00     0.054 A 
HETATM   21  C   UNK N   1      28.981  18.220   9.379  0.00  0.00     0.090 A 
ATOM     22  HN  UNK N   1      30.708  17.849  10.443  1.00  0.00     0.165 HD
HETATM   23  C   UNK N   1      28.375  18.215   8.123  0.00  0.00     0.047 A 
HETATM   24  C   UNK N   1      33.131  16.710   7.516  0.00  0.00     0.036 A 
HETATM   25 Cl   UNK N   1      34.797  16.226   7.740  0.00  0.00    -0.084 Cl
HETATM   26  C   UNK N   1      32.570  16.703   6.235  0.00  0.00     0.025 A 
ENDBRANCH   1  15
TORSDOF 10
ENDMDL
MODEL 4
REMARK VINA RESULT:      -5.5      3.519      5.770
REMARK  10 active torsions:
REMARK  status: ('A' for Active; 'I' for Inactive)
REMARK    1  A    between atoms: O_2  and  C_15 
REMARK    2  A    between atoms: N_3  and  C_10 
REMARK    3  A    between atoms: N_3  and  C_11 
REMARK    4  A    between atoms: N_3  and  C_13 
REMARK    5  A    between atoms: N_4  and  C_9 
REMARK    6  A    between atoms: N_4  and  C_14 
REMARK    7  A    between atoms: C_7  and  C_8 
REMARK    8  A    between atoms: C_7  and  C_9 
REMARK    9  A    between atoms: C_8  and  C_10 
REMARK   10  A    between atoms: C_11  and  C_15 
ROOT
HETATM    1  N   UNK N   1      25.855  17.639   5.546  0.00  0.00    -0.385 N 
HETATM    2  H   UNK N   1      25.438  17.662   6.438  0.00  0.00     0.160 HD
ENDROOT
BRANCH   1   3
HETATM    3  C   UNK N   1      26.736  16.529   5.243  0.00  0.00     0.077 C 
HETATM    4  C   UNK N   1      25.943  15.263   4.975  0.00  0.00     0.032 C 
BRANCH   3   5
HETATM    5  C   UNK N   1      27.601  16.242   6.456  0.00  0.00     0.026 C 
BRANCH   5   6
HETATM    6  C   UNK N   1      29.069  16.451   6.154  0.00  0.00     0.032 C 
BRANCH   6   7
HETATM    7  C   UNK N   1      29.636  17.533   7.081  0.00  0.00     0.272 C 
BRANCH   7   8
HETATM    8  N   UNK N   1      30.439  17.060   8.227  0.00  0.00     0.090 N 
BRANCH   8   9
HETATM    9  C   UNK N   1      29.652  17.326   9.422  0.00  0.00     0.298 C 
BRANCH   9  10
HETATM   10  C   UNK N   1      28.750  18.526   9.207  0.00  0.00     0.194 C 
BRANCH  10  11
HETATM   11  O   UNK N   1      27.419  18.159   9.415  0.00  0.00    -0.399 OA
HETATM   12  H   UNK N   1      26.749  17.847   8.787  0.00  0.00     0.209 HD
ENDBRANCH  10  11
ENDBRANCH   9  10
ENDBRANCH   8   9
BRANCH   8  13
HETATM   13  C   UNK N   1      31.716  17.754   8.399  0.00  0.00     0.268 C 
HETATM   14  C   UNK N   1      32.664  17.401   7.268  0.00  0.00     0.037 C 
ENDBRANCH   8  13
ENDBRANCH   7   8
ENDBRANCH   6   7
ENDBRANCH   5   6
ENDBRANCH   3   5
ENDBRANCH   1   3
BRANCH   1  15
HETATM   15  C   UNK N   1      25.551  18.701   4.645  0.00  0.00     0.042 A 
HETATM   16  C   UNK N   1      24.218  18.950   4.280  0.00  0.00     0.017 A 
HETATM   17  C   UNK N   1      23.935  19.960   3.332  0.00  0.00     0.046 A 
HETATM   18  C   UNK N   1      23.164  18.206   4.832  0.00  0.00     0.018 A 
HETATM   19  N   UNK N   1      24.948  20.687   2.789  0.00  0.00    -0.365 N 
HETATM   20  C   UNK N   1      22.615  20.206   2.945  0.00  0.00     0.054 A 
HETATM   21  C   UNK N   1      26.244  20.470   3.140  0.00  0.00     0.090 A 
ATOM     22  HN  UNK N   1      24.731  21.410   2.102  1.00  0.00     0.165 HD
HETATM   23  C   UNK N   1      26.566  19.478   4.067  0.00  0.00     0.047 A 
HETATM   24  C   UNK N   1      21.573  19.457   3.499  0.00  0.00     0.036 A 
HETATM   25 Cl   UNK N   1      19.922  19.761   3.006  0.00  0.00    -0.084 Cl
HETATM   26  C   UNK N   1      21.847  18.463   4.443  0.00  0.00     0.025 A 
ENDBRANCH   1  15
TORSDOF 10
ENDMDL
MODEL 5
REMARK VINA RESULT:      -5.5      1.308      1.607
REMARK  10 active torsions:
REMARK  status: ('A' for Active; 'I' for Inactive)
REMARK    1  A    between atoms: O_2  and  C_15 
REMARK    2  A    between atoms: N_3  and  C_10 
REMARK    3  A    between atoms: N_3  and  C_11 
REMARK    4  A    between atoms: N_3  and  C_13 
REMARK    5  A    between atoms: N_4  and  C_9 
REMARK    6  A    between atoms: N_4  and  C_14 
REMARK    7  A    between atoms: C_7  and  C_8 
REMARK    8  A    between atoms: C_7  and  C_9 
REMARK    9  A    between atoms: C_8  and  C_10 
REMARK   10  A    between atoms: C_11  and  C_15 
ROOT
HETATM    1  N   UNK N   1      31.007  16.812   6.557  0.00  0.00    -0.385 N 
HETATM    2  H   UNK N   1      30.861  15.875   6.292  0.00  0.00     0.160 HD
ENDROOT
BRANCH   1   3
HETATM    3  C   UNK N   1      32.297  17.401   6.263  0.00  0.00     0.077 C 
HETATM    4  C   UNK N   1      32.624  17.285   4.786  0.00  0.00     0.032 C 
BRANCH   3   5
HETATM    5  C   UNK N   1      33.372  16.626   7.001  0.00  0.00     0.026 C 
BRANCH   5   6
HETATM    6  C   UNK N   1      34.171  17.523   7.923  0.00  0.00     0.032 C 
BRANCH   6   7
HETATM    7  C   UNK N   1      34.359  16.830   9.278  0.00  0.00     0.272 C 
BRANCH   7   8
HETATM    8  N   UNK N   1      34.431  15.355   9.256  0.00  0.00     0.090 N 
BRANCH   8   9
HETATM    9  C   UNK N   1      33.784  14.891  10.474  0.00  0.00     0.298 C 
BRANCH   9  10
HETATM   10  C   UNK N   1      34.812  14.653  11.563  0.00  0.00     0.194 C 
BRANCH  10  11
HETATM   11  O   UNK N   1      34.389  13.614  12.393  0.00  0.00    -0.399 OA
HETATM   12  H   UNK N   1      34.899  13.031  12.978  0.00  0.00     0.209 HD
ENDBRANCH  10  11
ENDBRANCH   9  10
ENDBRANCH   8   9
BRANCH   8  13
HETATM   13  C   UNK N   1      35.791  14.815   9.269  0.00  0.00     0.268 C 
HETATM   14  C   UNK N   1      36.111  14.163   7.936  0.00  0.00     0.037 C 
ENDBRANCH   8  13
ENDBRANCH   7   8
ENDBRANCH   6   7
ENDBRANCH   5   6
ENDBRANCH   3   5
ENDBRANCH   1   3
BRANCH   1  15
HETATM   15  C   UNK N   1      29.934  17.492   7.205  0.00  0.00     0.042 A 
HETATM   16  C   UNK N   1      28.959  18.152   6.440  0.00  0.00     0.017 A 
HETATM   17  C   UNK N   1      27.940  18.881   7.094  0.00  0.00     0.046 A 
HETATM   18  C   UNK N   1      28.987  18.110   5.038  0.00  0.00     0.018 A 
HETATM   19  N   UNK N   1      27.903  18.932   8.452  0.00  0.00    -0.365 N 
HETATM   20  C   UNK N   1      26.975  19.559   6.345  0.00  0.00     0.054 A 
HETATM   21  C   UNK N   1      28.830  18.287   9.211  0.00  0.00     0.090 A 
ATOM     22  HN  UNK N   1      27.165  19.466   8.913  1.00  0.00     0.165 HD
HETATM   23  C   UNK N   1      29.856  17.562   8.605  0.00  0.00     0.047 A 
HETATM   24  C   UNK N   1      27.013  19.513   4.949  0.00  0.00     0.036 A 
HETATM   25 Cl   UNK N   1      25.809  20.370   4.013  0.00  0.00    -0.084 Cl
HETATM   26  C   UNK N   1      28.014  18.786   4.297  0.00  0.00     0.025 A 
ENDBRANCH   1  15
TORSDOF 10
ENDMDL
MODEL 6
REMARK VINA RESULT:      -5.5      3.487      7.098
REMARK  10 active torsions:
REMARK  status: ('A' for Active; 'I' for Inactive)
REMARK    1  A    between atoms: O_2  and  C_15 
REMARK    2  A    between atoms: N_3  and  C_10 
REMARK    3  A    between atoms: N_3  and  C_11 
REMARK    4  A    between atoms: N_3  and  C_13 
REMARK    5  A    between atoms: N_4  and  C_9 
REMARK    6  A    between atoms: N_4  and  C_14 
REMARK    7  A    between atoms: C_7  and  C_8 
REMARK    8  A    between atoms: C_7  and  C_9 
REMARK    9  A    between atoms: C_8  and  C_10 
REMARK   10  A    between atoms: C_11  and  C_15 
ROOT
HETATM    1  N   UNK N   1      27.571  18.839   6.604  0.00  0.00    -0.385 N 
HETATM    2  H   UNK N   1      26.854  18.207   6.367  0.00  0.00     0.160 HD
ENDROOT
BRANCH   1   3
HETATM    3  C   UNK N   1      27.551  20.145   5.979  0.00  0.00     0.077 C 
HETATM    4  C   UNK N   1      26.670  21.107   6.756  0.00  0.00     0.032 C 
BRANCH   3   5
HETATM    5  C   UNK N   1      26.934  20.021   4.599  0.00  0.00     0.026 C 
BRANCH   5   6
HETATM    6  C   UNK N   1      27.106  18.625   4.036  0.00  0.00     0.032 C 
BRANCH   6   7
HETATM    7  C   UNK N   1      25.753  18.098   3.546  0.00  0.00     0.272 C 
BRANCH   7   8
HETATM    8  N   UNK N   1      25.581  16.631   3.547  0.00  0.00     0.090 N 
BRANCH   8   9
HETATM    9  C   UNK N   1      26.409  16.117   4.628  0.00  0.00     0.298 C 
BRANCH   9  10
HETATM   10  C   UNK N   1      25.546  15.681   5.795  0.00  0.00     0.194 C 
BRANCH  10  11
HETATM   11  O   UNK N   1      26.114  16.118   6.993  0.00  0.00    -0.399 OA
HETATM   12  H   UNK N   1      26.135  15.698   7.868  0.00  0.00     0.209 HD
ENDBRANCH  10  11
ENDBRANCH   9  10
ENDBRANCH   8   9
BRANCH   8  13
HETATM   13  C   UNK N   1      26.028  15.969   2.321  0.00  0.00     0.268 C 
HETATM   14  C   UNK N   1      27.355  15.270   2.554  0.00  0.00     0.037 C 
ENDBRANCH   8  13
ENDBRANCH   7   8
ENDBRANCH   6   7
ENDBRANCH   5   6
ENDBRANCH   3   5
ENDBRANCH   1   3
BRANCH   1  15
HETATM   15  C   UNK N   1      28.555  18.402   7.539  0.00  0.00     0.042 A 
HETATM   16  C   UNK N   1      29.649  17.639   7.100  0.00  0.00     0.017 A 
HETATM   17  C   UNK N   1      30.581  17.153   8.046  0.00  0.00     0.046 A 
HETATM   18  C   UNK N   1      29.826  17.341   5.740  0.00  0.00     0.018 A 
HETATM   19  N   UNK N   1      30.419  17.434   9.367  0.00  0.00    -0.365 N 
HETATM   20  C   UNK N   1      31.663  16.376   7.625  0.00  0.00     0.054 A 
HETATM   21  C   UNK N   1      29.375  18.184   9.810  0.00  0.00     0.090 A 
ATOM     22  HN  UNK N   1      31.096  17.073  10.040  1.00  0.00     0.165 HD
HETATM   23  C   UNK N   1      28.429  18.676   8.910  0.00  0.00     0.047 A 
HETATM   24  C   UNK N   1      31.829  16.083   6.269  0.00  0.00     0.036 A 
HETATM   25 Cl   UNK N   1      33.180  15.102   5.746  0.00  0.00    -0.084 Cl
HETATM   26  C   UNK N   1      30.914  16.568   5.328  0.00  0.00     0.025 A 
ENDBRANCH   1  15
TORSDOF 10
ENDMDL
MODEL 7
REMARK VINA RESULT:      -5.5      6.260     10.782
REMARK  10 active torsions:
REMARK  status: ('A' for Active; 'I' for Inactive)
REMARK    1  A    between atoms: O_2  and  C_15 
REMARK    2  A    between atoms: N_3  and  C_10 
REMARK    3  A    between atoms: N_3  and  C_11 
REMARK    4  A    between atoms: N_3  and  C_13 
REMARK    5  A    between atoms: N_4  and  C_9 
REMARK    6  A    between atoms: N_4  and  C_14 
REMARK    7  A    between atoms: C_7  and  C_8 
REMARK    8  A    between atoms: C_7  and  C_9 
REMARK    9  A    between atoms: C_8  and  C_10 
REMARK   10  A    between atoms: C_11  and  C_15 
ROOT
HETATM    1  N   UNK N   1      34.633  12.675  13.033  0.00  0.00    -0.385 N 
HETATM    2  H   UNK N   1      33.725  13.049  12.964  0.00  0.00     0.160 HD
ENDROOT
BRANCH   1   3
HETATM    3  C   UNK N   1      35.681  13.302  12.253  0.00  0.00     0.077 C 
HETATM    4  C   UNK N   1      36.137  14.598  12.898  0.00  0.00     0.032 C 
BRANCH   3   5
HETATM    5  C   UNK N   1      35.125  13.674  10.892  0.00  0.00     0.026 C 
BRANCH   5   6
HETATM    6  C   UNK N   1      34.206  14.874  10.976  0.00  0.00     0.032 C 
BRANCH   6   7
HETATM    7  C   UNK N   1      34.633  15.922   9.941  0.00  0.00     0.272 C 
BRANCH   7   8
HETATM    8  N   UNK N   1      33.755  16.077   8.763  0.00  0.00     0.090 N 
BRANCH   8   9
HETATM    9  C   UNK N   1      33.331  17.469   8.744  0.00  0.00     0.298 C 
BRANCH   9  10
HETATM   10  C   UNK N   1      34.349  18.323   8.015  0.00  0.00     0.194 C 
BRANCH  10  11
HETATM   11  O   UNK N   1      34.568  17.810   6.735  0.00  0.00    -0.399 OA
HETATM   12  H   UNK N   1      34.696  18.267   5.889  0.00  0.00     0.209 HD
ENDBRANCH  10  11
ENDBRANCH   9  10
ENDBRANCH   8   9
BRANCH   8  13
HETATM   13  C   UNK N   1      32.538  15.265   8.804  0.00  0.00     0.268 C 
HETATM   14  C   UNK N   1      32.469  14.358   7.590  0.00  0.00     0.037 C 
ENDBRANCH   8  13
ENDBRANCH   7   8
ENDBRANCH   6   7
ENDBRANCH   5   6
ENDBRANCH   3   5
ENDBRANCH   1   3
BRANCH   1  15
HETATM   15  C   UNK N   1      34.824  11.553  13.893  0.00  0.00     0.042 A 
HETATM   16  C   UNK N   1      34.948  11.746  15.279  0.00  0.00     0.017 A 
HETATM   17  C   UNK N   1      35.207  10.634  16.113  0.00  0.00     0.046 A 
HETATM   18  C   UNK N   1      34.831  13.023  15.847  0.00  0.00     0.018 A 
HETATM   19  N   UNK N   1      35.325   9.391  15.574  0.00  0.00    -0.365 N 
HETATM   20  C   UNK N   1      35.352  10.813  17.491  0.00  0.00     0.054 A 
HETATM   21  C   UNK N   1      35.194   9.182  14.236  0.00  0.00     0.090 A 
ATOM     22  HN  UNK N   1      35.517   8.597  16.186  1.00  0.00     0.165 HD
HETATM   23  C   UNK N   1      34.945  10.254  13.377  0.00  0.00     0.047 A 
HETATM   24  C   UNK N   1      35.236  12.091  18.046  0.00  0.00     0.036 A 
HETATM   25 Cl   UNK N   1      35.427  12.313  19.771  0.00  0.00    -0.084 Cl
HETATM   26  C   UNK N   1      34.972  13.192  17.226  0.00  0.00     0.025 A 
ENDBRANCH   1  15
TORSDOF 10
ENDMDL
MODEL 8
REMARK VINA RESULT:      -5.4      4.345      8.812
REMARK  10 active torsions:
REMARK  status: ('A' for Active; 'I' for Inactive)
REMARK    1  A    between atoms: O_2  and  C_15 
REMARK    2  A    between atoms: N_3  and  C_10 
REMARK    3  A    between atoms: N_3  and  C_11 
REMARK    4  A    between atoms: N_3  and  C_13 
REMARK    5  A    between atoms: N_4  and  C_9 
REMARK    6  A    between atoms: N_4  and  C_14 
REMARK    7  A    between atoms: C_7  and  C_8 
REMARK    8  A    between atoms: C_7  and  C_9 
REMARK    9  A    between atoms: C_8  and  C_10 
REMARK   10  A    between atoms: C_11  and  C_15 
ROOT
HETATM    1  N   UNK N   1      27.275  18.344   6.479  0.00  0.00    -0.385 N 
HETATM    2  H   UNK N   1      26.619  17.610   6.452  0.00  0.00     0.160 HD
ENDROOT
BRANCH   1   3
HETATM    3  C   UNK N   1      27.074  19.460   5.578  0.00  0.00     0.077 C 
HETATM    4  C   UNK N   1      27.573  20.754   6.195  0.00  0.00     0.032 C 
BRANCH   3   5
HETATM    5  C   UNK N   1      25.586  19.643   5.346  0.00  0.00     0.026 C 
BRANCH   5   6
HETATM    6  C   UNK N   1      25.182  19.207   3.953  0.00  0.00     0.032 C 
BRANCH   6   7
HETATM    7  C   UNK N   1      24.008  18.225   4.043  0.00  0.00     0.272 C 
BRANCH   7   8
HETATM    8  N   UNK N   1      22.680  18.814   4.310  0.00  0.00     0.090 N 
BRANCH   8   9
HETATM    9  C   UNK N   1      21.803  17.709   4.669  0.00  0.00     0.298 C 
BRANCH   9  10
HETATM   10  C   UNK N   1      21.821  17.482   6.168  0.00  0.00     0.194 C 
BRANCH  10  11
HETATM   11  O   UNK N   1      21.339  18.616   6.823  0.00  0.00    -0.399 OA
HETATM   12  H   UNK N   1      20.758  19.325   6.505  0.00  0.00     0.209 HD
ENDBRANCH  10  11
ENDBRANCH   9  10
ENDBRANCH   8   9
BRANCH   8  13
HETATM   13  C   UNK N   1      22.070  19.480   3.159  0.00  0.00     0.268 C 
HETATM   14  C   UNK N   1      20.688  19.993   3.518  0.00  0.00     0.037 C 
ENDBRANCH   8  13
ENDBRANCH   7   8
ENDBRANCH   6   7
ENDBRANCH   5   6
ENDBRANCH   3   5
ENDBRANCH   1   3
BRANCH   1  15
HETATM   15  C   UNK N   1      28.357  18.231   7.401  0.00  0.00     0.042 A 
HETATM   16  C   UNK N   1      29.607  17.768   6.962  0.00  0.00     0.017 A 
HETATM   17  C   UNK N   1      30.651  17.595   7.899  0.00  0.00     0.046 A 
HETATM   18  C   UNK N   1      29.834  17.463   5.611  0.00  0.00     0.018 A 
HETATM   19  N   UNK N   1      30.444  17.884   9.211  0.00  0.00    -0.365 N 
HETATM   20  C   UNK N   1      31.895  17.116   7.479  0.00  0.00     0.054 A 
HETATM   21  C   UNK N   1      29.244  18.348   9.654  0.00  0.00     0.090 A 
ATOM     22  HN  UNK N   1      31.204  17.750   9.878  1.00  0.00     0.165 HD
HETATM   23  C   UNK N   1      28.185  18.526   8.763  0.00  0.00     0.047 A 
HETATM   24  C   UNK N   1      32.110  16.813   6.131  0.00  0.00     0.036 A 
HETATM   25 Cl   UNK N   1      33.665  16.205   5.610  0.00  0.00    -0.084 Cl
HETATM   26  C   UNK N   1      31.082  16.991   5.199  0.00  0.00     0.025 A 
ENDBRANCH   1  15
TORSDOF 10
ENDMDL
MODEL 9
REMARK VINA RESULT:      -5.4      7.861     12.054
REMARK  10 active torsions:
REMARK  status: ('A' for Active; 'I' for Inactive)
REMARK    1  A    between atoms: O_2  and  C_15 
REMARK    2  A    between atoms: N_3  and  C_10 
REMARK    3  A    between atoms: N_3  and  C_11 
REMARK    4  A    between atoms: N_3  and  C_13 
REMARK    5  A    between atoms: N_4  and  C_9 
REMARK    6  A    between atoms: N_4  and  C_14 
REMARK    7  A    between atoms: C_7  and  C_8 
REMARK    8  A    between atoms: C_7  and  C_9 
REMARK    9  A    between atoms: C_8  and  C_10 
REMARK   10  A    between atoms: C_11  and  C_15 
ROOT
HETATM    1  N   UNK N   1      35.547  13.477  15.957  0.00  0.00    -0.385 N 
HETATM    2  H   UNK N   1      34.715  13.720  15.491  0.00  0.00     0.160 HD
ENDROOT
BRANCH   1   3
HETATM    3  C   UNK N   1      36.801  13.849  15.335  0.00  0.00     0.077 C 
HETATM    4  C   UNK N   1      37.247  15.226  15.791  0.00  0.00     0.032 C 
BRANCH   3   5
HETATM    5  C   UNK N   1      36.597  13.941  13.834  0.00  0.00     0.026 C 
BRANCH   5   6
HETATM    6  C   UNK N   1      35.205  13.502  13.434  0.00  0.00     0.032 C 
BRANCH   6   7
HETATM    7  C   UNK N   1      35.108  13.430  11.906  0.00  0.00     0.272 C 
BRANCH   7   8
HETATM    8  N   UNK N   1      36.242  13.999  11.149  0.00  0.00     0.090 N 
BRANCH   8   9
HETATM    9  C   UNK N   1      35.682  15.010  10.264  0.00  0.00     0.298 C 
BRANCH   9  10
HETATM   10  C   UNK N   1      35.505  16.322  11.004  0.00  0.00     0.194 C 
BRANCH  10  11
HETATM   11  O   UNK N   1      34.605  17.136  10.313  0.00  0.00    -0.399 OA
HETATM   12  H   UNK N   1      34.097  17.906  10.615  0.00  0.00     0.209 HD
ENDBRANCH  10  11
ENDBRANCH   9  10
ENDBRANCH   8   9
BRANCH   8  13
HETATM   13  C   UNK N   1      36.947  13.038  10.300  0.00  0.00     0.268 C 
HETATM   14  C   UNK N   1      36.064  12.613   9.141  0.00  0.00     0.037 C 
ENDBRANCH   8  13
ENDBRANCH   7   8
ENDBRANCH   6   7
ENDBRANCH   5   6
ENDBRANCH   3   5
ENDBRANCH   1   3
BRANCH   1  15
HETATM   15  C   UNK N   1      35.432  12.782  17.197  0.00  0.00     0.042 A 
HETATM   16  C   UNK N   1      35.409  11.378  17.214  0.00  0.00     0.017 A 
HETATM   17  C   UNK N   1      35.224  10.702  18.442  0.00  0.00     0.046 A 
HETATM   18  C   UNK N   1      35.553  10.636  16.032  0.00  0.00     0.018 A 
HETATM   19  N   UNK N   1      35.081  11.410  19.594  0.00  0.00    -0.365 N 
HETATM   20  C   UNK N   1      35.179   9.306  18.472  0.00  0.00     0.054 A 
HETATM   21  C   UNK N   1      35.115  12.770  19.600  0.00  0.00     0.090 A 
ATOM     22  HN  UNK N   1      34.943  10.910  20.473  1.00  0.00     0.165 HD
HETATM   23  C   UNK N   1      35.288  13.475  18.409  0.00  0.00     0.047 A 
HETATM   24  C   UNK N   1      35.322   8.576  17.288  0.00  0.00     0.036 A 
HETATM   25 Cl   UNK N   1      35.256   6.828  17.326  0.00  0.00    -0.084 Cl
HETATM   26  C   UNK N   1      35.513   9.240  16.072  0.00  0.00     0.025 A 
ENDBRANCH   1  15
TORSDOF 10
ENDMDL
