REMARK WARNING: 32 MAX_TORS EXCEEDED!!!
REMARK  33 active torsions:
REMARK  status: ('A' for Active; 'I' for Inactive)
REMARK    1  A    between atoms: O_5  and  C_53 
REMARK    2  A    between atoms: O_12  and  C_81 
REMARK    3  A    between atoms: O_16  and  C_104 
REMARK    4  A    between atoms: O_19  and  C_112 
REMARK    5  A    between atoms: N_32  and  C_60 
REMARK    6  A    between atoms: N_34  and  C_86 
REMARK       I    between atoms: N_34  and  C_109 
REMARK    7  A    between atoms: N_35  and  C_87 
REMARK       I    between atoms: N_36  and  C_92 
REMARK    8  A    between atoms: N_38  and  C_111 
REMARK       I    between atoms: N_38  and  C_113 
REMARK    9  A    between atoms: N_39  and  C_114 
REMARK   10  A    between atoms: C_40  and  C_42 
REMARK   11  A    between atoms: C_41  and  C_43 
REMARK   12  A    between atoms: C_42  and  C_44 
REMARK   13  A    between atoms: C_43  and  C_46 
REMARK   14  A    between atoms: C_44  and  C_50 
REMARK   15  A    between atoms: C_47  and  C_53 
REMARK   16  A    between atoms: C_49  and  C_54 
REMARK   17  A    between atoms: C_50  and  C_60 
REMARK   18  A    between atoms: C_54  and  C_67 
REMARK   19  A    between atoms: C_55  and  C_64 
REMARK   20  A    between atoms: C_59  and  C_66 
REMARK   21  A    between atoms: C_61  and  C_63 
REMARK   22  A    between atoms: C_63  and  C_69 
REMARK   23  A    between atoms: C_64  and  C_78 
REMARK   24  A    between atoms: C_65  and  C_77 
REMARK   25  A    between atoms: C_66  and  C_80 
REMARK   26  A    between atoms: C_69  and  C_76 
REMARK   27  A    between atoms: C_75  and  C_81 
REMARK   28  A    between atoms: C_76  and  C_87 
REMARK   29  A    between atoms: C_77  and  C_92 
REMARK   30  A    between atoms: C_95  and  C_104 
REMARK   31  A    between atoms: C_108  and  C_112 
REMARK   32  A    between atoms: C_109  and  C_111 
REMARK   33  A    between atoms: C_113  and  C_114 
ROOT
HETATM    1  S   UNK N   1       8.901  -0.057  -1.888  0.00  0.00    -0.095 SA
HETATM    2  S   UNK N   1       8.900  -0.526   0.205  0.00  0.00    -0.095 SA
HETATM    3  O   UNK N   1      13.524  -3.943   2.017  0.00  0.00    -0.271 OA
HETATM    4  O   UNK N   1      13.790  -3.566  -2.834  0.00  0.00    -0.271 OA
HETATM    5  O   UNK N   1      17.023  -2.540  -0.221  0.00  0.00    -0.271 OA
HETATM    6  O   UNK N   1      10.320  -4.636  -0.811  0.00  0.00    -0.271 OA
HETATM    7  O   UNK N   1      16.165   1.433  -2.458  0.00  0.00    -0.271 OA
HETATM    8  O   UNK N   1       7.008  -4.075  -0.132  0.00  0.00    -0.271 OA
HETATM    9  O   UNK N   1      13.050   1.533   1.990  0.00  0.00    -0.271 OA
HETATM   10  O   UNK N   1      11.872   4.264  -2.234  0.00  0.00    -0.271 OA
HETATM   11  O   UNK N   1       8.845   2.241   1.006  0.00  0.00    -0.271 OA
HETATM   12  O   UNK N   1       4.225  -5.282   1.627  0.00  0.00    -0.271 OA
HETATM   13  O   UNK N   1       3.525  -0.627  -0.064  0.00  0.00    -0.271 OA
HETATM   14  N   UNK N   1      14.604  -4.003   0.055  0.00  0.00    -0.346 N 
HETATM   15  N   UNK N   1      16.312  -2.091   1.856  0.00  0.00    -0.346 N 
HETATM   16  N   UNK N   1      12.023  -2.708  -1.788  0.00  0.00    -0.344 N 
HETATM   17  N   UNK N   1      17.061   0.112  -0.909  0.00  0.00    -0.346 N 
HETATM   18  N   UNK N   1       9.679  -3.504   1.016  0.00  0.00    -0.346 N 
HETATM   19  N   UNK N   1      14.837   1.510   0.650  0.00  0.00    -0.346 N 
HETATM   20  N   UNK N   1      13.150   3.679  -0.517  0.00  0.00    -0.346 N 
HETATM   21  N   UNK N   1      10.265   3.920   0.705  0.00  0.00    -0.346 N 
HETATM   22  N   UNK N   1       6.410  -3.564   1.969  0.00  0.00    -0.344 N 
HETATM   23  N   UNK N   1       3.455  -4.035  -0.045  0.00  0.00    -0.344 N 
HETATM   24  N   UNK N   1       5.330  -1.646  -0.926  0.00  0.00    -0.344 N 
HETATM   25  C   UNK N   1      13.426  -4.430  -0.666  0.00  0.00     0.176 C 
HETATM   26  C   UNK N   1      15.804  -3.410   2.166  0.00  0.00     0.181 C 
HETATM   27  C   UNK N   1      14.568  -3.795   1.399  0.00  0.00     0.241 C 
HETATM   28  C   UNK N   1      11.251  -2.457  -0.581  0.00  0.00     0.205 C 
HETATM   29  C   UNK N   1      13.095  -3.539  -1.831  0.00  0.00     0.241 C 
HETATM   30  C   UNK N   1      17.226  -0.290   0.470  0.00  0.00     0.180 C 
HETATM   31  C   UNK N   1      16.873  -1.728   0.680  0.00  0.00     0.241 C 
HETATM   32  C   UNK N   1      15.767   2.161  -0.254  0.00  0.00     0.180 C 
HETATM   33  C   UNK N   1      10.407  -3.631  -0.123  0.00  0.00     0.243 C 
HETATM   34  C   UNK N   1       8.672  -4.418   1.514  0.00  0.00     0.180 C 
HETATM   35  C   UNK N   1      10.951   4.859  -0.153  0.00  0.00     0.176 C 
HETATM   36  C   UNK N   1      16.328   1.197  -1.272  0.00  0.00     0.241 C 
HETATM   37  C   UNK N   1      13.432   3.579   0.897  0.00  0.00     0.185 C 
HETATM   38  C   UNK N   1       7.297  -4.029   1.055  0.00  0.00     0.241 C 
HETATM   39  C   UNK N   1      13.763   2.143   1.210  0.00  0.00     0.241 C 
HETATM   40  C   UNK N   1      12.021   4.236  -1.024  0.00  0.00     0.241 C 
HETATM   41  C   UNK N   1       5.071  -3.088   1.659  0.00  0.00     0.205 C 
HETATM   42  C   UNK N   1       9.480   2.927   0.224  0.00  0.00     0.241 C 
HETATM   43  C   UNK N   1       9.376   2.686  -1.261  0.00  0.00     0.186 C 
HETATM   44  C   UNK N   1       4.231  -4.197   1.067  0.00  0.00     0.243 C 
HETATM   45  C   UNK N   1       3.180  -2.842  -0.843  0.00  0.00     0.200 C 
HETATM   46  C   UNK N   1      10.011   1.374  -1.726  0.00  0.00     0.120 C 
HETATM   47  C   UNK N   1       4.024  -1.626  -0.566  0.00  0.00     0.243 C 
HETATM   48  C   UNK N   1       6.274  -0.562  -0.754  0.00  0.00     0.192 C 
HETATM   49  C   UNK N   1       7.109  -0.753   0.494  0.00  0.00     0.122 C 
HETATM   50  H   UNK N   1      15.447  -3.861  -0.435  0.00  0.00     0.163 HD
HETATM   51  H   UNK N   1      16.243  -1.403   2.557  0.00  0.00     0.163 HD
HETATM   52  H   UNK N   1      11.753  -2.251  -2.617  0.00  0.00     0.163 HD
HETATM   53  H   UNK N   1      17.496  -0.422  -1.612  0.00  0.00     0.163 HD
HETATM   54  H   UNK N   1       9.855  -2.704   1.563  0.00  0.00     0.163 HD
HETATM   55  H   UNK N   1      14.988   0.563   0.872  0.00  0.00     0.163 HD
HETATM   56  H   UNK N   1      13.816   3.323  -1.148  0.00  0.00     0.163 HD
HETATM   57  H   UNK N   1      10.372   4.007   1.680  0.00  0.00     0.163 HD
HETATM   58  H   UNK N   1       6.693  -3.546   2.912  0.00  0.00     0.163 HD
HETATM   59  H   UNK N   1       3.009  -4.854  -0.360  0.00  0.00     0.163 HD
HETATM   60  H   UNK N   1       5.668  -2.472  -1.342  0.00  0.00     0.163 HD
ENDROOT
BRANCH  43  61
HETATM   61  N   UNK N   1       8.068   2.972  -1.821  0.00  0.00    -0.346 N 
HETATM   62  C   UNK N   1       7.591   4.246  -1.867  0.00  0.00     0.236 C 
HETATM   63  O   UNK N   1       8.256   5.170  -1.426  0.00  0.00    -0.272 OA
HETATM   64  H   UNK N   1       7.518   2.235  -2.172  0.00  0.00     0.163 HD
BRANCH  62  65
HETATM   65  C   UNK N   1       6.279   4.562  -2.523  0.00  0.00     0.225 C 
BRANCH  65  66
HETATM   66  N   UNK N   1       5.143   3.979  -1.844  0.00  0.00    -0.351 N 
HETATM   67  C   UNK N   1       4.755   4.281  -0.577  0.00  0.00     0.239 C 
HETATM   68  O   UNK N   1       3.770   3.723  -0.116  0.00  0.00    -0.271 OA
HETATM   69  H   UNK N   1       4.611   3.313  -2.337  0.00  0.00     0.163 HD
BRANCH  67  70
HETATM   70  C   UNK N   1       5.530   5.252   0.284  0.00  0.00     0.163 C 
HETATM   71  C   UNK N   1       5.447   6.655  -0.286  0.00  0.00     0.041 C 
BRANCH  70  72
HETATM   72  N   UNK N   1       5.027   5.263   1.649  0.00  0.00    -0.419 N 
HETATM   73  H   UNK N   1       4.858   5.572   2.606  0.00  0.00     0.150 HD
HETATM   74  H   UNK N   1       4.498   4.391   1.649  0.00  0.00     0.150 HD
ENDBRANCH  70  72
ENDBRANCH  67  70
ENDBRANCH  65  66
ENDBRANCH  62  65
ENDBRANCH  43  61
BRANCH  35  75
HETATM   75  C   UNK N   1      11.462   6.025   0.663  0.00  0.00     0.035 C 
BRANCH  75  76
HETATM   76  C   UNK N   1      11.289   7.303  -0.133  0.00  0.00     0.004 C 
BRANCH  76  77
HETATM   77  C   UNK N   1      10.635   8.369   0.735  0.00  0.00     0.019 C 
BRANCH  77  78
HETATM   78  C   UNK N   1       9.200   8.001   1.087  0.00  0.00     0.111 C 
BRANCH  78  79
HETATM   79  N   UNK N   1       8.357   8.091  -0.092  0.00  0.00    -0.430 N 
HETATM   80  H   UNK N   1       8.116   8.635  -0.921  0.00  0.00     0.149 HD
HETATM   81  H   UNK N   1       7.757   7.266  -0.092  0.00  0.00     0.149 HD
ENDBRANCH  78  79
ENDBRANCH  77  78
ENDBRANCH  76  77
ENDBRANCH  75  76
ENDBRANCH  35  75
BRANCH  48  82
HETATM   82  C   UNK N   1       5.708   0.819  -0.879  0.00  0.00     0.164 C 
HETATM   83  O   UNK N   1       5.133   1.148  -1.903  0.00  0.00    -0.648 OA
BRANCH  82  84
HETATM   84  O   UNK N   1       5.847   1.702   0.129  0.00  0.00    -0.775 OA
HETATM   85  H   UNK N   1       6.427   1.925   0.830  0.00  0.00     0.167 HD
ENDBRANCH  82  84
ENDBRANCH  48  82
BRANCH  37  86
HETATM   86  C   UNK N   1      14.637   4.434   1.306  0.00  0.00     0.137 C 
BRANCH  86  87
HETATM   87  C   UNK N   1      14.723   5.820   0.748  0.00  0.00     0.217 C 
HETATM   88  O   UNK N   1      14.968   6.752   1.494  0.00  0.00    -0.274 OA
HETATM   89  N   UNK N   1      14.660   6.029  -0.582  0.00  0.00    -0.370 N 
HETATM   90  H   UNK N   1      14.770   6.145  -1.554  0.00  0.00     0.159 HD
HETATM   91  H   UNK N   1      13.702   6.255  -0.582  0.00  0.00     0.159 HD
ENDBRANCH  86  87
ENDBRANCH  37  86
BRANCH  45  92
HETATM   92  C   UNK N   1       1.680  -2.552  -0.846  0.00  0.00     0.199 C 
BRANCH  92  93
HETATM   93  O   UNK N   1       1.227  -2.247   0.437  0.00  0.00    -0.398 OA
HETATM   94  H   UNK N   1       1.253  -1.867   1.329  0.00  0.00     0.209 HD
ENDBRANCH  92  93
ENDBRANCH  45  92
BRANCH  32  95
HETATM   95  C   UNK N   1      16.916   2.782   0.546  0.00  0.00     0.073 C 
BRANCH  95  96
HETATM   96  C   UNK N   1      17.769   3.754  -0.214  0.00  0.00    -0.056 A 
HETATM   97  C   UNK N   1      18.986   4.149   0.347  0.00  0.00     0.007 A 
HETATM   98  C   UNK N   1      19.816   5.047  -0.329  0.00  0.00     0.001 A 
HETATM   99  C   UNK N   1      19.428   5.560  -1.570  0.00  0.00     0.000 A 
HETATM  100  C   UNK N   1      18.208   5.177  -2.134  0.00  0.00     0.001 A 
HETATM  101  C   UNK N   1      17.380   4.276  -1.460  0.00  0.00     0.007 A 
ENDBRANCH  95  96
ENDBRANCH  32  95
BRANCH  41 102
HETATM  102  C   UNK N   1       4.432  -2.537   2.934  0.00  0.00     0.146 C 
HETATM  103  C   UNK N   1       5.271  -1.405   3.504  0.00  0.00     0.042 C 
BRANCH 102 104
HETATM  104  O   UNK N   1       3.156  -2.045   2.659  0.00  0.00    -0.393 OA
HETATM  105  H   UNK N   1       3.009  -1.105   2.467  0.00  0.00     0.210 HD
ENDBRANCH 102 104
ENDBRANCH  41 102
BRANCH  30 106
HETATM  106  C   UNK N   1      18.542   0.163   1.104  0.00  0.00     0.073 C 
BRANCH 106 107
HETATM  107  C   UNK N   1      19.756  -0.282   0.359  0.00  0.00    -0.056 A 
HETATM  108  C   UNK N   1      20.102  -1.636   0.304  0.00  0.00     0.007 A 
HETATM  109  C   UNK N   1      21.251  -2.034  -0.384  0.00  0.00     0.001 A 
HETATM  110  C   UNK N   1      22.056  -1.079  -1.014  0.00  0.00     0.000 A 
HETATM  111  C   UNK N   1      21.712   0.275  -0.952  0.00  0.00     0.001 A 
HETATM  112  C   UNK N   1      20.565   0.674  -0.263  0.00  0.00     0.007 A 
ENDBRANCH 106 107
ENDBRANCH  30 106
BRANCH  34 113
HETATM  113  C   UNK N   1       9.068  -5.907   1.578  0.00  0.00     0.073 C 
BRANCH 113 114
HETATM  114  C   UNK N   1       8.554  -6.777   0.472  0.00  0.00    -0.056 A 
HETATM  115  C   UNK N   1       7.179  -7.005   0.323  0.00  0.00     0.007 A 
HETATM  116  C   UNK N   1       6.711  -7.838  -0.697  0.00  0.00     0.001 A 
HETATM  117  C   UNK N   1       7.617  -8.459  -1.561  0.00  0.00     0.000 A 
HETATM  118  C   UNK N   1       8.990  -8.253  -1.401  0.00  0.00     0.001 A 
HETATM  119  C   UNK N   1       9.457  -7.417  -0.383  0.00  0.00     0.007 A 
ENDBRANCH 113 114
ENDBRANCH  34 113
BRANCH  26 120
HETATM  120  C   UNK N   1      16.870  -4.490   2.419  0.00  0.00     0.075 C 
BRANCH 120 121
HETATM  121  C   UNK N   1      17.287  -5.357   1.266  0.00  0.00    -0.028 A 
HETATM  122  C   UNK N   1      18.569  -5.636   0.871  0.00  0.00    -0.002 A 
HETATM  123  C   UNK N   1      18.481  -6.533  -0.157  0.00  0.00     0.042 A 
HETATM  124  C   UNK N   1      19.799  -5.197   1.357  0.00  0.00     0.014 A 
HETATM  125  N   UNK N   1      17.200  -6.836  -0.425  0.00  0.00    -0.365 N 
HETATM  126  C   UNK N   1      19.608  -7.055  -0.781  0.00  0.00     0.030 A 
HETATM  127  C   UNK N   1      16.457  -6.128   0.459  0.00  0.00     0.096 A 
HETATM  128  H   UNK N   1      16.869  -7.448  -1.122  0.00  0.00     0.165 HD
HETATM  129  C   UNK N   1      20.867  -6.630  -0.318  0.00  0.00     0.002 A 
HETATM  130  C   UNK N   1      20.962  -5.706   0.748  0.00  0.00     0.001 A 
ENDBRANCH 120 121
ENDBRANCH  26 120
BRANCH  28 131
HETATM  131  C   UNK N   1      12.153  -1.830   0.489  0.00  0.00     0.146 C 
HETATM  132  C   UNK N   1      12.762  -0.564  -0.075  0.00  0.00     0.042 C 
BRANCH 131 133
HETATM  133  O   UNK N   1      11.448  -1.510   1.649  0.00  0.00    -0.393 OA
HETATM  134  H   UNK N   1      11.395  -0.974   2.456  0.00  0.00     0.210 HD
ENDBRANCH 131 133
ENDBRANCH  28 131
BRANCH  25 135
HETATM  135  C   UNK N   1      13.565  -5.873  -1.128  0.00  0.00     0.035 C 
BRANCH 135 136
HETATM  136  C   UNK N   1      12.738  -6.785  -0.243  0.00  0.00     0.004 C 
BRANCH 136 137
HETATM  137  C   UNK N   1      13.378  -6.939   1.124  0.00  0.00     0.019 C 
BRANCH 137 138
HETATM  138  C   UNK N   1      12.321  -7.259   2.163  0.00  0.00     0.111 C 
BRANCH 138 139
HETATM  139  N   UNK N   1      11.812  -8.603   1.959  0.00  0.00    -0.430 N 
HETATM  140  H   UNK N   1      10.815  -8.765   1.815  0.00  0.00     0.149 HD
HETATM  141  H   UNK N   1      12.457  -9.393   1.959  0.00  0.00     0.149 HD
ENDBRANCH 138 139
ENDBRANCH 137 138
ENDBRANCH 136 137
ENDBRANCH 135 136
ENDBRANCH  25 135
TORSDOF 33
