MODEL 1
REMARK VINA RESULT:      -7.6      0.000      0.000
REMARK WARNING: 32 MAX_TORS EXCEEDED!!!
REMARK  33 active torsions:
REMARK  status: ('A' for Active; 'I' for Inactive)
REMARK    1  A    between atoms: O_5  and  C_53 
REMARK    2  A    between atoms: O_12  and  C_81 
REMARK    3  A    between atoms: O_16  and  C_104 
REMARK    4  A    between atoms: O_19  and  C_112 
REMARK    5  A    between atoms: N_32  and  C_60 
REMARK    6  A    between atoms: N_34  and  C_86 
REMARK       I    between atoms: N_34  and  C_109 
REMARK    7  A    between atoms: N_35  and  C_87 
REMARK       I    between atoms: N_36  and  C_92 
REMARK    8  A    between atoms: N_38  and  C_111 
REMARK       I    between atoms: N_38  and  C_113 
REMARK    9  A    between atoms: N_39  and  C_114 
REMARK   10  A    between atoms: C_40  and  C_42 
REMARK   11  A    between atoms: C_41  and  C_43 
REMARK   12  A    between atoms: C_42  and  C_44 
REMARK   13  A    between atoms: C_43  and  C_46 
REMARK   14  A    between atoms: C_44  and  C_50 
REMARK   15  A    between atoms: C_47  and  C_53 
REMARK   16  A    between atoms: C_49  and  C_54 
REMARK   17  A    between atoms: C_50  and  C_60 
REMARK   18  A    between atoms: C_54  and  C_67 
REMARK   19  A    between atoms: C_55  and  C_64 
REMARK   20  A    between atoms: C_59  and  C_66 
REMARK   21  A    between atoms: C_61  and  C_63 
REMARK   22  A    between atoms: C_63  and  C_69 
REMARK   23  A    between atoms: C_64  and  C_78 
REMARK   24  A    between atoms: C_65  and  C_77 
REMARK   25  A    between atoms: C_66  and  C_80 
REMARK   26  A    between atoms: C_69  and  C_76 
REMARK   27  A    between atoms: C_75  and  C_81 
REMARK   28  A    between atoms: C_76  and  C_87 
REMARK   29  A    between atoms: C_77  and  C_92 
REMARK   30  A    between atoms: C_95  and  C_104 
REMARK   31  A    between atoms: C_108  and  C_112 
REMARK   32  A    between atoms: C_109  and  C_111 
REMARK   33  A    between atoms: C_113  and  C_114 
ROOT
HETATM    1  S   UNK N   1      31.067  13.524   5.222  0.00  0.00    -0.095 SA
HETATM    2  S   UNK N   1      30.999  13.858   3.104  0.00  0.00    -0.095 SA
HETATM    3  O   UNK N   1      26.606  10.890   0.234  0.00  0.00    -0.271 OA
HETATM    4  O   UNK N   1      26.565   9.434   4.884  0.00  0.00    -0.271 OA
HETATM    5  O   UNK N   1      23.120  11.011   2.889  0.00  0.00    -0.271 OA
HETATM    6  O   UNK N   1      30.004   9.539   2.552  0.00  0.00    -0.271 OA
HETATM    7  O   UNK N   1      23.740  13.954   6.423  0.00  0.00    -0.271 OA
HETATM    8  O   UNK N   1      33.213  10.644   2.074  0.00  0.00    -0.271 OA
HETATM    9  O   UNK N   1      26.594  15.993   2.276  0.00  0.00    -0.271 OA
HETATM   10  O   UNK N   1      27.747  17.091   7.191  0.00  0.00    -0.271 OA
HETATM   11  O   UNK N   1      30.766  16.716   3.383  0.00  0.00    -0.271 OA
HETATM   12  O   UNK N   1      35.995  10.456  -0.052  0.00  0.00    -0.271 OA
HETATM   13  O   UNK N   1      36.368  14.213   3.228  0.00  0.00    -0.271 OA
HETATM   14  N   UNK N   1      25.641  10.006   2.052  0.00  0.00    -0.346 N 
HETATM   15  N   UNK N   1      23.678  12.260   1.114  0.00  0.00    -0.346 N 
HETATM   16  N   UNK N   1      28.191  10.791   4.201  0.00  0.00    -0.344 N 
HETATM   17  N   UNK N   1      22.884  13.208   4.510  0.00  0.00    -0.346 N 
HETATM   18  N   UNK N   1      30.445  11.321   1.263  0.00  0.00    -0.346 N 
HETATM   19  N   UNK N   1      24.890  15.299   3.542  0.00  0.00    -0.346 N 
HETATM   20  N   UNK N   1      26.437  17.049   5.400  0.00  0.00    -0.346 N 
HETATM   21  N   UNK N   1      29.221  18.014   4.307  0.00  0.00    -0.346 N 
HETATM   22  N   UNK N   1      33.651  11.948   0.301  0.00  0.00    -0.344 N 
HETATM   23  N   UNK N   1      36.739  11.075   1.949  0.00  0.00    -0.344 N 
HETATM   24  N   UNK N   1      34.709  12.771   3.682  0.00  0.00    -0.344 N 
HETATM   25  C   UNK N   1      26.889   9.467   2.545  0.00  0.00     0.176 C 
HETATM   26  C   UNK N   1      24.283  11.205   0.330  0.00  0.00     0.181 C 
HETATM   27  C   UNK N   1      25.588  10.694   0.880  0.00  0.00     0.241 C 
HETATM   28  C   UNK N   1      28.873  11.544   3.159  0.00  0.00     0.205 C 
HETATM   29  C   UNK N   1      27.201   9.898   3.951  0.00  0.00     0.241 C 
HETATM   30  C   UNK N   1      22.682  13.325   3.083  0.00  0.00     0.180 C 
HETATM   31  C   UNK N   1      23.150  12.107   2.350  0.00  0.00     0.241 C 
HETATM   32  C   UNK N   1      23.955  15.475   4.638  0.00  0.00     0.180 C 
HETATM   33  C   UNK N   1      29.792  10.712   2.286  0.00  0.00     0.243 C 
HETATM   34  C   UNK N   1      31.501  10.761   0.445  0.00  0.00     0.180 C 
HETATM   35  C   UNK N   1      28.501  18.498   5.462  0.00  0.00     0.176 C 
HETATM   36  C   UNK N   1      23.536  14.153   5.236  0.00  0.00     0.241 C 
HETATM   37  C   UNK N   1      26.091  17.446   4.054  0.00  0.00     0.185 C 
HETATM   38  C   UNK N   1      32.859  11.092   0.993  0.00  0.00     0.241 C 
HETATM   39  C   UNK N   1      25.872  16.199   3.238  0.00  0.00     0.241 C 
HETATM   40  C   UNK N   1      27.538  17.494   6.059  0.00  0.00     0.241 C 
HETATM   41  C   UNK N   1      34.957  12.411   0.743  0.00  0.00     0.205 C 
HETATM   42  C   UNK N   1      30.115  16.999   4.373  0.00  0.00     0.241 C 
HETATM   43  C   UNK N   1      30.318  16.243   5.662  0.00  0.00     0.186 C 
HETATM   44  C   UNK N   1      35.923  11.254   0.869  0.00  0.00     0.243 C 
HETATM   45  C   UNK N   1      36.949  11.914   3.127  0.00  0.00     0.200 C 
HETATM   46  C   UNK N   1      29.828  14.794   5.619  0.00  0.00     0.120 C 
HETATM   47  C   UNK N   1      35.987  13.055   3.334  0.00  0.00     0.243 C 
HETATM   48  C   UNK N   1      33.665  13.741   3.939  0.00  0.00     0.192 C 
HETATM   49  C   UNK N   1      32.785  13.936   2.723  0.00  0.00     0.122 C 
HETATM   50  H   UNK N   1      24.816   9.872   2.574  0.00  0.00     0.163 HD
HETATM   51  H   UNK N   1      23.648  13.160   0.716  0.00  0.00     0.163 HD
HETATM   52  H   UNK N   1      28.463  10.938   5.135  0.00  0.00     0.163 HD
HETATM   53  H   UNK N   1      22.536  12.412   4.973  0.00  0.00     0.163 HD
HETATM   54  H   UNK N   1      30.170  12.243   1.053  0.00  0.00     0.163 HD
HETATM   55  H   UNK N   1      24.812  14.489   2.988  0.00  0.00     0.163 HD
HETATM   56  H   UNK N   1      25.840  16.421   5.866  0.00  0.00     0.163 HD
HETATM   57  H   UNK N   1      29.055  18.440   3.435  0.00  0.00     0.163 HD
HETATM   58  H   UNK N   1      33.318  12.281  -0.563  0.00  0.00     0.163 HD
HETATM   59  H   UNK N   1      37.272  10.248   1.932  0.00  0.00     0.163 HD
HETATM   60  H   UNK N   1      34.468  11.820   3.769  0.00  0.00     0.163 HD
ENDROOT
BRANCH  43  61
HETATM   61  N   UNK N   1      31.624  16.435   6.266  0.00  0.00    -0.346 N 
HETATM   62  C   UNK N   1      31.764  17.158   7.411  0.00  0.00     0.236 C 
HETATM   63  O   UNK N   1      30.789  17.667   7.943  0.00  0.00    -0.272 OA
HETATM   64  H   UNK N   1      32.419  16.038   5.843  0.00  0.00     0.163 HD
BRANCH  62  65
HETATM   65  C   UNK N   1      33.095  17.289   8.090  0.00  0.00     0.225 C 
BRANCH  65  66
HETATM   66  N   UNK N   1      33.933  16.120   7.940  0.00  0.00    -0.351 N 
HETATM   67  C   UNK N   1      34.480  15.418   8.968  0.00  0.00     0.239 C 
HETATM   68  O   UNK N   1      35.167  14.440   8.710  0.00  0.00    -0.271 OA
HETATM   69  H   UNK N   1      34.121  15.809   7.025  0.00  0.00     0.163 HD
BRANCH  67  70
HETATM   70  C   UNK N   1      34.295  15.838  10.408  0.00  0.00     0.163 C 
HETATM   71  C   UNK N   1      34.585  14.680  11.343  0.00  0.00     0.041 C 
BRANCH  70  72
HETATM   72  N   UNK N   1      35.166  16.953  10.747  0.00  0.00    -0.419 N 
HETATM   73  H   UNK N   1      35.958  17.469  11.130  0.00  0.00     0.150 HD
HETATM   74  H   UNK N   1      34.640  17.721  10.330  0.00  0.00     0.150 HD
ENDBRANCH  70  72
ENDBRANCH  67  70
ENDBRANCH  65  66
ENDBRANCH  62  65
ENDBRANCH  43  61
BRANCH  35  75
HETATM   75  C   UNK N   1      27.846  19.823   5.144  0.00  0.00     0.035 C 
BRANCH  75  76
HETATM   76  C   UNK N   1      27.647  20.601   6.429  0.00  0.00     0.004 C 
BRANCH  76  77
HETATM   77  C   UNK N   1      26.682  21.754   6.192  0.00  0.00     0.019 C 
BRANCH  77  78
HETATM   78  C   UNK N   1      25.838  22.040   7.427  0.00  0.00     0.111 C 
BRANCH  78  79
HETATM   79  N   UNK N   1      25.902  20.918   8.347  0.00  0.00    -0.430 N 
HETATM   80  H   UNK N   1      25.376  20.194   8.836  0.00  0.00     0.149 HD
HETATM   81  H   UNK N   1      26.880  20.809   8.615  0.00  0.00     0.149 HD
ENDBRANCH  78  79
ENDBRANCH  77  78
ENDBRANCH  76  77
ENDBRANCH  75  76
ENDBRANCH  35  75
BRANCH  48  82
HETATM   82  C   UNK N   1      34.112  15.030   4.556  0.00  0.00     0.164 C 
HETATM   83  O   UNK N   1      33.703  16.089   4.111  0.00  0.00    -0.648 OA
BRANCH  82  84
HETATM   84  O   UNK N   1      34.976  15.022   5.590  0.00  0.00    -0.775 OA
HETATM   85  H   UNK N   1      35.601  14.469   6.016  0.00  0.00     0.167 HD
ENDBRANCH  82  84
ENDBRANCH  48  82
BRANCH  37  86
HETATM   86  C   UNK N   1      24.795  18.264   4.010  0.00  0.00     0.137 C 
BRANCH  86  87
HETATM   87  C   UNK N   1      24.820  19.561   3.265  0.00  0.00     0.217 C 
HETATM   88  O   UNK N   1      25.847  19.913   2.710  0.00  0.00    -0.274 OA
HETATM   89  N   UNK N   1      23.691  20.277   3.095  0.00  0.00    -0.370 N 
HETATM   90  H   UNK N   1      22.837  20.701   2.848  0.00  0.00     0.159 HD
HETATM   91  H   UNK N   1      23.867  20.885   3.849  0.00  0.00     0.159 HD
ENDBRANCH  86  87
ENDBRANCH  37  86
BRANCH  45  92
HETATM   92  C   UNK N   1      38.415  12.334   3.213  0.00  0.00     0.199 C 
BRANCH  92  93
HETATM   93  O   UNK N   1      38.777  13.113   2.114  0.00  0.00    -0.398 OA
HETATM   94  H   UNK N   1      39.249  13.804   1.622  0.00  0.00     0.209 HD
ENDBRANCH  92  93
ENDBRANCH  45  92
BRANCH  32  95
HETATM   95  C   UNK N   1      22.714  16.225   4.143  0.00  0.00     0.073 C 
BRANCH  95  96
HETATM   96  C   UNK N   1      21.626  16.398   5.161  0.00  0.00    -0.056 A 
HETATM   97  C   UNK N   1      20.357  15.895   4.868  0.00  0.00     0.007 A 
HETATM   98  C   UNK N   1      19.315  16.027   5.790  0.00  0.00     0.001 A 
HETATM   99  C   UNK N   1      19.538  16.671   7.010  0.00  0.00     0.000 A 
HETATM  100  C   UNK N   1      20.803  17.186   7.307  0.00  0.00     0.001 A 
HETATM  101  C   UNK N   1      21.846  17.050   6.387  0.00  0.00     0.007 A 
ENDBRANCH  95  96
ENDBRANCH  32  95
BRANCH  41 102
HETATM  102  C   UNK N   1      35.477  13.453  -0.248  0.00  0.00     0.146 C 
HETATM  103  C   UNK N   1      34.717  13.363  -1.561  0.00  0.00     0.042 C 
BRANCH 102 104
HETATM  104  O   UNK N   1      35.310  14.736   0.272  0.00  0.00    -0.393 OA
HETATM  105  H   UNK N   1      35.153  14.880   1.219  0.00  0.00     0.210 HD
ENDBRANCH 102 104
ENDBRANCH  41 102
BRANCH  30 106
HETATM  106  C   UNK N   1      21.300  13.842   2.683  0.00  0.00     0.073 C 
BRANCH 106 107
HETATM  107  C   UNK N   1      20.372  12.776   2.202  0.00  0.00    -0.056 A 
HETATM  108  C   UNK N   1      19.738  11.920   3.108  0.00  0.00     0.007 A 
HETATM  109  C   UNK N   1      18.886  10.917   2.640  0.00  0.00     0.001 A 
HETATM  110  C   UNK N   1      18.669  10.768   1.266  0.00  0.00     0.000 A 
HETATM  111  C   UNK N   1      19.309  11.620   0.361  0.00  0.00     0.001 A 
HETATM  112  C   UNK N   1      20.163  12.621   0.828  0.00  0.00     0.007 A 
ENDBRANCH 106 107
ENDBRANCH  30 106
BRANCH  34 113
HETATM  113  C   UNK N   1      31.236   9.367  -0.158  0.00  0.00     0.073 C 
BRANCH 113 114
HETATM  114  C   UNK N   1      30.548   9.341  -1.489  0.00  0.00    -0.056 A 
HETATM  115  C   UNK N   1      29.829   8.210  -1.900  0.00  0.00     0.007 A 
HETATM  116  C   UNK N   1      29.212   8.187  -3.153  0.00  0.00     0.001 A 
HETATM  117  C   UNK N   1      29.325   9.287  -4.007  0.00  0.00     0.000 A 
HETATM  118  C   UNK N   1      30.060  10.408  -3.610  0.00  0.00     0.001 A 
HETATM  119  C   UNK N   1      30.674  10.432  -2.355  0.00  0.00     0.007 A 
ENDBRANCH 113 114
ENDBRANCH  34 113
BRANCH  26 120
HETATM  120  C   UNK N   1      23.305  10.190  -0.287  0.00  0.00     0.075 C 
BRANCH 120 121
HETATM  121  C   UNK N   1      23.527   8.732  -0.005  0.00  0.00    -0.028 A 
HETATM  122  C   UNK N   1      24.359   7.882  -0.686  0.00  0.00    -0.002 A 
HETATM  123  C   UNK N   1      24.318   6.681  -0.035  0.00  0.00     0.042 A 
HETATM  124  C   UNK N   1      25.169   8.084  -1.802  0.00  0.00     0.014 A 
HETATM  125  N   UNK N   1      23.501   6.736   1.030  0.00  0.00    -0.365 N 
HETATM  126  C   UNK N   1      25.074   5.590  -0.448  0.00  0.00     0.030 A 
HETATM  127  C   UNK N   1      23.021   8.003   1.066  0.00  0.00     0.096 A 
HETATM  128  H   UNK N   1      23.293   6.005   1.656  0.00  0.00     0.165 HD
HETATM  129  C   UNK N   1      25.900   5.757  -1.575  0.00  0.00     0.002 A 
HETATM  130  C   UNK N   1      25.949   7.000  -2.248  0.00  0.00     0.001 A 
ENDBRANCH 120 121
ENDBRANCH  26 120
BRANCH  28 131
HETATM  131  C   UNK N   1      27.864  12.424   2.412  0.00  0.00     0.146 C 
HETATM  132  C   UNK N   1      26.934  13.059   3.425  0.00  0.00     0.042 C 
BRANCH 131 133
HETATM  133  O   UNK N   1      28.488  13.435   1.681  0.00  0.00    -0.393 OA
HETATM  134  H   UNK N   1      28.810  13.747   0.821  0.00  0.00     0.210 HD
ENDBRANCH 131 133
ENDBRANCH  28 131
BRANCH  25 135
HETATM  135  C   UNK N   1      26.903   7.949   2.443  0.00  0.00     0.035 C 
BRANCH 135 136
HETATM  136  C   UNK N   1      27.640   7.518   1.189  0.00  0.00     0.004 C 
BRANCH 136 137
HETATM  137  C   UNK N   1      28.325   6.180   1.397  0.00  0.00     0.019 C 
BRANCH 137 138
HETATM  138  C   UNK N   1      28.981   6.135   2.764  0.00  0.00     0.111 C 
BRANCH 138 139
HETATM  139  N   UNK N   1      30.356   6.592   2.672  0.00  0.00    -0.430 N 
HETATM  140  H   UNK N   1      30.716   6.985   1.802  0.00  0.00     0.149 HD
HETATM  141  H   UNK N   1      30.967   6.520   3.485  0.00  0.00     0.149 HD
ENDBRANCH 138 139
ENDBRANCH 137 138
ENDBRANCH 136 137
ENDBRANCH 135 136
ENDBRANCH  25 135
TORSDOF 33
ENDMDL
MODEL 2
REMARK VINA RESULT:      -7.4      1.649      1.990
REMARK WARNING: 32 MAX_TORS EXCEEDED!!!
REMARK  33 active torsions:
REMARK  status: ('A' for Active; 'I' for Inactive)
REMARK    1  A    between atoms: O_5  and  C_53 
REMARK    2  A    between atoms: O_12  and  C_81 
REMARK    3  A    between atoms: O_16  and  C_104 
REMARK    4  A    between atoms: O_19  and  C_112 
REMARK    5  A    between atoms: N_32  and  C_60 
REMARK    6  A    between atoms: N_34  and  C_86 
REMARK       I    between atoms: N_34  and  C_109 
REMARK    7  A    between atoms: N_35  and  C_87 
REMARK       I    between atoms: N_36  and  C_92 
REMARK    8  A    between atoms: N_38  and  C_111 
REMARK       I    between atoms: N_38  and  C_113 
REMARK    9  A    between atoms: N_39  and  C_114 
REMARK   10  A    between atoms: C_40  and  C_42 
REMARK   11  A    between atoms: C_41  and  C_43 
REMARK   12  A    between atoms: C_42  and  C_44 
REMARK   13  A    between atoms: C_43  and  C_46 
REMARK   14  A    between atoms: C_44  and  C_50 
REMARK   15  A    between atoms: C_47  and  C_53 
REMARK   16  A    between atoms: C_49  and  C_54 
REMARK   17  A    between atoms: C_50  and  C_60 
REMARK   18  A    between atoms: C_54  and  C_67 
REMARK   19  A    between atoms: C_55  and  C_64 
REMARK   20  A    between atoms: C_59  and  C_66 
REMARK   21  A    between atoms: C_61  and  C_63 
REMARK   22  A    between atoms: C_63  and  C_69 
REMARK   23  A    between atoms: C_64  and  C_78 
REMARK   24  A    between atoms: C_65  and  C_77 
REMARK   25  A    between atoms: C_66  and  C_80 
REMARK   26  A    between atoms: C_69  and  C_76 
REMARK   27  A    between atoms: C_75  and  C_81 
REMARK   28  A    between atoms: C_76  and  C_87 
REMARK   29  A    between atoms: C_77  and  C_92 
REMARK   30  A    between atoms: C_95  and  C_104 
REMARK   31  A    between atoms: C_108  and  C_112 
REMARK   32  A    between atoms: C_109  and  C_111 
REMARK   33  A    between atoms: C_113  and  C_114 
ROOT
HETATM    1  S   UNK N   1      30.529  12.792   4.425  0.00  0.00    -0.095 SA
HETATM    2  S   UNK N   1      30.023  13.052   2.358  0.00  0.00    -0.095 SA
HETATM    3  O   UNK N   1      24.872  10.407   0.680  0.00  0.00    -0.271 OA
HETATM    4  O   UNK N   1      25.738   9.133   5.302  0.00  0.00    -0.271 OA
HETATM    5  O   UNK N   1      22.082  10.952   4.017  0.00  0.00    -0.271 OA
HETATM    6  O   UNK N   1      28.573   8.829   2.278  0.00  0.00    -0.271 OA
HETATM    7  O   UNK N   1      23.711  13.951   7.160  0.00  0.00    -0.271 OA
HETATM    8  O   UNK N   1      31.678   9.610   1.054  0.00  0.00    -0.271 OA
HETATM    9  O   UNK N   1      25.738  15.560   2.385  0.00  0.00    -0.271 OA
HETATM   10  O   UNK N   1      28.037  16.724   6.863  0.00  0.00    -0.271 OA
HETATM   11  O   UNK N   1      30.097  15.928   2.518  0.00  0.00    -0.271 OA
HETATM   12  O   UNK N   1      33.895   9.083  -1.611  0.00  0.00    -0.271 OA
HETATM   13  O   UNK N   1      35.297  12.906   1.294  0.00  0.00    -0.271 OA
HETATM   14  N   UNK N   1      24.262   9.685   2.711  0.00  0.00    -0.346 N 
HETATM   15  N   UNK N   1      22.335  12.077   2.096  0.00  0.00    -0.346 N 
HETATM   16  N   UNK N   1      27.281  10.305   4.207  0.00  0.00    -0.344 N 
HETATM   17  N   UNK N   1      22.394  13.220   5.524  0.00  0.00    -0.346 N 
HETATM   18  N   UNK N   1      28.865  10.513   0.826  0.00  0.00    -0.346 N 
HETATM   19  N   UNK N   1      24.304  15.076   4.028  0.00  0.00    -0.346 N 
HETATM   20  N   UNK N   1      26.365  16.740   5.405  0.00  0.00    -0.346 N 
HETATM   21  N   UNK N   1      28.908  17.398   3.681  0.00  0.00    -0.346 N 
HETATM   22  N   UNK N   1      31.821  10.800  -0.842  0.00  0.00    -0.344 N 
HETATM   23  N   UNK N   1      35.112   9.702   0.143  0.00  0.00    -0.344 N 
HETATM   24  N   UNK N   1      33.664  11.644   2.177  0.00  0.00    -0.344 N 
HETATM   25  C   UNK N   1      25.538   9.049   2.950  0.00  0.00     0.176 C 
HETATM   26  C   UNK N   1      22.662  10.943   1.259  0.00  0.00     0.181 C 
HETATM   27  C   UNK N   1      24.008  10.332   1.541  0.00  0.00     0.241 C 
HETATM   28  C   UNK N   1      27.776  10.952   3.002  0.00  0.00     0.205 C 
HETATM   29  C   UNK N   1      26.188   9.500   4.229  0.00  0.00     0.241 C 
HETATM   30  C   UNK N   1      21.893  13.302   4.170  0.00  0.00     0.180 C 
HETATM   31  C   UNK N   1      22.083  12.021   3.423  0.00  0.00     0.241 C 
HETATM   32  C   UNK N   1      23.652  15.379   5.289  0.00  0.00     0.180 C 
HETATM   33  C   UNK N   1      28.406  10.006   1.998  0.00  0.00     0.243 C 
HETATM   34  C   UNK N   1      29.664   9.827  -0.168  0.00  0.00     0.180 C 
HETATM   35  C   UNK N   1      28.505  17.990   4.936  0.00  0.00     0.176 C 
HETATM   36  C   UNK N   1      23.267  14.125   6.037  0.00  0.00     0.241 C 
HETATM   37  C   UNK N   1      25.764  17.118   4.146  0.00  0.00     0.185 C 
HETATM   38  C   UNK N   1      31.132  10.049   0.052  0.00  0.00     0.241 C 
HETATM   39  C   UNK N   1      25.267  15.868   3.468  0.00  0.00     0.241 C 
HETATM   40  C   UNK N   1      27.617  17.103   5.783  0.00  0.00     0.241 C 
HETATM   41  C   UNK N   1      33.226  11.154  -0.721  0.00  0.00     0.205 C 
HETATM   42  C   UNK N   1      29.707  16.307   3.609  0.00  0.00     0.241 C 
HETATM   43  C   UNK N   1      30.126  15.582   4.863  0.00  0.00     0.186 C 
HETATM   44  C   UNK N   1      34.095   9.917  -0.742  0.00  0.00     0.243 C 
HETATM   45  C   UNK N   1      35.647  10.560   1.199  0.00  0.00     0.200 C 
HETATM   46  C   UNK N   1      29.519  14.186   5.010  0.00  0.00     0.120 C 
HETATM   47  C   UNK N   1      34.853  11.793   1.544  0.00  0.00     0.243 C 
HETATM   48  C   UNK N   1      32.788  12.715   2.599  0.00  0.00     0.192 C 
HETATM   49  C   UNK N   1      31.680  12.948   1.594  0.00  0.00     0.122 C 
HETATM   50  H   UNK N   1      23.564   9.648   3.406  0.00  0.00     0.163 HD
HETATM   51  H   UNK N   1      22.294  12.961   1.664  0.00  0.00     0.163 HD
HETATM   52  H   UNK N   1      27.764  10.459   5.051  0.00  0.00     0.163 HD
HETATM   53  H   UNK N   1      22.091  12.477   6.095  0.00  0.00     0.163 HD
HETATM   54  H   UNK N   1      28.629  11.449   0.629  0.00  0.00     0.163 HD
HETATM   55  H   UNK N   1      24.038  14.257   3.550  0.00  0.00     0.163 HD
HETATM   56  H   UNK N   1      25.835  16.188   6.023  0.00  0.00     0.163 HD
HETATM   57  H   UNK N   1      28.590  17.806   2.843  0.00  0.00     0.163 HD
HETATM   58  H   UNK N   1      31.334  11.132  -1.631  0.00  0.00     0.163 HD
HETATM   59  H   UNK N   1      35.557   8.828   0.057  0.00  0.00     0.163 HD
HETATM   60  H   UNK N   1      33.370  10.723   2.367  0.00  0.00     0.163 HD
ENDROOT
BRANCH  43  61
HETATM   61  N   UNK N   1      31.544  15.673   5.159  0.00  0.00    -0.346 N 
HETATM   62  C   UNK N   1      31.980  16.165   6.351  0.00  0.00     0.236 C 
HETATM   63  O   UNK N   1      31.179  16.548   7.190  0.00  0.00    -0.272 OA
HETATM   64  H   UNK N   1      32.200  15.376   4.488  0.00  0.00     0.163 HD
BRANCH  62  65
HETATM   65  C   UNK N   1      33.439  16.181   6.699  0.00  0.00     0.225 C 
BRANCH  65  66
HETATM   66  N   UNK N   1      33.933  17.497   7.041  0.00  0.00    -0.351 N 
HETATM   67  C   UNK N   1      34.488  17.833   8.235  0.00  0.00     0.239 C 
HETATM   68  O   UNK N   1      34.875  18.981   8.400  0.00  0.00    -0.271 OA
HETATM   69  H   UNK N   1      33.860  18.202   6.358  0.00  0.00     0.163 HD
BRANCH  67  70
HETATM   70  C   UNK N   1      34.602  16.840   9.369  0.00  0.00     0.163 C 
HETATM   71  C   UNK N   1      35.324  15.587   8.912  0.00  0.00     0.041 C 
BRANCH  70  72
HETATM   72  N   UNK N   1      35.314  17.413  10.501  0.00  0.00    -0.419 N 
HETATM   73  H   UNK N   1      35.497  17.762  11.442  0.00  0.00     0.150 HD
HETATM   74  H   UNK N   1      36.228  17.565  10.076  0.00  0.00     0.150 HD
ENDBRANCH  70  72
ENDBRANCH  67  70
ENDBRANCH  65  66
ENDBRANCH  62  65
ENDBRANCH  43  61
BRANCH  35  75
HETATM   75  C   UNK N   1      27.909  19.358   4.693  0.00  0.00     0.035 C 
BRANCH  75  76
HETATM   76  C   UNK N   1      27.746  20.072   6.020  0.00  0.00     0.004 C 
BRANCH  76  77
HETATM   77  C   UNK N   1      26.363  20.703   6.102  0.00  0.00     0.019 C 
BRANCH  77  78
HETATM   78  C   UNK N   1      26.299  21.772   7.185  0.00  0.00     0.111 C 
BRANCH  78  79
HETATM   79  N   UNK N   1      25.574  21.271   8.339  0.00  0.00    -0.430 N 
HETATM   80  H   UNK N   1      24.917  21.493   9.088  0.00  0.00     0.149 HD
HETATM   81  H   UNK N   1      25.825  20.288   8.445  0.00  0.00     0.149 HD
ENDBRANCH  78  79
ENDBRANCH  77  78
ENDBRANCH  76  77
ENDBRANCH  75  76
ENDBRANCH  35  75
BRANCH  48  82
HETATM   82  C   UNK N   1      33.467  13.979   3.031  0.00  0.00     0.164 C 
HETATM   83  O   UNK N   1      33.268  15.014   2.418  0.00  0.00    -0.648 OA
BRANCH  82  84
HETATM   84  O   UNK N   1      34.308  13.970   4.084  0.00  0.00    -0.775 OA
HETATM   85  H   UNK N   1      34.447  13.539   4.904  0.00  0.00     0.167 HD
ENDBRANCH  82  84
ENDBRANCH  48  82
BRANCH  37  86
HETATM   86  C   UNK N   1      24.563  18.052   4.338  0.00  0.00     0.137 C 
BRANCH  86  87
HETATM   87  C   UNK N   1      24.447  19.227   3.419  0.00  0.00     0.217 C 
HETATM   88  O   UNK N   1      25.388  19.523   2.703  0.00  0.00    -0.274 OA
HETATM   89  N   UNK N   1      23.275  19.880   3.285  0.00  0.00    -0.370 N 
HETATM   90  H   UNK N   1      22.381  20.240   3.083  0.00  0.00     0.159 HD
HETATM   91  H   UNK N   1      23.509  20.595   3.919  0.00  0.00     0.159 HD
ENDBRANCH  86  87
ENDBRANCH  37  86
BRANCH  45  92
HETATM   92  C   UNK N   1      37.126  10.844   0.940  0.00  0.00     0.199 C 
BRANCH  92  93
HETATM   93  O   UNK N   1      37.715  11.467   2.039  0.00  0.00    -0.398 OA
HETATM   94  H   UNK N   1      38.361  12.005   2.524  0.00  0.00     0.209 HD
ENDBRANCH  92  93
ENDBRANCH  45  92
BRANCH  32  95
HETATM   95  C   UNK N   1      22.401  16.224   5.033  0.00  0.00     0.073 C 
BRANCH  95  96
HETATM   96  C   UNK N   1      21.636  16.616   6.262  0.00  0.00    -0.056 A 
HETATM   97  C   UNK N   1      21.369  17.972   6.474  0.00  0.00     0.007 A 
HETATM   98  C   UNK N   1      20.654  18.382   7.602  0.00  0.00     0.001 A 
HETATM   99  C   UNK N   1      20.205  17.437   8.528  0.00  0.00     0.000 A 
HETATM  100  C   UNK N   1      20.475  16.080   8.329  0.00  0.00     0.001 A 
HETATM  101  C   UNK N   1      21.187  15.669   7.199  0.00  0.00     0.007 A 
ENDBRANCH  95  96
ENDBRANCH  32  95
BRANCH  41 102
HETATM  102  C   UNK N   1      33.599  12.106  -1.858  0.00  0.00     0.146 C 
HETATM  103  C   UNK N   1      32.498  12.141  -2.905  0.00  0.00     0.042 C 
BRANCH 102 104
HETATM  104  O   UNK N   1      33.780  13.398  -1.365  0.00  0.00    -0.393 OA
HETATM  105  H   UNK N   1      33.862  13.567  -0.412  0.00  0.00     0.210 HD
ENDBRANCH 102 104
ENDBRANCH  41 102
BRANCH  30 106
HETATM  106  C   UNK N   1      20.504  13.932   4.051  0.00  0.00     0.073 C 
BRANCH 106 107
HETATM  107  C   UNK N   1      20.173  14.409   2.677  0.00  0.00    -0.056 A 
HETATM  108  C   UNK N   1      20.810  15.531   2.139  0.00  0.00     0.007 A 
HETATM  109  C   UNK N   1      20.476  15.974   0.856  0.00  0.00     0.001 A 
HETATM  110  C   UNK N   1      19.503  15.298   0.113  0.00  0.00     0.000 A 
HETATM  111  C   UNK N   1      18.862  14.179   0.656  0.00  0.00     0.001 A 
HETATM  112  C   UNK N   1      19.194  13.737   1.938  0.00  0.00     0.007 A 
ENDBRANCH 106 107
ENDBRANCH  30 106
BRANCH  34 113
HETATM  113  C   UNK N   1      29.156   8.442  -0.621  0.00  0.00     0.073 C 
BRANCH 113 114
HETATM  114  C   UNK N   1      28.645   8.352  -2.026  0.00  0.00    -0.056 A 
HETATM  115  C   UNK N   1      27.442   7.689  -2.306  0.00  0.00     0.007 A 
HETATM  116  C   UNK N   1      26.985   7.588  -3.624  0.00  0.00     0.001 A 
HETATM  117  C   UNK N   1      27.738   8.135  -4.666  0.00  0.00     0.000 A 
HETATM  118  C   UNK N   1      28.950   8.776  -4.393  0.00  0.00     0.001 A 
HETATM  119  C   UNK N   1      29.403   8.879  -3.075  0.00  0.00     0.007 A 
ENDBRANCH 113 114
ENDBRANCH  34 113
BRANCH  26 120
HETATM  120  C   UNK N   1      21.491  10.002   0.928  0.00  0.00     0.075 C 
BRANCH 120 121
HETATM  121  C   UNK N   1      21.807   8.585   0.546  0.00  0.00    -0.028 A 
HETATM  122  C   UNK N   1      22.377   8.158  -0.625  0.00  0.00    -0.002 A 
HETATM  123  C   UNK N   1      22.564   6.809  -0.507  0.00  0.00     0.042 A 
HETATM  124  C   UNK N   1      22.772   8.856  -1.765  0.00  0.00     0.014 A 
HETATM  125  N   UNK N   1      22.141   6.366   0.689  0.00  0.00    -0.365 N 
HETATM  126  C   UNK N   1      23.152   6.053  -1.514  0.00  0.00     0.030 A 
HETATM  127  C   UNK N   1      21.689   7.458   1.352  0.00  0.00     0.096 A 
HETATM  128  H   UNK N   1      22.158   5.438   1.017  0.00  0.00     0.165 HD
HETATM  129  C   UNK N   1      23.560   6.725  -2.681  0.00  0.00     0.002 A 
HETATM  130  C   UNK N   1      23.373   8.121  -2.805  0.00  0.00     0.001 A 
ENDBRANCH 120 121
ENDBRANCH  26 120
BRANCH  28 131
HETATM  131  C   UNK N   1      26.703  11.895   2.443  0.00  0.00     0.146 C 
HETATM  132  C   UNK N   1      26.028  12.598   3.602  0.00  0.00     0.042 C 
BRANCH 131 133
HETATM  133  O   UNK N   1      27.243  12.856   1.589  0.00  0.00    -0.393 OA
HETATM  134  H   UNK N   1      27.609  13.065   0.715  0.00  0.00     0.210 HD
ENDBRANCH 131 133
ENDBRANCH  28 131
BRANCH  25 135
HETATM  135  C   UNK N   1      25.402   7.534   2.933  0.00  0.00     0.035 C 
BRANCH 135 136
HETATM  136  C   UNK N   1      25.606   7.009   1.525  0.00  0.00     0.004 C 
BRANCH 136 137
HETATM  137  C   UNK N   1      26.336   5.678   1.544  0.00  0.00     0.019 C 
BRANCH 137 138
HETATM  138  C   UNK N   1      27.244   5.597   2.755  0.00  0.00     0.111 C 
BRANCH 138 139
HETATM  139  N   UNK N   1      28.620   5.842   2.364  0.00  0.00    -0.430 N 
HETATM  140  H   UNK N   1      29.329   5.116   2.475  0.00  0.00     0.149 HD
HETATM  141  H   UNK N   1      28.882   6.747   1.974  0.00  0.00     0.149 HD
ENDBRANCH 138 139
ENDBRANCH 137 138
ENDBRANCH 136 137
ENDBRANCH 135 136
ENDBRANCH  25 135
TORSDOF 33
ENDMDL
MODEL 3
REMARK VINA RESULT:      -7.0      3.553      6.767
REMARK WARNING: 32 MAX_TORS EXCEEDED!!!
REMARK  33 active torsions:
REMARK  status: ('A' for Active; 'I' for Inactive)
REMARK    1  A    between atoms: O_5  and  C_53 
REMARK    2  A    between atoms: O_12  and  C_81 
REMARK    3  A    between atoms: O_16  and  C_104 
REMARK    4  A    between atoms: O_19  and  C_112 
REMARK    5  A    between atoms: N_32  and  C_60 
REMARK    6  A    between atoms: N_34  and  C_86 
REMARK       I    between atoms: N_34  and  C_109 
REMARK    7  A    between atoms: N_35  and  C_87 
REMARK       I    between atoms: N_36  and  C_92 
REMARK    8  A    between atoms: N_38  and  C_111 
REMARK       I    between atoms: N_38  and  C_113 
REMARK    9  A    between atoms: N_39  and  C_114 
REMARK   10  A    between atoms: C_40  and  C_42 
REMARK   11  A    between atoms: C_41  and  C_43 
REMARK   12  A    between atoms: C_42  and  C_44 
REMARK   13  A    between atoms: C_43  and  C_46 
REMARK   14  A    between atoms: C_44  and  C_50 
REMARK   15  A    between atoms: C_47  and  C_53 
REMARK   16  A    between atoms: C_49  and  C_54 
REMARK   17  A    between atoms: C_50  and  C_60 
REMARK   18  A    between atoms: C_54  and  C_67 
REMARK   19  A    between atoms: C_55  and  C_64 
REMARK   20  A    between atoms: C_59  and  C_66 
REMARK   21  A    between atoms: C_61  and  C_63 
REMARK   22  A    between atoms: C_63  and  C_69 
REMARK   23  A    between atoms: C_64  and  C_78 
REMARK   24  A    between atoms: C_65  and  C_77 
REMARK   25  A    between atoms: C_66  and  C_80 
REMARK   26  A    between atoms: C_69  and  C_76 
REMARK   27  A    between atoms: C_75  and  C_81 
REMARK   28  A    between atoms: C_76  and  C_87 
REMARK   29  A    between atoms: C_77  and  C_92 
REMARK   30  A    between atoms: C_95  and  C_104 
REMARK   31  A    between atoms: C_108  and  C_112 
REMARK   32  A    between atoms: C_109  and  C_111 
REMARK   33  A    between atoms: C_113  and  C_114 
ROOT
HETATM    1  S   UNK N   1      36.557  11.644   6.158  0.00  0.00    -0.095 SA
HETATM    2  S   UNK N   1      36.914  12.986   4.523  0.00  0.00    -0.095 SA
HETATM    3  O   UNK N   1      33.867  11.678  -0.511  0.00  0.00    -0.271 OA
HETATM    4  O   UNK N   1      33.026   8.097   2.685  0.00  0.00    -0.271 OA
HETATM    5  O   UNK N   1      29.903  10.325   0.783  0.00  0.00    -0.271 OA
HETATM    6  O   UNK N   1      36.833   9.484   1.754  0.00  0.00    -0.271 OA
HETATM    7  O   UNK N   1      29.188  11.135   5.296  0.00  0.00    -0.271 OA
HETATM    8  O   UNK N   1      39.825  10.802   2.778  0.00  0.00    -0.271 OA
HETATM    9  O   UNK N   1      32.510  15.078   3.589  0.00  0.00    -0.271 OA
HETATM   10  O   UNK N   1      32.313  13.623   8.542  0.00  0.00    -0.271 OA
HETATM   11  O   UNK N   1      36.133  15.313   6.032  0.00  0.00    -0.271 OA
HETATM   12  O   UNK N   1      43.006  11.807   1.696  0.00  0.00    -0.271 OA
HETATM   13  O   UNK N   1      41.971  13.438   6.310  0.00  0.00    -0.271 OA
HETATM   14  N   UNK N   1      32.683   9.969   0.323  0.00  0.00    -0.346 N 
HETATM   15  N   UNK N   1      30.623  12.313   0.042  0.00  0.00    -0.346 N 
HETATM   16  N   UNK N   1      34.505   9.676   3.209  0.00  0.00    -0.344 N 
HETATM   17  N   UNK N   1      28.929  11.410   3.104  0.00  0.00    -0.346 N 
HETATM   18  N   UNK N   1      37.239  11.686   1.636  0.00  0.00    -0.346 N 
HETATM   19  N   UNK N   1      30.710  13.780   3.841  0.00  0.00    -0.346 N 
HETATM   20  N   UNK N   1      31.469  14.429   6.654  0.00  0.00    -0.346 N 
HETATM   21  N   UNK N   1      34.218  15.917   6.978  0.00  0.00    -0.346 N 
HETATM   22  N   UNK N   1      40.421  12.832   2.030  0.00  0.00    -0.344 N 
HETATM   23  N   UNK N   1      43.159  11.373   3.871  0.00  0.00    -0.344 N 
HETATM   24  N   UNK N   1      40.527  11.899   5.544  0.00  0.00    -0.344 N 
HETATM   25  C   UNK N   1      33.861   9.304   0.834  0.00  0.00     0.176 C 
HETATM   26  C   UNK N   1      31.564  11.814  -0.938  0.00  0.00     0.181 C 
HETATM   27  C   UNK N   1      32.778  11.147  -0.350  0.00  0.00     0.241 C 
HETATM   28  C   UNK N   1      35.264  10.873   2.883  0.00  0.00     0.205 C 
HETATM   29  C   UNK N   1      33.767   8.988   2.301  0.00  0.00     0.241 C 
HETATM   30  C   UNK N   1      29.039  12.215   1.907  0.00  0.00     0.180 C 
HETATM   31  C   UNK N   1      29.864  11.544   0.855  0.00  0.00     0.241 C 
HETATM   32  C   UNK N   1      29.535  13.350   4.577  0.00  0.00     0.180 C 
HETATM   33  C   UNK N   1      36.487  10.624   2.022  0.00  0.00     0.243 C 
HETATM   34  C   UNK N   1      38.533  11.649   0.987  0.00  0.00     0.180 C 
HETATM   35  C   UNK N   1      33.183  15.732   7.969  0.00  0.00     0.176 C 
HETATM   36  C   UNK N   1      29.227  11.891   4.339  0.00  0.00     0.241 C 
HETATM   37  C   UNK N   1      31.373  15.430   5.617  0.00  0.00     0.185 C 
HETATM   38  C   UNK N   1      39.653  11.716   1.984  0.00  0.00     0.241 C 
HETATM   39  C   UNK N   1      31.564  14.749   4.287  0.00  0.00     0.241 C 
HETATM   40  C   UNK N   1      32.298  14.528   7.724  0.00  0.00     0.241 C 
HETATM   41  C   UNK N   1      41.493  13.063   2.986  0.00  0.00     0.205 C 
HETATM   42  C   UNK N   1      35.236  15.039   6.810  0.00  0.00     0.241 C 
HETATM   43  C   UNK N   1      35.270  13.749   7.590  0.00  0.00     0.186 C 
HETATM   44  C   UNK N   1      42.590  12.035   2.821  0.00  0.00     0.243 C 
HETATM   45  C   UNK N   1      42.948  11.520   5.310  0.00  0.00     0.200 C 
HETATM   46  C   UNK N   1      35.060  12.497   6.736  0.00  0.00     0.120 C 
HETATM   47  C   UNK N   1      41.782  12.368   5.746  0.00  0.00     0.243 C 
HETATM   48  C   UNK N   1      39.301  12.571   5.919  0.00  0.00     0.192 C 
HETATM   49  C   UNK N   1      38.699  13.313   4.745  0.00  0.00     0.122 C 
HETATM   50  H   UNK N   1      31.797   9.561   0.463  0.00  0.00     0.163 HD
HETATM   51  H   UNK N   1      30.529  13.290   0.123  0.00  0.00     0.163 HD
HETATM   52  H   UNK N   1      34.529   9.347   4.136  0.00  0.00     0.163 HD
HETATM   53  H   UNK N   1      28.629  10.477   3.019  0.00  0.00     0.163 HD
HETATM   54  H   UNK N   1      36.863  12.579   1.816  0.00  0.00     0.163 HD
HETATM   55  H   UNK N   1      30.900  13.352   2.976  0.00  0.00     0.163 HD
HETATM   56  H   UNK N   1      30.900  13.630   6.580  0.00  0.00     0.163 HD
HETATM   57  H   UNK N   1      34.183  16.714   6.402  0.00  0.00     0.163 HD
HETATM   58  H   UNK N   1      40.240  13.539   1.369  0.00  0.00     0.163 HD
HETATM   59  H   UNK N   1      43.817  10.686   3.619  0.00  0.00     0.163 HD
HETATM   60  H   UNK N   1      40.441  11.024   5.102  0.00  0.00     0.163 HD
ENDROOT
BRANCH  43  61
HETATM   61  N   UNK N   1      36.351  13.665   8.555  0.00  0.00    -0.346 N 
HETATM   62  C   UNK N   1      36.092  13.560   9.887  0.00  0.00     0.236 C 
HETATM   63  O   UNK N   1      34.941  13.546  10.293  0.00  0.00    -0.272 OA
HETATM   64  H   UNK N   1      37.284  13.684   8.242  0.00  0.00     0.163 HD
BRANCH  62  65
HETATM   65  C   UNK N   1      37.201  13.384  10.883  0.00  0.00     0.225 C 
BRANCH  65  66
HETATM   66  N   UNK N   1      37.041  14.197  12.068  0.00  0.00    -0.351 N 
HETATM   67  C   UNK N   1      36.512  13.765  13.243  0.00  0.00     0.239 C 
HETATM   68  O   UNK N   1      36.437  14.550  14.177  0.00  0.00    -0.271 OA
HETATM   69  H   UNK N   1      37.339  15.135  12.020  0.00  0.00     0.163 HD
BRANCH  67  70
HETATM   70  C   UNK N   1      35.980  12.360  13.409  0.00  0.00     0.163 C 
HETATM   71  C   UNK N   1      36.190  11.873  14.830  0.00  0.00     0.041 C 
BRANCH  70  72
HETATM   72  N   UNK N   1      34.563  12.292  13.088  0.00  0.00    -0.419 N 
HETATM   73  H   UNK N   1      33.583  12.565  13.010  0.00  0.00     0.150 HD
HETATM   74  H   UNK N   1      34.522  11.365  12.664  0.00  0.00     0.150 HD
ENDBRANCH  70  72
ENDBRANCH  67  70
ENDBRANCH  65  66
ENDBRANCH  62  65
ENDBRANCH  43  61
BRANCH  35  75
HETATM   75  C   UNK N   1      32.398  17.013   8.139  0.00  0.00     0.035 C 
BRANCH  75  76
HETATM   76  C   UNK N   1      31.189  16.743   9.013  0.00  0.00     0.004 C 
BRANCH  76  77
HETATM   77  C   UNK N   1      30.214  17.908   8.921  0.00  0.00     0.019 C 
BRANCH  77  78
HETATM   78  C   UNK N   1      28.928  17.623   9.685  0.00  0.00     0.111 C 
BRANCH  78  79
HETATM   79  N   UNK N   1      27.813  18.314   9.062  0.00  0.00    -0.430 N 
HETATM   80  H   UNK N   1      26.808  18.492   9.084  0.00  0.00     0.149 HD
HETATM   81  H   UNK N   1      28.192  18.844   8.278  0.00  0.00     0.149 HD
ENDBRANCH  78  79
ENDBRANCH  77  78
ENDBRANCH  76  77
ENDBRANCH  75  76
ENDBRANCH  35  75
BRANCH  48  82
HETATM   82  C   UNK N   1      39.367  13.396   7.167  0.00  0.00     0.164 C 
HETATM   83  O   UNK N   1      39.256  12.859   8.256  0.00  0.00    -0.648 OA
BRANCH  82  84
HETATM   84  O   UNK N   1      39.531  14.731   7.088  0.00  0.00    -0.775 OA
HETATM   85  H   UNK N   1      40.101  15.376   6.720  0.00  0.00     0.167 HD
ENDBRANCH  82  84
ENDBRANCH  48  82
BRANCH  37  86
HETATM   86  C   UNK N   1      30.000  16.111   5.598  0.00  0.00     0.137 C 
BRANCH  86  87
HETATM   87  C   UNK N   1      29.917  17.488   5.017  0.00  0.00     0.217 C 
HETATM   88  O   UNK N   1      29.037  18.243   5.390  0.00  0.00    -0.274 OA
HETATM   89  N   UNK N   1      30.878  17.940   4.187  0.00  0.00    -0.370 N 
HETATM   90  H   UNK N   1      31.661  18.305   3.714  0.00  0.00     0.159 HD
HETATM   91  H   UNK N   1      30.378  17.732   3.365  0.00  0.00     0.159 HD
ENDBRANCH  86  87
ENDBRANCH  37  86
BRANCH  45  92
HETATM   92  C   UNK N   1      44.262  11.898   5.993  0.00  0.00     0.199 C 
BRANCH  92  93
HETATM   93  O   UNK N   1      44.769  13.090   5.477  0.00  0.00    -0.398 OA
HETATM   94  H   UNK N   1      45.304  13.899   5.451  0.00  0.00     0.209 HD
ENDBRANCH  92  93
ENDBRANCH  45  92
BRANCH  32  95
HETATM   95  C   UNK N   1      28.328  14.199   4.165  0.00  0.00     0.073 C 
BRANCH  95  96
HETATM   96  C   UNK N   1      27.197  14.218   5.150  0.00  0.00    -0.056 A 
HETATM   97  C   UNK N   1      26.441  13.054   5.315  0.00  0.00     0.007 A 
HETATM   98  C   UNK N   1      25.382  13.024   6.226  0.00  0.00     0.001 A 
HETATM   99  C   UNK N   1      25.070  14.163   6.974  0.00  0.00     0.000 A 
HETATM  100  C   UNK N   1      25.815  15.333   6.808  0.00  0.00     0.001 A 
HETATM  101  C   UNK N   1      26.876  15.363   5.900  0.00  0.00     0.007 A 
ENDBRANCH  95  96
ENDBRANCH  32  95
BRANCH  41 102
HETATM  102  C   UNK N   1      42.035  14.479   2.792  0.00  0.00     0.146 C 
HETATM  103  C   UNK N   1      41.601  15.036   1.447  0.00  0.00     0.042 C 
BRANCH 102 104
HETATM  104  O   UNK N   1      41.552  15.320   3.795  0.00  0.00    -0.393 OA
HETATM  105  H   UNK N   1      42.049  15.463   4.616  0.00  0.00     0.210 HD
ENDBRANCH 102 104
ENDBRANCH  41 102
BRANCH  30 106
HETATM  106  C   UNK N   1      27.715  12.809   1.425  0.00  0.00     0.073 C 
BRANCH 106 107
HETATM  107  C   UNK N   1      26.558  11.873   1.535  0.00  0.00    -0.056 A 
HETATM  108  C   UNK N   1      26.539  10.675   0.815  0.00  0.00     0.007 A 
HETATM  109  C   UNK N   1      25.440   9.818   0.916  0.00  0.00     0.001 A 
HETATM  110  C   UNK N   1      24.359  10.160   1.735  0.00  0.00     0.000 A 
HETATM  111  C   UNK N   1      24.377  11.362   2.450  0.00  0.00     0.001 A 
HETATM  112  C   UNK N   1      25.473  12.220   2.347  0.00  0.00     0.007 A 
ENDBRANCH 106 107
ENDBRANCH  30 106
BRANCH  34 113
HETATM  113  C   UNK N   1      38.656  10.733  -0.247  0.00  0.00     0.073 C 
BRANCH 113 114
HETATM  114  C   UNK N   1      37.966  11.201  -1.491  0.00  0.00    -0.056 A 
HETATM  115  C   UNK N   1      37.424  12.492  -1.565  0.00  0.00     0.007 A 
HETATM  116  C   UNK N   1      36.760  12.911  -2.721  0.00  0.00     0.001 A 
HETATM  117  C   UNK N   1      36.622  12.036  -3.802  0.00  0.00     0.000 A 
HETATM  118  C   UNK N   1      37.141  10.741  -3.724  0.00  0.00     0.001 A 
HETATM  119  C   UNK N   1      37.807  10.323  -2.568  0.00  0.00     0.007 A 
ENDBRANCH 113 114
ENDBRANCH  34 113
BRANCH  26 120
HETATM  120  C   UNK N   1      30.941  11.205  -2.207  0.00  0.00     0.075 C 
BRANCH 120 121
HETATM  121  C   UNK N   1      31.418   9.852  -2.650  0.00  0.00    -0.028 A 
HETATM  122  C   UNK N   1      32.364   9.588  -3.605  0.00  0.00    -0.002 A 
HETATM  123  C   UNK N   1      32.549   8.234  -3.618  0.00  0.00     0.042 A 
HETATM  124  C   UNK N   1      33.096  10.435  -4.436  0.00  0.00     0.014 A 
HETATM  125  N   UNK N   1      31.764   7.631  -2.709  0.00  0.00    -0.365 N 
HETATM  126  C   UNK N   1      33.469   7.620  -4.460  0.00  0.00     0.030 A 
HETATM  127  C   UNK N   1      31.075   8.624  -2.095  0.00  0.00     0.096 A 
HETATM  128  H   UNK N   1      31.702   6.666  -2.526  0.00  0.00     0.165 HD
HETATM  129  C   UNK N   1      34.223   8.445  -5.315  0.00  0.00     0.002 A 
HETATM  130  C   UNK N   1      34.038   9.847  -5.302  0.00  0.00     0.001 A 
ENDBRANCH 120 121
ENDBRANCH  26 120
BRANCH  28 131
HETATM  131  C   UNK N   1      34.313  11.969   2.386  0.00  0.00     0.146 C 
HETATM  132  C   UNK N   1      33.085  11.979   3.270  0.00  0.00     0.042 C 
BRANCH 131 133
HETATM  133  O   UNK N   1      34.903  13.232   2.423  0.00  0.00    -0.393 OA
HETATM  134  H   UNK N   1      35.698  13.772   2.288  0.00  0.00     0.210 HD
ENDBRANCH 131 133
ENDBRANCH  28 131
BRANCH  25 135
HETATM  135  C   UNK N   1      34.160   8.041   0.040  0.00  0.00     0.035 C 
BRANCH 135 136
HETATM  136  C   UNK N   1      35.051   8.368  -1.142  0.00  0.00     0.004 C 
BRANCH 136 137
HETATM  137  C   UNK N   1      35.869   7.159  -1.555  0.00  0.00     0.019 C 
BRANCH 137 138
HETATM  138  C   UNK N   1      36.521   6.529  -0.339  0.00  0.00     0.111 C 
BRANCH 138 139
HETATM  139  N   UNK N   1      37.765   7.211  -0.032  0.00  0.00    -0.430 N 
HETATM  140  H   UNK N   1      38.489   7.317  -0.742  0.00  0.00     0.149 HD
HETATM  141  H   UNK N   1      37.916   7.588   0.904  0.00  0.00     0.149 HD
ENDBRANCH 138 139
ENDBRANCH 137 138
ENDBRANCH 136 137
ENDBRANCH 135 136
ENDBRANCH  25 135
TORSDOF 33
ENDMDL
MODEL 4
REMARK VINA RESULT:      -6.9      2.200      3.440
REMARK WARNING: 32 MAX_TORS EXCEEDED!!!
REMARK  33 active torsions:
REMARK  status: ('A' for Active; 'I' for Inactive)
REMARK    1  A    between atoms: O_5  and  C_53 
REMARK    2  A    between atoms: O_12  and  C_81 
REMARK    3  A    between atoms: O_16  and  C_104 
REMARK    4  A    between atoms: O_19  and  C_112 
REMARK    5  A    between atoms: N_32  and  C_60 
REMARK    6  A    between atoms: N_34  and  C_86 
REMARK       I    between atoms: N_34  and  C_109 
REMARK    7  A    between atoms: N_35  and  C_87 
REMARK       I    between atoms: N_36  and  C_92 
REMARK    8  A    between atoms: N_38  and  C_111 
REMARK       I    between atoms: N_38  and  C_113 
REMARK    9  A    between atoms: N_39  and  C_114 
REMARK   10  A    between atoms: C_40  and  C_42 
REMARK   11  A    between atoms: C_41  and  C_43 
REMARK   12  A    between atoms: C_42  and  C_44 
REMARK   13  A    between atoms: C_43  and  C_46 
REMARK   14  A    between atoms: C_44  and  C_50 
REMARK   15  A    between atoms: C_47  and  C_53 
REMARK   16  A    between atoms: C_49  and  C_54 
REMARK   17  A    between atoms: C_50  and  C_60 
REMARK   18  A    between atoms: C_54  and  C_67 
REMARK   19  A    between atoms: C_55  and  C_64 
REMARK   20  A    between atoms: C_59  and  C_66 
REMARK   21  A    between atoms: C_61  and  C_63 
REMARK   22  A    between atoms: C_63  and  C_69 
REMARK   23  A    between atoms: C_64  and  C_78 
REMARK   24  A    between atoms: C_65  and  C_77 
REMARK   25  A    between atoms: C_66  and  C_80 
REMARK   26  A    between atoms: C_69  and  C_76 
REMARK   27  A    between atoms: C_75  and  C_81 
REMARK   28  A    between atoms: C_76  and  C_87 
REMARK   29  A    between atoms: C_77  and  C_92 
REMARK   30  A    between atoms: C_95  and  C_104 
REMARK   31  A    between atoms: C_108  and  C_112 
REMARK   32  A    between atoms: C_109  and  C_111 
REMARK   33  A    between atoms: C_113  and  C_114 
ROOT
HETATM    1  S   UNK N   1      29.711  12.051   4.326  0.00  0.00    -0.095 SA
HETATM    2  S   UNK N   1      29.210  12.377   2.266  0.00  0.00    -0.095 SA
HETATM    3  O   UNK N   1      24.059   9.795   0.493  0.00  0.00    -0.271 OA
HETATM    4  O   UNK N   1      24.912   8.374   5.075  0.00  0.00    -0.271 OA
HETATM    5  O   UNK N   1      21.262  10.240   3.839  0.00  0.00    -0.271 OA
HETATM    6  O   UNK N   1      27.754   8.161   2.049  0.00  0.00    -0.271 OA
HETATM    7  O   UNK N   1      22.888  13.135   7.079  0.00  0.00    -0.271 OA
HETATM    8  O   UNK N   1      30.863   8.975   0.858  0.00  0.00    -0.271 OA
HETATM    9  O   UNK N   1      24.930  14.890   2.362  0.00  0.00    -0.271 OA
HETATM   10  O   UNK N   1      27.220  15.909   6.880  0.00  0.00    -0.271 OA
HETATM   11  O   UNK N   1      29.289  15.246   2.517  0.00  0.00    -0.271 OA
HETATM   12  O   UNK N   1      33.086   8.529  -1.817  0.00  0.00    -0.271 OA
HETATM   13  O   UNK N   1      34.487  12.256   1.211  0.00  0.00    -0.271 OA
HETATM   14  N   UNK N   1      23.443   9.010   2.499  0.00  0.00    -0.346 N 
HETATM   15  N   UNK N   1      21.522  11.425   1.955  0.00  0.00    -0.346 N 
HETATM   16  N   UNK N   1      26.459   9.578   4.021  0.00  0.00    -0.344 N 
HETATM   17  N   UNK N   1      21.574  12.458   5.417  0.00  0.00    -0.346 N 
HETATM   18  N   UNK N   1      28.052   9.890   0.652  0.00  0.00    -0.346 N 
HETATM   19  N   UNK N   1      23.491  14.357   3.985  0.00  0.00    -0.346 N 
HETATM   20  N   UNK N   1      25.551  15.973   5.419  0.00  0.00    -0.346 N 
HETATM   21  N   UNK N   1      28.100  16.681   3.723  0.00  0.00    -0.346 N 
HETATM   22  N   UNK N   1      31.012  10.224  -0.999  0.00  0.00    -0.344 N 
HETATM   23  N   UNK N   1      34.300   9.090  -0.041  0.00  0.00    -0.344 N 
HETATM   24  N   UNK N   1      32.850  10.969   2.050  0.00  0.00    -0.344 N 
HETATM   25  C   UNK N   1      24.718   8.365   2.721  0.00  0.00     0.176 C 
HETATM   26  C   UNK N   1      21.849  10.316   1.084  0.00  0.00     0.181 C 
HETATM   27  C   UNK N   1      23.194   9.694   1.350  0.00  0.00     0.241 C 
HETATM   28  C   UNK N   1      26.958  10.262   2.839  0.00  0.00     0.205 C 
HETATM   29  C   UNK N   1      25.366   8.774   4.015  0.00  0.00     0.241 C 
HETATM   30  C   UNK N   1      21.076  12.584   4.066  0.00  0.00     0.180 C 
HETATM   31  C   UNK N   1      21.266  11.326   3.279  0.00  0.00     0.241 C 
HETATM   32  C   UNK N   1      22.837  14.621   5.253  0.00  0.00     0.180 C 
HETATM   33  C   UNK N   1      27.590   9.347   1.807  0.00  0.00     0.243 C 
HETATM   34  C   UNK N   1      28.853   9.233  -0.362  0.00  0.00     0.180 C 
HETATM   35  C   UNK N   1      27.694  17.234   4.995  0.00  0.00     0.176 C 
HETATM   36  C   UNK N   1      22.448  13.345   5.961  0.00  0.00     0.241 C 
HETATM   37  C   UNK N   1      24.954  16.392   4.171  0.00  0.00     0.185 C 
HETATM   38  C   UNK N   1      30.320   9.446  -0.131  0.00  0.00     0.241 C 
HETATM   39  C   UNK N   1      24.456  15.165   3.453  0.00  0.00     0.241 C 
HETATM   40  C   UNK N   1      26.803  16.322   5.811  0.00  0.00     0.241 C 
HETATM   41  C   UNK N   1      32.418  10.572  -0.863  0.00  0.00     0.205 C 
HETATM   42  C   UNK N   1      28.897  15.591   3.618  0.00  0.00     0.241 C 
HETATM   43  C   UNK N   1      29.312  14.827   4.850  0.00  0.00     0.186 C 
HETATM   44  C   UNK N   1      33.285   9.335  -0.921  0.00  0.00     0.243 C 
HETATM   45  C   UNK N   1      34.833   9.914   1.042  0.00  0.00     0.200 C 
HETATM   46  C   UNK N   1      28.702  13.428   4.951  0.00  0.00     0.120 C 
HETATM   47  C   UNK N   1      34.041  11.136   1.425  0.00  0.00     0.243 C 
HETATM   48  C   UNK N   1      31.974  12.028   2.503  0.00  0.00     0.192 C 
HETATM   49  C   UNK N   1      30.870  12.295   1.503  0.00  0.00     0.122 C 
HETATM   50  H   UNK N   1      22.744   8.953   3.190  0.00  0.00     0.163 HD
HETATM   51  H   UNK N   1      21.483  12.322   1.551  0.00  0.00     0.163 HD
HETATM   52  H   UNK N   1      26.940   9.705   4.871  0.00  0.00     0.163 HD
HETATM   53  H   UNK N   1      21.269  11.699   5.964  0.00  0.00     0.163 HD
HETATM   54  H   UNK N   1      27.818  10.832   0.484  0.00  0.00     0.163 HD
HETATM   55  H   UNK N   1      23.224  13.554   3.482  0.00  0.00     0.163 HD
HETATM   56  H   UNK N   1      25.018  15.403   6.019  0.00  0.00     0.163 HD
HETATM   57  H   UNK N   1      27.784  17.116   2.898  0.00  0.00     0.163 HD
HETATM   58  H   UNK N   1      30.528  10.581  -1.779  0.00  0.00     0.163 HD
HETATM   59  H   UNK N   1      34.743   8.219  -0.153  0.00  0.00     0.163 HD
HETATM   60  H   UNK N   1      32.554  10.044   2.210  0.00  0.00     0.163 HD
ENDROOT
BRANCH  43  61
HETATM   61  N   UNK N   1      30.729  14.906   5.152  0.00  0.00    -0.346 N 
HETATM   62  C   UNK N   1      31.181  15.652   6.197  0.00  0.00     0.236 C 
HETATM   63  O   UNK N   1      30.396  16.276   6.894  0.00  0.00    -0.272 OA
HETATM   64  H   UNK N   1      31.373  14.415   4.592  0.00  0.00     0.163 HD
BRANCH  62  65
HETATM   65  C   UNK N   1      32.634  15.669   6.569  0.00  0.00     0.225 C 
BRANCH  65  66
HETATM   66  N   UNK N   1      33.159  17.002   6.771  0.00  0.00    -0.351 N 
HETATM   67  C   UNK N   1      33.899  17.393   7.841  0.00  0.00     0.239 C 
HETATM   68  O   UNK N   1      34.291  18.550   7.893  0.00  0.00    -0.271 OA
HETATM   69  H   UNK N   1      32.965  17.676   6.080  0.00  0.00     0.163 HD
BRANCH  67  70
HETATM   70  C   UNK N   1      34.211  16.452   8.981  0.00  0.00     0.163 C 
HETATM   71  C   UNK N   1      35.279  15.455   8.573  0.00  0.00     0.041 C 
BRANCH  70  72
HETATM   72  N   UNK N   1      34.665  17.180  10.157  0.00  0.00    -0.419 N 
HETATM   73  H   UNK N   1      34.678  17.560  11.103  0.00  0.00     0.150 HD
HETATM   74  H   UNK N   1      35.544  17.556   9.802  0.00  0.00     0.150 HD
ENDBRANCH  70  72
ENDBRANCH  67  70
ENDBRANCH  65  66
ENDBRANCH  62  65
ENDBRANCH  43  61
BRANCH  35  75
HETATM   75  C   UNK N   1      27.101  18.610   4.794  0.00  0.00     0.035 C 
BRANCH  75  76
HETATM   76  C   UNK N   1      27.970  19.633   5.497  0.00  0.00     0.004 C 
BRANCH  76  77
HETATM   77  C   UNK N   1      27.496  19.817   6.932  0.00  0.00     0.019 C 
BRANCH  77  78
HETATM   78  C   UNK N   1      28.397  19.085   7.917  0.00  0.00     0.111 C 
BRANCH  78  79
HETATM   79  N   UNK N   1      27.594  18.389   8.907  0.00  0.00    -0.430 N 
HETATM   80  H   UNK N   1      27.007  18.480   9.736  0.00  0.00     0.149 HD
HETATM   81  H   UNK N   1      27.632  17.396   8.676  0.00  0.00     0.149 HD
ENDBRANCH  78  79
ENDBRANCH  77  78
ENDBRANCH  76  77
ENDBRANCH  75  76
ENDBRANCH  35  75
BRANCH  48  82
HETATM   82  C   UNK N   1      32.654  13.276   2.977  0.00  0.00     0.164 C 
HETATM   83  O   UNK N   1      33.328  13.251   3.993  0.00  0.00    -0.648 OA
BRANCH  82  84
HETATM   84  O   UNK N   1      32.509  14.428   2.293  0.00  0.00    -0.775 OA
HETATM   85  H   UNK N   1      31.859  15.057   2.050  0.00  0.00     0.167 HD
ENDBRANCH  82  84
ENDBRANCH  48  82
BRANCH  37  86
HETATM   86  C   UNK N   1      23.754  17.321   4.390  0.00  0.00     0.137 C 
BRANCH  86  87
HETATM   87  C   UNK N   1      23.769  18.645   3.692  0.00  0.00     0.217 C 
HETATM   88  O   UNK N   1      24.773  18.999   3.099  0.00  0.00    -0.274 OA
HETATM   89  N   UNK N   1      22.647  19.387   3.605  0.00  0.00    -0.370 N 
HETATM   90  H   UNK N   1      21.790  19.835   3.417  0.00  0.00     0.159 HD
HETATM   91  H   UNK N   1      22.872  19.963   4.371  0.00  0.00     0.159 HD
ENDBRANCH  86  87
ENDBRANCH  37  86
BRANCH  45  92
HETATM   92  C   UNK N   1      36.313  10.202   0.797  0.00  0.00     0.199 C 
BRANCH  92  93
HETATM   93  O   UNK N   1      36.495  10.901  -0.396  0.00  0.00    -0.398 OA
HETATM   94  H   UNK N   1      36.285  11.522  -1.111  0.00  0.00     0.209 HD
ENDBRANCH  92  93
ENDBRANCH  45  92
BRANCH  32  95
HETATM   95  C   UNK N   1      21.587  15.476   5.022  0.00  0.00     0.073 C 
BRANCH  95  96
HETATM   96  C   UNK N   1      20.819  15.830   6.261  0.00  0.00    -0.056 A 
HETATM   97  C   UNK N   1      21.525  15.999   7.454  0.00  0.00     0.007 A 
HETATM   98  C   UNK N   1      20.852  16.336   8.631  0.00  0.00     0.001 A 
HETATM   99  C   UNK N   1      19.463  16.500   8.620  0.00  0.00     0.000 A 
HETATM  100  C   UNK N   1      18.748  16.324   7.432  0.00  0.00     0.001 A 
HETATM  101  C   UNK N   1      19.422  15.991   6.255  0.00  0.00     0.007 A 
ENDBRANCH  95  96
ENDBRANCH  32  95
BRANCH  41 102
HETATM  102  C   UNK N   1      32.795  11.558  -1.969  0.00  0.00     0.146 C 
HETATM  103  C   UNK N   1      31.755  11.539  -3.077  0.00  0.00     0.042 C 
BRANCH 102 104
HETATM  104  O   UNK N   1      32.867  12.853  -1.455  0.00  0.00    -0.393 OA
HETATM  105  H   UNK N   1      32.162  13.212  -0.893  0.00  0.00     0.210 HD
ENDBRANCH 102 104
ENDBRANCH  41 102
BRANCH  30 106
HETATM  106  C   UNK N   1      19.689  13.220   3.964  0.00  0.00     0.073 C 
BRANCH 106 107
HETATM  107  C   UNK N   1      19.323  13.653   2.583  0.00  0.00    -0.056 A 
HETATM  108  C   UNK N   1      18.444  12.891   1.807  0.00  0.00     0.007 A 
HETATM  109  C   UNK N   1      18.125  13.302   0.510  0.00  0.00     0.001 A 
HETATM  110  C   UNK N   1      18.687  14.472  -0.012  0.00  0.00     0.000 A 
HETATM  111  C   UNK N   1      19.571  15.229   0.764  0.00  0.00     0.001 A 
HETATM  112  C   UNK N   1      19.892  14.818   2.059  0.00  0.00     0.007 A 
ENDBRANCH 106 107
ENDBRANCH  30 106
BRANCH  34 113
HETATM  113  C   UNK N   1      28.344   7.865  -0.858  0.00  0.00     0.073 C 
BRANCH 113 114
HETATM  114  C   UNK N   1      27.250   7.897  -1.882  0.00  0.00    -0.056 A 
HETATM  115  C   UNK N   1      25.913   7.709  -1.505  0.00  0.00     0.007 A 
HETATM  116  C   UNK N   1      24.903   7.717  -2.470  0.00  0.00     0.001 A 
HETATM  117  C   UNK N   1      25.227   7.895  -3.818  0.00  0.00     0.000 A 
HETATM  118  C   UNK N   1      26.561   8.059  -4.200  0.00  0.00     0.001 A 
HETATM  119  C   UNK N   1      27.571   8.055  -3.234  0.00  0.00     0.007 A 
ENDBRANCH 113 114
ENDBRANCH  34 113
BRANCH  26 120
HETATM  120  C   UNK N   1      20.677   9.389   0.720  0.00  0.00     0.075 C 
BRANCH 120 121
HETATM  121  C   UNK N   1      20.476   9.036  -0.726  0.00  0.00    -0.028 A 
HETATM  122  C   UNK N   1      19.367   9.297  -1.487  0.00  0.00    -0.002 A 
HETATM  123  C   UNK N   1      19.654   8.886  -2.759  0.00  0.00     0.042 A 
HETATM  124  C   UNK N   1      18.148   9.891  -1.166  0.00  0.00     0.014 A 
HETATM  125  N   UNK N   1      20.897   8.382  -2.835  0.00  0.00    -0.365 N 
HETATM  126  C   UNK N   1      18.748   9.031  -3.804  0.00  0.00     0.030 A 
HETATM  127  C   UNK N   1      21.417   8.486  -1.589  0.00  0.00     0.096 A 
HETATM  128  H   UNK N   1      21.338   8.013  -3.634  0.00  0.00     0.165 HD
HETATM  129  C   UNK N   1      17.505   9.623  -3.515  0.00  0.00     0.002 A 
HETATM  130  C   UNK N   1      17.207  10.053  -2.201  0.00  0.00     0.001 A 
ENDBRANCH 120 121
ENDBRANCH  26 120
BRANCH  28 131
HETATM  131  C   UNK N   1      25.889  11.224   2.307  0.00  0.00     0.146 C 
HETATM  132  C   UNK N   1      25.258  11.940   3.482  0.00  0.00     0.042 C 
BRANCH 131 133
HETATM  133  O   UNK N   1      26.423  12.174   1.437  0.00  0.00    -0.393 OA
HETATM  134  H   UNK N   1      27.102  12.397   0.781  0.00  0.00     0.210 HD
ENDBRANCH 131 133
ENDBRANCH  28 131
BRANCH  25 135
HETATM  135  C   UNK N   1      24.580   6.851   2.656  0.00  0.00     0.035 C 
BRANCH 135 136
HETATM  136  C   UNK N   1      23.114   6.461   2.670  0.00  0.00     0.004 C 
BRANCH 136 137
HETATM  137  C   UNK N   1      22.755   5.753   3.963  0.00  0.00     0.019 C 
BRANCH 137 138
HETATM  138  C   UNK N   1      21.812   6.611   4.784  0.00  0.00     0.111 C 
BRANCH 138 139
HETATM  139  N   UNK N   1      20.822   7.229   3.922  0.00  0.00    -0.430 N 
HETATM  140  H   UNK N   1      20.474   8.168   4.120  0.00  0.00     0.149 HD
HETATM  141  H   UNK N   1      20.470   6.721   3.111  0.00  0.00     0.149 HD
ENDBRANCH 138 139
ENDBRANCH 137 138
ENDBRANCH 136 137
ENDBRANCH 135 136
ENDBRANCH  25 135
TORSDOF 33
ENDMDL
MODEL 5
REMARK VINA RESULT:      -6.5      5.462     13.667
REMARK WARNING: 32 MAX_TORS EXCEEDED!!!
REMARK  33 active torsions:
REMARK  status: ('A' for Active; 'I' for Inactive)
REMARK    1  A    between atoms: O_5  and  C_53 
REMARK    2  A    between atoms: O_12  and  C_81 
REMARK    3  A    between atoms: O_16  and  C_104 
REMARK    4  A    between atoms: O_19  and  C_112 
REMARK    5  A    between atoms: N_32  and  C_60 
REMARK    6  A    between atoms: N_34  and  C_86 
REMARK       I    between atoms: N_34  and  C_109 
REMARK    7  A    between atoms: N_35  and  C_87 
REMARK       I    between atoms: N_36  and  C_92 
REMARK    8  A    between atoms: N_38  and  C_111 
REMARK       I    between atoms: N_38  and  C_113 
REMARK    9  A    between atoms: N_39  and  C_114 
REMARK   10  A    between atoms: C_40  and  C_42 
REMARK   11  A    between atoms: C_41  and  C_43 
REMARK   12  A    between atoms: C_42  and  C_44 
REMARK   13  A    between atoms: C_43  and  C_46 
REMARK   14  A    between atoms: C_44  and  C_50 
REMARK   15  A    between atoms: C_47  and  C_53 
REMARK   16  A    between atoms: C_49  and  C_54 
REMARK   17  A    between atoms: C_50  and  C_60 
REMARK   18  A    between atoms: C_54  and  C_67 
REMARK   19  A    between atoms: C_55  and  C_64 
REMARK   20  A    between atoms: C_59  and  C_66 
REMARK   21  A    between atoms: C_61  and  C_63 
REMARK   22  A    between atoms: C_63  and  C_69 
REMARK   23  A    between atoms: C_64  and  C_78 
REMARK   24  A    between atoms: C_65  and  C_77 
REMARK   25  A    between atoms: C_66  and  C_80 
REMARK   26  A    between atoms: C_69  and  C_76 
REMARK   27  A    between atoms: C_75  and  C_81 
REMARK   28  A    between atoms: C_76  and  C_87 
REMARK   29  A    between atoms: C_77  and  C_92 
REMARK   30  A    between atoms: C_95  and  C_104 
REMARK   31  A    between atoms: C_108  and  C_112 
REMARK   32  A    between atoms: C_109  and  C_111 
REMARK   33  A    between atoms: C_113  and  C_114 
ROOT
HETATM    1  S   UNK N   1      30.839   7.534   3.921  0.00  0.00    -0.095 SA
HETATM    2  S   UNK N   1      29.834   8.061   5.741  0.00  0.00    -0.095 SA
HETATM    3  O   UNK N   1      32.982   6.952  10.762  0.00  0.00    -0.271 OA
HETATM    4  O   UNK N   1      35.530   5.174   7.008  0.00  0.00    -0.271 OA
HETATM    5  O   UNK N   1      37.147   7.957   9.832  0.00  0.00    -0.271 OA
HETATM    6  O   UNK N   1      31.499   4.368   7.620  0.00  0.00    -0.271 OA
HETATM    7  O   UNK N   1      37.522  10.206   5.792  0.00  0.00    -0.271 OA
HETATM    8  O   UNK N   1      28.272   4.411   6.465  0.00  0.00    -0.271 OA
HETATM    9  O   UNK N   1      32.668  11.576   7.806  0.00  0.00    -0.271 OA
HETATM   10  O   UNK N   1      33.687  11.791   2.746  0.00  0.00    -0.271 OA
HETATM   11  O   UNK N   1      29.450  10.803   4.943  0.00  0.00    -0.271 OA
HETATM   12  O   UNK N   1      24.968   3.523   7.234  0.00  0.00    -0.271 OA
HETATM   13  O   UNK N   1      25.234   6.643   3.333  0.00  0.00    -0.271 OA
HETATM   14  N   UNK N   1      34.864   6.268   9.758  0.00  0.00    -0.346 N 
HETATM   15  N   UNK N   1      35.540   9.112  10.884  0.00  0.00    -0.346 N 
HETATM   16  N   UNK N   1      33.493   5.986   6.631  0.00  0.00    -0.344 N 
HETATM   17  N   UNK N   1      37.551   9.955   8.002  0.00  0.00    -0.346 N 
HETATM   18  N   UNK N   1      30.084   6.019   8.171  0.00  0.00    -0.346 N 
HETATM   19  N   UNK N   1      34.876  11.361   7.552  0.00  0.00    -0.346 N 
HETATM   20  N   UNK N   1      33.984  12.338   4.876  0.00  0.00    -0.346 N 
HETATM   21  N   UNK N   1      30.869  12.442   4.472  0.00  0.00    -0.346 N 
HETATM   22  N   UNK N   1      26.755   5.656   7.552  0.00  0.00    -0.344 N 
HETATM   23  N   UNK N   1      25.107   3.684   5.021  0.00  0.00    -0.344 N 
HETATM   24  N   UNK N   1      27.214   5.782   3.946  0.00  0.00    -0.344 N 
HETATM   25  C   UNK N   1      34.164   5.311   8.930  0.00  0.00     0.176 C 
HETATM   26  C   UNK N   1      34.924   7.994  11.565  0.00  0.00     0.181 C 
HETATM   27  C   UNK N   1      34.196   7.040  10.657  0.00  0.00     0.241 C 
HETATM   28  C   UNK N   1      32.244   6.568   7.097  0.00  0.00     0.205 C 
HETATM   29  C   UNK N   1      34.442   5.488   7.463  0.00  0.00     0.241 C 
HETATM   30  C   UNK N   1      37.033  10.260   9.317  0.00  0.00     0.180 C 
HETATM   31  C   UNK N   1      36.599   9.028  10.046  0.00  0.00     0.241 C 
HETATM   32  C   UNK N   1      36.135  11.731   6.932  0.00  0.00     0.180 C 
HETATM   33  C   UNK N   1      31.264   5.565   7.676  0.00  0.00     0.243 C 
HETATM   34  C   UNK N   1      28.947   5.223   8.582  0.00  0.00     0.180 C 
HETATM   35  C   UNK N   1      31.896  13.027   3.640  0.00  0.00     0.176 C 
HETATM   36  C   UNK N   1      37.097  10.568   6.877  0.00  0.00     0.241 C 
HETATM   37  C   UNK N   1      33.557  12.946   6.116  0.00  0.00     0.185 C 
HETATM   38  C   UNK N   1      27.962   5.045   7.463  0.00  0.00     0.241 C 
HETATM   39  C   UNK N   1      33.676  11.917   7.209  0.00  0.00     0.241 C 
HETATM   40  C   UNK N   1      33.242  12.340   3.740  0.00  0.00     0.241 C 
HETATM   41  C   UNK N   1      25.733   5.628   6.517  0.00  0.00     0.205 C 
HETATM   42  C   UNK N   1      30.392  11.191   4.274  0.00  0.00     0.241 C 
HETATM   43  C   UNK N   1      31.003  10.296   3.225  0.00  0.00     0.186 C 
HETATM   44  C   UNK N   1      25.258   4.214   6.270  0.00  0.00     0.243 C 
HETATM   45  C   UNK N   1      25.265   4.299   3.705  0.00  0.00     0.200 C 
HETATM   46  C   UNK N   1      31.761   9.095   3.795  0.00  0.00     0.120 C 
HETATM   47  C   UNK N   1      25.895   5.666   3.661  0.00  0.00     0.243 C 
HETATM   48  C   UNK N   1      27.980   7.010   3.931  0.00  0.00     0.192 C 
HETATM   49  C   UNK N   1      28.118   7.590   5.323  0.00  0.00     0.122 C 
HETATM   50  H   UNK N   1      35.841   6.362   9.669  0.00  0.00     0.163 HD
HETATM   51  H   UNK N   1      35.157  10.006  11.042  0.00  0.00     0.163 HD
HETATM   52  H   UNK N   1      33.657   5.951   5.661  0.00  0.00     0.163 HD
HETATM   53  H   UNK N   1      38.259   9.277   7.918  0.00  0.00     0.163 HD
HETATM   54  H   UNK N   1      29.992   6.996   8.259  0.00  0.00     0.163 HD
HETATM   55  H   UNK N   1      34.888  10.674   8.257  0.00  0.00     0.163 HD
HETATM   56  H   UNK N   1      34.864  11.898   4.855  0.00  0.00     0.163 HD
HETATM   57  H   UNK N   1      30.501  12.977   5.212  0.00  0.00     0.163 HD
HETATM   58  H   UNK N   1      26.555   6.156   8.376  0.00  0.00     0.163 HD
HETATM   59  H   UNK N   1      24.851   2.733   5.004  0.00  0.00     0.163 HD
HETATM   60  H   UNK N   1      27.696   4.957   4.185  0.00  0.00     0.163 HD
ENDROOT
BRANCH  43  61
HETATM   61  N   UNK N   1      30.124   9.999   2.109  0.00  0.00    -0.346 N 
HETATM   62  C   UNK N   1      30.248  10.661   0.926  0.00  0.00     0.236 C 
HETATM   63  O   UNK N   1      31.099  11.526   0.790  0.00  0.00    -0.272 OA
HETATM   64  H   UNK N   1      29.428   9.310   2.209  0.00  0.00     0.163 HD
BRANCH  62  65
HETATM   65  C   UNK N   1      29.403  10.300  -0.260  0.00  0.00     0.225 C 
BRANCH  65  66
HETATM   66  N   UNK N   1      29.958   9.227  -1.055  0.00  0.00    -0.351 N 
HETATM   67  C   UNK N   1      30.421   9.360  -2.325  0.00  0.00     0.239 C 
HETATM   68  O   UNK N   1      30.874   8.376  -2.891  0.00  0.00    -0.271 OA
HETATM   69  H   UNK N   1      30.003   8.334  -0.644  0.00  0.00     0.163 HD
BRANCH  67  70
HETATM   70  C   UNK N   1      30.353  10.676  -3.065  0.00  0.00     0.163 C 
HETATM   71  C   UNK N   1      31.745  11.228  -3.303  0.00  0.00     0.041 C 
BRANCH  70  72
HETATM   72  N   UNK N   1      29.676  10.527  -4.344  0.00  0.00    -0.419 N 
HETATM   73  H   UNK N   1      29.494  10.588  -5.346  0.00  0.00     0.150 HD
HETATM   74  H   UNK N   1      28.828  10.049  -4.040  0.00  0.00     0.150 HD
ENDBRANCH  70  72
ENDBRANCH  67  70
ENDBRANCH  65  66
ENDBRANCH  62  65
ENDBRANCH  43  61
BRANCH  35  75
HETATM   75  C   UNK N   1      31.977  14.516   3.890  0.00  0.00     0.035 C 
BRANCH  75  76
HETATM   76  C   UNK N   1      32.951  15.134   2.908  0.00  0.00     0.004 C 
BRANCH  76  77
HETATM   77  C   UNK N   1      32.982  16.645   3.090  0.00  0.00     0.019 C 
BRANCH  77  78
HETATM   78  C   UNK N   1      32.326  17.065   4.398  0.00  0.00     0.111 C 
BRANCH  78  79
HETATM   79  N   UNK N   1      33.316  17.637   5.293  0.00  0.00    -0.430 N 
HETATM   80  H   UNK N   1      33.931  18.430   5.480  0.00  0.00     0.149 HD
HETATM   81  H   UNK N   1      33.453  16.969   6.052  0.00  0.00     0.149 HD
ENDBRANCH  78  79
ENDBRANCH  77  78
ENDBRANCH  76  77
ENDBRANCH  75  76
ENDBRANCH  35  75
BRANCH  48  82
HETATM   82  C   UNK N   1      27.565   8.023   2.909  0.00  0.00     0.164 C 
HETATM   83  O   UNK N   1      27.897   7.880   1.744  0.00  0.00    -0.648 OA
BRANCH  82  84
HETATM   84  O   UNK N   1      26.841   9.098   3.276  0.00  0.00    -0.775 OA
HETATM   85  H   UNK N   1      26.095   9.601   3.014  0.00  0.00     0.167 HD
ENDBRANCH  82  84
ENDBRANCH  48  82
BRANCH  37  86
HETATM   86  C   UNK N   1      34.436  14.141   6.504  0.00  0.00     0.137 C 
BRANCH  86  87
HETATM   87  C   UNK N   1      33.882  15.114   7.497  0.00  0.00     0.217 C 
HETATM   88  O   UNK N   1      32.695  15.388   7.468  0.00  0.00    -0.274 OA
HETATM   89  N   UNK N   1      34.652  15.589   8.496  0.00  0.00    -0.370 N 
HETATM   90  H   UNK N   1      35.179  15.799   9.301  0.00  0.00     0.159 HD
HETATM   91  H   UNK N   1      34.877  16.427   8.032  0.00  0.00     0.159 HD
ENDBRANCH  86  87
ENDBRANCH  37  86
BRANCH  45  92
HETATM   92  C   UNK N   1      23.952   4.211   2.928  0.00  0.00     0.199 C 
BRANCH  92  93
HETATM   93  O   UNK N   1      22.920   4.846   3.618  0.00  0.00    -0.398 OA
HETATM   94  H   UNK N   1      22.013   5.137   3.804  0.00  0.00     0.209 HD
ENDBRANCH  92  93
ENDBRANCH  45  92
BRANCH  32  95
HETATM   95  C   UNK N   1      36.775  12.884   7.710  0.00  0.00     0.073 C 
BRANCH  95  96
HETATM   96  C   UNK N   1      37.982  13.497   7.063  0.00  0.00    -0.056 A 
HETATM   97  C   UNK N   1      37.848  14.032   5.780  0.00  0.00     0.007 A 
HETATM   98  C   UNK N   1      38.944  14.619   5.142  0.00  0.00     0.001 A 
HETATM   99  C   UNK N   1      40.184  14.667   5.785  0.00  0.00     0.000 A 
HETATM  100  C   UNK N   1      40.329  14.125   7.065  0.00  0.00     0.001 A 
HETATM  101  C   UNK N   1      39.232  13.542   7.704  0.00  0.00     0.007 A 
ENDBRANCH  95  96
ENDBRANCH  32  95
BRANCH  41 102
HETATM  102  C   UNK N   1      24.573   6.531   6.940  0.00  0.00     0.146 C 
HETATM  103  C   UNK N   1      24.821   7.962   6.493  0.00  0.00     0.042 C 
BRANCH 102 104
HETATM  104  O   UNK N   1      23.383   6.088   6.362  0.00  0.00    -0.393 OA
HETATM  105  H   UNK N   1      22.617   5.849   6.908  0.00  0.00     0.210 HD
ENDBRANCH 102 104
ENDBRANCH  41 102
BRANCH  30 106
HETATM  106  C   UNK N   1      37.896  11.231  10.123  0.00  0.00     0.073 C 
BRANCH 106 107
HETATM  107  C   UNK N   1      37.130  12.035  11.120  0.00  0.00    -0.056 A 
HETATM  108  C   UNK N   1      35.938  12.671  10.758  0.00  0.00     0.007 A 
HETATM  109  C   UNK N   1      35.242  13.433  11.699  0.00  0.00     0.001 A 
HETATM  110  C   UNK N   1      35.738  13.563  13.001  0.00  0.00     0.000 A 
HETATM  111  C   UNK N   1      36.934  12.933  13.358  0.00  0.00     0.001 A 
HETATM  112  C   UNK N   1      37.632  12.172  12.418  0.00  0.00     0.007 A 
ENDBRANCH 106 107
ENDBRANCH  30 106
BRANCH  34 113
HETATM  113  C   UNK N   1      29.240   4.051   9.541  0.00  0.00     0.073 C 
BRANCH 113 114
HETATM  114  C   UNK N   1      28.240   3.823  10.633  0.00  0.00    -0.056 A 
HETATM  115  C   UNK N   1      26.908   3.513  10.329  0.00  0.00     0.007 A 
HETATM  116  C   UNK N   1      25.977   3.326  11.355  0.00  0.00     0.001 A 
HETATM  117  C   UNK N   1      26.372   3.466  12.688  0.00  0.00     0.000 A 
HETATM  118  C   UNK N   1      27.694   3.799  12.995  0.00  0.00     0.001 A 
HETATM  119  C   UNK N   1      28.625   3.982  11.969  0.00  0.00     0.007 A 
ENDBRANCH 113 114
ENDBRANCH  34 113
BRANCH  26 120
HETATM  120  C   UNK N   1      35.724   7.412  12.743  0.00  0.00     0.075 C 
BRANCH 120 121
HETATM  121  C   UNK N   1      36.235   8.360  13.789  0.00  0.00    -0.028 A 
HETATM  122  C   UNK N   1      35.552   9.407  14.351  0.00  0.00    -0.002 A 
HETATM  123  C   UNK N   1      36.363   9.937  15.316  0.00  0.00     0.042 A 
HETATM  124  C   UNK N   1      34.275   9.909  14.111  0.00  0.00     0.014 A 
HETATM  125  N   UNK N   1      37.525   9.268  15.391  0.00  0.00    -0.365 N 
HETATM  126  C   UNK N   1      35.966  11.008  16.108  0.00  0.00     0.030 A 
HETATM  127  C   UNK N   1      37.448   8.282  14.464  0.00  0.00     0.096 A 
HETATM  128  H   UNK N   1      38.279   9.455  15.996  0.00  0.00     0.165 HD
HETATM  129  C   UNK N   1      34.683  11.542  15.890  0.00  0.00     0.002 A 
HETATM  130  C   UNK N   1      33.840  10.994  14.896  0.00  0.00     0.001 A 
ENDBRANCH 120 121
ENDBRANCH  26 120
BRANCH  28 131
HETATM  131  C   UNK N   1      32.538   7.791   7.973  0.00  0.00     0.146 C 
HETATM  132  C   UNK N   1      33.641   8.598   7.320  0.00  0.00     0.042 C 
BRANCH 131 133
HETATM  133  O   UNK N   1      31.418   8.608   8.128  0.00  0.00    -0.393 OA
HETATM  134  H   UNK N   1      30.699   8.914   8.703  0.00  0.00     0.210 HD
ENDBRANCH 131 133
ENDBRANCH  28 131
BRANCH  25 135
HETATM  135  C   UNK N   1      34.483   3.886   9.359  0.00  0.00     0.035 C 
BRANCH 135 136
HETATM  136  C   UNK N   1      33.509   3.435  10.431  0.00  0.00     0.004 C 
BRANCH 136 137
HETATM  137  C   UNK N   1      34.194   3.345  11.781  0.00  0.00     0.019 C 
BRANCH 137 138
HETATM  138  C   UNK N   1      33.386   4.086  12.829  0.00  0.00     0.111 C 
BRANCH 138 139
HETATM  139  N   UNK N   1      32.113   4.504  12.271  0.00  0.00    -0.430 N 
HETATM  140  H   UNK N   1      32.046   5.351  11.705  0.00  0.00     0.149 HD
HETATM  141  H   UNK N   1      31.276   3.947  12.446  0.00  0.00     0.149 HD
ENDBRANCH 138 139
ENDBRANCH 137 138
ENDBRANCH 136 137
ENDBRANCH 135 136
ENDBRANCH  25 135
TORSDOF 33
ENDMDL
MODEL 6
REMARK VINA RESULT:      -6.5      2.788     10.603
REMARK WARNING: 32 MAX_TORS EXCEEDED!!!
REMARK  33 active torsions:
REMARK  status: ('A' for Active; 'I' for Inactive)
REMARK    1  A    between atoms: O_5  and  C_53 
REMARK    2  A    between atoms: O_12  and  C_81 
REMARK    3  A    between atoms: O_16  and  C_104 
REMARK    4  A    between atoms: O_19  and  C_112 
REMARK    5  A    between atoms: N_32  and  C_60 
REMARK    6  A    between atoms: N_34  and  C_86 
REMARK       I    between atoms: N_34  and  C_109 
REMARK    7  A    between atoms: N_35  and  C_87 
REMARK       I    between atoms: N_36  and  C_92 
REMARK    8  A    between atoms: N_38  and  C_111 
REMARK       I    between atoms: N_38  and  C_113 
REMARK    9  A    between atoms: N_39  and  C_114 
REMARK   10  A    between atoms: C_40  and  C_42 
REMARK   11  A    between atoms: C_41  and  C_43 
REMARK   12  A    between atoms: C_42  and  C_44 
REMARK   13  A    between atoms: C_43  and  C_46 
REMARK   14  A    between atoms: C_44  and  C_50 
REMARK   15  A    between atoms: C_47  and  C_53 
REMARK   16  A    between atoms: C_49  and  C_54 
REMARK   17  A    between atoms: C_50  and  C_60 
REMARK   18  A    between atoms: C_54  and  C_67 
REMARK   19  A    between atoms: C_55  and  C_64 
REMARK   20  A    between atoms: C_59  and  C_66 
REMARK   21  A    between atoms: C_61  and  C_63 
REMARK   22  A    between atoms: C_63  and  C_69 
REMARK   23  A    between atoms: C_64  and  C_78 
REMARK   24  A    between atoms: C_65  and  C_77 
REMARK   25  A    between atoms: C_66  and  C_80 
REMARK   26  A    between atoms: C_69  and  C_76 
REMARK   27  A    between atoms: C_75  and  C_81 
REMARK   28  A    between atoms: C_76  and  C_87 
REMARK   29  A    between atoms: C_77  and  C_92 
REMARK   30  A    between atoms: C_95  and  C_104 
REMARK   31  A    between atoms: C_108  and  C_112 
REMARK   32  A    between atoms: C_109  and  C_111 
REMARK   33  A    between atoms: C_113  and  C_114 
ROOT
HETATM    1  S   UNK N   1      26.607  14.476   2.864  0.00  0.00    -0.095 SA
HETATM    2  S   UNK N   1      26.751  13.428   4.730  0.00  0.00    -0.095 SA
HETATM    3  O   UNK N   1      28.872   7.802   4.296  0.00  0.00    -0.271 OA
HETATM    4  O   UNK N   1      28.348   9.526  -0.231  0.00  0.00    -0.271 OA
HETATM    5  O   UNK N   1      32.029   7.923   1.257  0.00  0.00    -0.271 OA
HETATM    6  O   UNK N   1      25.360   9.728   2.652  0.00  0.00    -0.271 OA
HETATM    7  O   UNK N   1      33.154  12.275   0.106  0.00  0.00    -0.271 OA
HETATM    8  O   UNK N   1      23.160  11.601   4.495  0.00  0.00    -0.271 OA
HETATM    9  O   UNK N   1      31.589  12.473   5.303  0.00  0.00    -0.271 OA
HETATM   10  O   UNK N   1      31.365  16.613   2.221  0.00  0.00    -0.271 OA
HETATM   11  O   UNK N   1      28.431  15.437   5.931  0.00  0.00    -0.271 OA
HETATM   12  O   UNK N   1      20.593  11.437   6.878  0.00  0.00    -0.271 OA
HETATM   13  O   UNK N   1      22.338  16.088   6.289  0.00  0.00    -0.271 OA
HETATM   14  N   UNK N   1      29.318   7.847   2.101  0.00  0.00    -0.346 N 
HETATM   15  N   UNK N   1      32.121   7.974   3.495  0.00  0.00    -0.346 N 
HETATM   16  N   UNK N   1      27.624  10.758   1.475  0.00  0.00    -0.344 N 
HETATM   17  N   UNK N   1      33.427  10.269   1.028  0.00  0.00    -0.346 N 
HETATM   18  N   UNK N   1      25.846  10.376   4.743  0.00  0.00    -0.346 N 
HETATM   19  N   UNK N   1      32.744  12.000   3.451  0.00  0.00    -0.346 N 
HETATM   20  N   UNK N   1      32.393  14.960   3.286  0.00  0.00    -0.346 N 
HETATM   21  N   UNK N   1      30.460  16.189   5.437  0.00  0.00    -0.346 N 
HETATM   22  N   UNK N   1      23.382  11.638   6.727  0.00  0.00    -0.344 N 
HETATM   23  N   UNK N   1      20.356  13.360   5.788  0.00  0.00    -0.344 N 
HETATM   24  N   UNK N   1      23.037  14.648   4.715  0.00  0.00    -0.344 N 
HETATM   25  C   UNK N   1      27.992   8.314   1.765  0.00  0.00     0.176 C 
HETATM   26  C   UNK N   1      31.028   7.059   3.745  0.00  0.00     0.181 C 
HETATM   27  C   UNK N   1      29.670   7.603   3.393  0.00  0.00     0.241 C 
HETATM   28  C   UNK N   1      27.385  10.957   2.896  0.00  0.00     0.205 C 
HETATM   29  C   UNK N   1      28.003   9.570   0.939  0.00  0.00     0.241 C 
HETATM   30  C   UNK N   1      33.601   9.422   2.187  0.00  0.00     0.180 C 
HETATM   31  C   UNK N   1      32.545   8.366   2.272  0.00  0.00     0.241 C 
HETATM   32  C   UNK N   1      33.680  12.356   2.400  0.00  0.00     0.180 C 
HETATM   33  C   UNK N   1      26.134  10.278   3.420  0.00  0.00     0.243 C 
HETATM   34  C   UNK N   1      24.620   9.975   5.402  0.00  0.00     0.180 C 
HETATM   35  C   UNK N   1      31.373  16.884   4.558  0.00  0.00     0.176 C 
HETATM   36  C   UNK N   1      33.383  11.624   1.113  0.00  0.00     0.241 C 
HETATM   37  C   UNK N   1      32.839  14.288   4.486  0.00  0.00     0.185 C 
HETATM   38  C   UNK N   1      23.650  11.116   5.505  0.00  0.00     0.241 C 
HETATM   39  C   UNK N   1      32.352  12.863   4.435  0.00  0.00     0.241 C 
HETATM   40  C   UNK N   1      31.706  16.130   3.288  0.00  0.00     0.241 C 
HETATM   41  C   UNK N   1      22.519  12.783   6.970  0.00  0.00     0.205 C 
HETATM   42  C   UNK N   1      29.175  15.928   5.100  0.00  0.00     0.241 C 
HETATM   43  C   UNK N   1      28.664  16.259   3.720  0.00  0.00     0.186 C 
HETATM   44  C   UNK N   1      21.103  12.491   6.530  0.00  0.00     0.243 C 
HETATM   45  C   UNK N   1      20.655  14.716   5.331  0.00  0.00     0.200 C 
HETATM   46  C   UNK N   1      28.338  15.033   2.865  0.00  0.00     0.120 C 
HETATM   47  C   UNK N   1      22.073  15.194   5.495  0.00  0.00     0.243 C 
HETATM   48  C   UNK N   1      24.440  15.003   4.726  0.00  0.00     0.192 C 
HETATM   49  C   UNK N   1      25.245  14.037   5.569  0.00  0.00     0.122 C 
HETATM   50  H   UNK N   1      29.977   7.702   1.383  0.00  0.00     0.163 HD
HETATM   51  H   UNK N   1      32.593   8.340   4.278  0.00  0.00     0.163 HD
HETATM   52  H   UNK N   1      27.505  11.526   0.871  0.00  0.00     0.163 HD
HETATM   53  H   UNK N   1      33.335   9.847   0.144  0.00  0.00     0.163 HD
HETATM   54  H   UNK N   1      26.548  10.761   5.318  0.00  0.00     0.163 HD
HETATM   55  H   UNK N   1      32.372  11.088   3.455  0.00  0.00     0.163 HD
HETATM   56  H   UNK N   1      32.601  14.545   2.419  0.00  0.00     0.163 HD
HETATM   57  H   UNK N   1      30.786  15.895   6.318  0.00  0.00     0.163 HD
HETATM   58  H   UNK N   1      23.804  11.211   7.508  0.00  0.00     0.163 HD
HETATM   59  H   UNK N   1      19.473  13.019   5.517  0.00  0.00     0.163 HD
HETATM   60  H   UNK N   1      22.758  13.946   4.083  0.00  0.00     0.163 HD
ENDROOT
BRANCH  43  61
HETATM   61  N   UNK N   1      27.669  17.315   3.690  0.00  0.00    -0.346 N 
HETATM   62  C   UNK N   1      27.969  18.570   4.125  0.00  0.00     0.236 C 
HETATM   63  O   UNK N   1      29.082  18.823   4.559  0.00  0.00    -0.272 OA
HETATM   64  H   UNK N   1      26.765  17.122   3.351  0.00  0.00     0.163 HD
BRANCH  62  65
HETATM   65  C   UNK N   1      26.975  19.689   4.017  0.00  0.00     0.225 C 
BRANCH  65  66
HETATM   66  N   UNK N   1      27.421  20.914   4.642  0.00  0.00    -0.351 N 
HETATM   67  C   UNK N   1      27.368  21.172   5.975  0.00  0.00     0.239 C 
HETATM   68  O   UNK N   1      27.784  22.247   6.382  0.00  0.00    -0.271 OA
HETATM   69  H   UNK N   1      27.790  21.615   4.056  0.00  0.00     0.163 HD
BRANCH  67  70
HETATM   70  C   UNK N   1      26.775  20.185   6.954  0.00  0.00     0.163 C 
HETATM   71  C   UNK N   1      27.869  19.382   7.633  0.00  0.00     0.041 C 
BRANCH  70  72
HETATM   72  N   UNK N   1      25.983  20.862   7.970  0.00  0.00    -0.419 N 
HETATM   73  H   UNK N   1      25.247  21.428   8.392  0.00  0.00     0.150 HD
HETATM   74  H   UNK N   1      26.507  20.601   8.805  0.00  0.00     0.150 HD
ENDBRANCH  70  72
ENDBRANCH  67  70
ENDBRANCH  65  66
ENDBRANCH  62  65
ENDBRANCH  43  61
BRANCH  35  75
HETATM   75  C   UNK N   1      32.602  17.314   5.327  0.00  0.00     0.035 C 
BRANCH  75  76
HETATM   76  C   UNK N   1      32.325  17.199   6.812  0.00  0.00     0.004 C 
BRANCH  76  77
HETATM   77  C   UNK N   1      33.471  17.817   7.601  0.00  0.00     0.019 C 
BRANCH  77  78
HETATM   78  C   UNK N   1      33.773  17.022   8.864  0.00  0.00     0.111 C 
BRANCH  78  79
HETATM   79  N   UNK N   1      34.903  17.606   9.565  0.00  0.00    -0.430 N 
HETATM   80  H   UNK N   1      35.594  18.357   9.579  0.00  0.00     0.149 HD
HETATM   81  H   UNK N   1      35.079  17.024  10.384  0.00  0.00     0.149 HD
ENDBRANCH  78  79
ENDBRANCH  77  78
ENDBRANCH  76  77
ENDBRANCH  75  76
ENDBRANCH  35  75
BRANCH  48  82
HETATM   82  C   UNK N   1      24.745  16.439   5.022  0.00  0.00     0.164 C 
HETATM   83  O   UNK N   1      25.542  16.721   5.902  0.00  0.00    -0.648 OA
BRANCH  82  84
HETATM   84  O   UNK N   1      24.130  17.418   4.331  0.00  0.00    -0.775 OA
HETATM   85  H   UNK N   1      23.731  18.258   4.451  0.00  0.00     0.167 HD
ENDBRANCH  82  84
ENDBRANCH  48  82
BRANCH  37  86
HETATM   86  C   UNK N   1      34.368  14.253   4.592  0.00  0.00     0.137 C 
BRANCH  86  87
HETATM   87  C   UNK N   1      34.978  14.596   5.915  0.00  0.00     0.217 C 
HETATM   88  O   UNK N   1      35.696  15.576   6.008  0.00  0.00    -0.274 OA
HETATM   89  N   UNK N   1      34.639  13.910   7.024  0.00  0.00    -0.370 N 
HETATM   90  H   UNK N   1      34.264  13.505   7.841  0.00  0.00     0.159 HD
HETATM   91  H   UNK N   1      35.423  13.315   6.992  0.00  0.00     0.159 HD
ENDBRANCH  86  87
ENDBRANCH  37  86
BRANCH  45  92
HETATM   92  C   UNK N   1      19.618  15.692   5.884  0.00  0.00     0.199 C 
BRANCH  92  93
HETATM   93  O   UNK N   1      19.532  15.598   7.272  0.00  0.00    -0.398 OA
HETATM   94  H   UNK N   1      19.371  15.181   8.133  0.00  0.00     0.209 HD
ENDBRANCH  92  93
ENDBRANCH  45  92
BRANCH  32  95
HETATM   95  C   UNK N   1      35.108  12.034   2.851  0.00  0.00     0.073 C 
BRANCH  95  96
HETATM   96  C   UNK N   1      36.186  12.453   1.896  0.00  0.00    -0.056 A 
HETATM   97  C   UNK N   1      37.295  11.618   1.739  0.00  0.00     0.007 A 
HETATM   98  C   UNK N   1      38.320  11.965   0.855  0.00  0.00     0.001 A 
HETATM   99  C   UNK N   1      38.243  13.155   0.127  0.00  0.00     0.000 A 
HETATM  100  C   UNK N   1      37.142  14.001   0.285  0.00  0.00     0.001 A 
HETATM  101  C   UNK N   1      36.115  13.652   1.166  0.00  0.00     0.007 A 
ENDBRANCH  95  96
ENDBRANCH  32  95
BRANCH  41 102
HETATM  102  C   UNK N   1      22.570  13.137   8.456  0.00  0.00     0.146 C 
HETATM  103  C   UNK N   1      24.004  13.372   8.900  0.00  0.00     0.042 C 
BRANCH 102 104
HETATM  104  O   UNK N   1      21.837  14.299   8.700  0.00  0.00    -0.393 OA
HETATM  105  H   UNK N   1      21.527  14.521   9.592  0.00  0.00     0.210 HD
ENDBRANCH 102 104
ENDBRANCH  41 102
BRANCH  30 106
HETATM  106  C   UNK N   1      35.035   8.935   2.400  0.00  0.00     0.073 C 
BRANCH 106 107
HETATM  107  C   UNK N   1      35.289   8.382   3.762  0.00  0.00    -0.056 A 
HETATM  108  C   UNK N   1      35.217   9.205   4.891  0.00  0.00     0.007 A 
HETATM  109  C   UNK N   1      35.474   8.674   6.157  0.00  0.00     0.001 A 
HETATM  110  C   UNK N   1      35.806   7.322   6.296  0.00  0.00     0.000 A 
HETATM  111  C   UNK N   1      35.884   6.502   5.166  0.00  0.00     0.001 A 
HETATM  112  C   UNK N   1      35.630   7.032   3.899  0.00  0.00     0.007 A 
ENDBRANCH 106 107
ENDBRANCH  30 106
BRANCH  34 113
HETATM  113  C   UNK N   1      24.106   8.555   5.090  0.00  0.00     0.073 C 
BRANCH 113 114
HETATM  114  C   UNK N   1      24.455   7.492   6.085  0.00  0.00    -0.056 A 
HETATM  115  C   UNK N   1      23.615   7.233   7.177  0.00  0.00     0.007 A 
HETATM  116  C   UNK N   1      23.961   6.255   8.114  0.00  0.00     0.001 A 
HETATM  117  C   UNK N   1      25.156   5.545   7.972  0.00  0.00     0.000 A 
HETATM  118  C   UNK N   1      26.007   5.816   6.897  0.00  0.00     0.001 A 
HETATM  119  C   UNK N   1      25.659   6.792   5.959  0.00  0.00     0.007 A 
ENDBRANCH 113 114
ENDBRANCH  34 113
BRANCH  26 120
HETATM  120  C   UNK N   1      31.319   5.578   3.446  0.00  0.00     0.075 C 
BRANCH 120 121
HETATM  121  C   UNK N   1      30.164   4.619   3.429  0.00  0.00    -0.028 A 
HETATM  122  C   UNK N   1      29.489   4.168   2.325  0.00  0.00    -0.002 A 
HETATM  123  C   UNK N   1      28.580   3.247   2.765  0.00  0.00     0.042 A 
HETATM  124  C   UNK N   1      29.628   4.472   0.972  0.00  0.00     0.014 A 
HETATM  125  N   UNK N   1      28.654   3.093   4.097  0.00  0.00    -0.365 N 
HETATM  126  C   UNK N   1      27.738   2.564   1.894  0.00  0.00     0.030 A 
HETATM  127  C   UNK N   1      29.640   3.923   4.513  0.00  0.00     0.096 A 
HETATM  128  H   UNK N   1      28.104   2.498   4.657  0.00  0.00     0.165 HD
HETATM  129  C   UNK N   1      27.849   2.850   0.520  0.00  0.00     0.002 A 
HETATM  130  C   UNK N   1      28.791   3.799   0.061  0.00  0.00     0.001 A 
ENDBRANCH 120 121
ENDBRANCH  26 120
BRANCH  28 131
HETATM  131  C   UNK N   1      28.672  10.676   3.681  0.00  0.00     0.146 C 
HETATM  132  C   UNK N   1      29.837  11.289   2.933  0.00  0.00     0.042 C 
BRANCH 131 133
HETATM  133  O   UNK N   1      28.631  11.215   4.967  0.00  0.00    -0.393 OA
HETATM  134  H   UNK N   1      29.123  11.565   5.726  0.00  0.00     0.210 HD
ENDBRANCH 131 133
ENDBRANCH  28 131
BRANCH  25 135
HETATM  135  C   UNK N   1      27.195   7.226   1.060  0.00  0.00     0.035 C 
BRANCH 135 136
HETATM  136  C   UNK N   1      26.461   6.376   2.078  0.00  0.00     0.004 C 
BRANCH 136 137
HETATM  137  C   UNK N   1      25.339   5.594   1.422  0.00  0.00     0.019 C 
BRANCH 137 138
HETATM  138  C   UNK N   1      24.382   6.540   0.723  0.00  0.00     0.111 C 
BRANCH 138 139
HETATM  139  N   UNK N   1      23.659   7.331   1.702  0.00  0.00    -0.430 N 
HETATM  140  H   UNK N   1      22.708   7.650   1.513  0.00  0.00     0.149 HD
HETATM  141  H   UNK N   1      24.105   7.570   2.587  0.00  0.00     0.149 HD
ENDBRANCH 138 139
ENDBRANCH 137 138
ENDBRANCH 136 137
ENDBRANCH 135 136
ENDBRANCH  25 135
TORSDOF 33
ENDMDL
MODEL 7
REMARK VINA RESULT:      -6.4      2.594      9.618
REMARK WARNING: 32 MAX_TORS EXCEEDED!!!
REMARK  33 active torsions:
REMARK  status: ('A' for Active; 'I' for Inactive)
REMARK    1  A    between atoms: O_5  and  C_53 
REMARK    2  A    between atoms: O_12  and  C_81 
REMARK    3  A    between atoms: O_16  and  C_104 
REMARK    4  A    between atoms: O_19  and  C_112 
REMARK    5  A    between atoms: N_32  and  C_60 
REMARK    6  A    between atoms: N_34  and  C_86 
REMARK       I    between atoms: N_34  and  C_109 
REMARK    7  A    between atoms: N_35  and  C_87 
REMARK       I    between atoms: N_36  and  C_92 
REMARK    8  A    between atoms: N_38  and  C_111 
REMARK       I    between atoms: N_38  and  C_113 
REMARK    9  A    between atoms: N_39  and  C_114 
REMARK   10  A    between atoms: C_40  and  C_42 
REMARK   11  A    between atoms: C_41  and  C_43 
REMARK   12  A    between atoms: C_42  and  C_44 
REMARK   13  A    between atoms: C_43  and  C_46 
REMARK   14  A    between atoms: C_44  and  C_50 
REMARK   15  A    between atoms: C_47  and  C_53 
REMARK   16  A    between atoms: C_49  and  C_54 
REMARK   17  A    between atoms: C_50  and  C_60 
REMARK   18  A    between atoms: C_54  and  C_67 
REMARK   19  A    between atoms: C_55  and  C_64 
REMARK   20  A    between atoms: C_59  and  C_66 
REMARK   21  A    between atoms: C_61  and  C_63 
REMARK   22  A    between atoms: C_63  and  C_69 
REMARK   23  A    between atoms: C_64  and  C_78 
REMARK   24  A    between atoms: C_65  and  C_77 
REMARK   25  A    between atoms: C_66  and  C_80 
REMARK   26  A    between atoms: C_69  and  C_76 
REMARK   27  A    between atoms: C_75  and  C_81 
REMARK   28  A    between atoms: C_76  and  C_87 
REMARK   29  A    between atoms: C_77  and  C_92 
REMARK   30  A    between atoms: C_95  and  C_104 
REMARK   31  A    between atoms: C_108  and  C_112 
REMARK   32  A    between atoms: C_109  and  C_111 
REMARK   33  A    between atoms: C_113  and  C_114 
ROOT
HETATM    1  S   UNK N   1      31.338  12.221   1.228  0.00  0.00    -0.095 SA
HETATM    2  S   UNK N   1      31.187  11.601   3.276  0.00  0.00    -0.095 SA
HETATM    3  O   UNK N   1      26.664  14.147   6.343  0.00  0.00    -0.271 OA
HETATM    4  O   UNK N   1      26.801  16.224   1.937  0.00  0.00    -0.271 OA
HETATM    5  O   UNK N   1      23.289  14.388   3.556  0.00  0.00    -0.271 OA
HETATM    6  O   UNK N   1      30.145  15.803   4.371  0.00  0.00    -0.271 OA
HETATM    7  O   UNK N   1      24.068  11.955  -0.317  0.00  0.00    -0.271 OA
HETATM    8  O   UNK N   1      33.338  14.645   4.824  0.00  0.00    -0.271 OA
HETATM    9  O   UNK N   1      26.765   9.371   3.626  0.00  0.00    -0.271 OA
HETATM   10  O   UNK N   1      28.122   8.954  -1.341  0.00  0.00    -0.271 OA
HETATM   11  O   UNK N   1      30.983   8.808   2.602  0.00  0.00    -0.271 OA
HETATM   12  O   UNK N   1      36.031  14.543   7.068  0.00  0.00    -0.271 OA
HETATM   13  O   UNK N   1      36.559  11.269   3.324  0.00  0.00    -0.271 OA
HETATM   14  N   UNK N   1      25.768  15.271   4.625  0.00  0.00    -0.346 N 
HETATM   15  N   UNK N   1      23.782  12.909   5.166  0.00  0.00    -0.346 N 
HETATM   16  N   UNK N   1      28.407  14.787   2.495  0.00  0.00    -0.344 N 
HETATM   17  N   UNK N   1      23.131  12.432   1.643  0.00  0.00    -0.346 N 
HETATM   18  N   UNK N   1      30.544  13.863   5.422  0.00  0.00    -0.346 N 
HETATM   19  N   UNK N   1      25.109  10.230   2.398  0.00  0.00    -0.346 N 
HETATM   20  N   UNK N   1      26.741   8.750   0.383  0.00  0.00    -0.346 N 
HETATM   21  N   UNK N   1      29.484   7.647   1.447  0.00  0.00    -0.346 N 
HETATM   22  N   UNK N   1      33.713  13.112   6.419  0.00  0.00    -0.344 N 
HETATM   23  N   UNK N   1      36.859  14.203   5.033  0.00  0.00    -0.344 N 
HETATM   24  N   UNK N   1      34.910  12.759   3.004  0.00  0.00    -0.344 N 
HETATM   25  C   UNK N   1      27.031  15.873   4.262  0.00  0.00     0.176 C 
HETATM   26  C   UNK N   1      24.349  13.847   6.111  0.00  0.00     0.181 C 
HETATM   27  C   UNK N   1      25.671  14.429   5.689  0.00  0.00     0.241 C 
HETATM   28  C   UNK N   1      29.051  13.900   3.451  0.00  0.00     0.205 C 
HETATM   29  C   UNK N   1      27.402  15.638   2.824  0.00  0.00     0.241 C 
HETATM   30  C   UNK N   1      22.873  12.122   3.032  0.00  0.00     0.180 C 
HETATM   31  C   UNK N   1      23.303  13.228   3.942  0.00  0.00     0.241 C 
HETATM   32  C   UNK N   1      24.220  10.205   1.251  0.00  0.00     0.180 C 
HETATM   33  C   UNK N   1      29.929  14.605   4.466  0.00  0.00     0.243 C 
HETATM   34  C   UNK N   1      31.563  14.307   6.351  0.00  0.00     0.180 C 
HETATM   35  C   UNK N   1      28.814   7.325   0.208  0.00  0.00     0.176 C 
HETATM   36  C   UNK N   1      23.818  11.595   0.822  0.00  0.00     0.241 C 
HETATM   37  C   UNK N   1      26.343   8.174   1.647  0.00  0.00     0.185 C 
HETATM   38  C   UNK N   1      32.943  14.054   5.819  0.00  0.00     0.241 C 
HETATM   39  C   UNK N   1      26.084   9.298   2.616  0.00  0.00     0.241 C 
HETATM   40  C   UNK N   1      27.870   8.401  -0.284  0.00  0.00     0.241 C 
HETATM   41  C   UNK N   1      35.038  12.715   5.972  0.00  0.00     0.205 C 
HETATM   42  C   UNK N   1      30.374   8.662   1.556  0.00  0.00     0.241 C 
HETATM   43  C   UNK N   1      30.624   9.587   0.392  0.00  0.00     0.186 C 
HETATM   44  C   UNK N   1      36.001  13.879   6.044  0.00  0.00     0.243 C 
HETATM   45  C   UNK N   1      37.121  13.533   3.761  0.00  0.00     0.200 C 
HETATM   46  C   UNK N   1      30.123  11.016   0.612  0.00  0.00     0.120 C 
HETATM   47  C   UNK N   1      36.175  12.431   3.362  0.00  0.00     0.243 C 
HETATM   48  C   UNK N   1      33.883  11.833   2.575  0.00  0.00     0.192 C 
HETATM   49  C   UNK N   1      32.957  11.473   3.716  0.00  0.00     0.122 C 
HETATM   50  H   UNK N   1      24.964  15.474   4.093  0.00  0.00     0.163 HD
HETATM   51  H   UNK N   1      23.742  11.963   5.436  0.00  0.00     0.163 HD
HETATM   52  H   UNK N   1      28.717  14.770   1.561  0.00  0.00     0.163 HD
HETATM   53  H   UNK N   1      22.797  13.283   1.280  0.00  0.00     0.163 HD
HETATM   54  H   UNK N   1      30.266  12.920   5.493  0.00  0.00     0.163 HD
HETATM   55  H   UNK N   1      25.004  10.957   3.054  0.00  0.00     0.163 HD
HETATM   56  H   UNK N   1      26.159   9.436  -0.016  0.00  0.00     0.163 HD
HETATM   57  H   UNK N   1      29.286   7.105   2.245  0.00  0.00     0.163 HD
HETATM   58  H   UNK N   1      33.347  12.664   7.216  0.00  0.00     0.163 HD
HETATM   59  H   UNK N   1      37.385  15.021   5.184  0.00  0.00     0.163 HD
HETATM   60  H   UNK N   1      34.667  13.712   3.038  0.00  0.00     0.163 HD
ENDROOT
BRANCH  43  61
HETATM   61  N   UNK N   1      31.954   9.480  -0.179  0.00  0.00    -0.346 N 
HETATM   62  C   UNK N   1      32.167   8.781  -1.328  0.00  0.00     0.236 C 
HETATM   63  O   UNK N   1      31.238   8.223  -1.892  0.00  0.00    -0.272 OA
HETATM   64  H   UNK N   1      32.713   9.917   0.270  0.00  0.00     0.163 HD
BRANCH  62  65
HETATM   65  C   UNK N   1      33.521   8.738  -1.973  0.00  0.00     0.225 C 
BRANCH  65  66
HETATM   66  N   UNK N   1      33.491   9.022  -3.391  0.00  0.00    -0.351 N 
HETATM   67  C   UNK N   1      33.421  10.266  -3.933  0.00  0.00     0.239 C 
HETATM   68  O   UNK N   1      33.409  10.376  -5.150  0.00  0.00    -0.271 OA
HETATM   69  H   UNK N   1      33.522   8.256  -4.009  0.00  0.00     0.163 HD
BRANCH  67  70
HETATM   70  C   UNK N   1      33.318  11.506  -3.074  0.00  0.00     0.163 C 
HETATM   71  C   UNK N   1      34.134  12.637  -3.670  0.00  0.00     0.041 C 
BRANCH  70  72
HETATM   72  N   UNK N   1      31.936  11.938  -2.937  0.00  0.00    -0.419 N 
HETATM   73  H   UNK N   1      30.941  11.911  -2.718  0.00  0.00     0.150 HD
HETATM   74  H   UNK N   1      32.013  12.891  -3.291  0.00  0.00     0.150 HD
ENDBRANCH  70  72
ENDBRANCH  67  70
ENDBRANCH  65  66
ENDBRANCH  62  65
ENDBRANCH  43  61
BRANCH  35  75
HETATM   75  C   UNK N   1      28.155   5.968   0.316  0.00  0.00     0.035 C 
BRANCH  75  76
HETATM   76  C   UNK N   1      28.094   5.334  -1.059  0.00  0.00     0.004 C 
BRANCH  76  77
HETATM   77  C   UNK N   1      26.656   5.324  -1.561  0.00  0.00     0.019 C 
BRANCH  77  78
HETATM   78  C   UNK N   1      26.552   5.894  -2.969  0.00  0.00     0.111 C 
BRANCH  78  79
HETATM   79  N   UNK N   1      27.785   6.573  -3.327  0.00  0.00    -0.430 N 
HETATM   80  H   UNK N   1      28.415   6.841  -4.083  0.00  0.00     0.149 HD
HETATM   81  H   UNK N   1      28.187   6.934  -2.462  0.00  0.00     0.149 HD
ENDBRANCH  78  79
ENDBRANCH  77  78
ENDBRANCH  76  77
ENDBRANCH  75  76
ENDBRANCH  35  75
BRANCH  48  82
HETATM   82  C   UNK N   1      34.363  10.640   1.806  0.00  0.00     0.164 C 
HETATM   83  O   UNK N   1      34.656  10.756   0.628  0.00  0.00    -0.648 OA
BRANCH  82  84
HETATM   84  O   UNK N   1      34.456   9.439   2.408  0.00  0.00    -0.775 OA
HETATM   85  H   UNK N   1      34.908   9.003   3.103  0.00  0.00     0.167 HD
ENDBRANCH  82  84
ENDBRANCH  48  82
BRANCH  37  86
HETATM   86  C   UNK N   1      25.051   7.357   1.526  0.00  0.00     0.137 C 
BRANCH  86  87
HETATM   87  C   UNK N   1      24.802   6.300   2.556  0.00  0.00     0.217 C 
HETATM   88  O   UNK N   1      25.496   5.298   2.566  0.00  0.00    -0.274 OA
HETATM   89  N   UNK N   1      23.910   6.502   3.545  0.00  0.00    -0.370 N 
HETATM   90  H   UNK N   1      23.376   6.729   4.342  0.00  0.00     0.159 HD
HETATM   91  H   UNK N   1      23.181   6.017   3.096  0.00  0.00     0.159 HD
ENDBRANCH  86  87
ENDBRANCH  37  86
BRANCH  45  92
HETATM   92  C   UNK N   1      38.592  13.129   3.679  0.00  0.00     0.199 C 
BRANCH  92  93
HETATM   93  O   UNK N   1      38.939  12.286   4.734  0.00  0.00    -0.398 OA
HETATM   94  H   UNK N   1      39.300  11.498   5.169  0.00  0.00     0.209 HD
ENDBRANCH  92  93
ENDBRANCH  45  92
BRANCH  32  95
HETATM   95  C   UNK N   1      22.966   9.393   1.588  0.00  0.00     0.073 C 
BRANCH  95  96
HETATM   96  C   UNK N   1      22.236   8.827   0.406  0.00  0.00    -0.056 A 
HETATM   97  C   UNK N   1      22.826   8.944  -0.856  0.00  0.00     0.007 A 
HETATM   98  C   UNK N   1      22.186   8.425  -1.984  0.00  0.00     0.001 A 
HETATM   99  C   UNK N   1      20.947   7.791  -1.856  0.00  0.00     0.000 A 
HETATM  100  C   UNK N   1      20.346   7.678  -0.599  0.00  0.00     0.001 A 
HETATM  101  C   UNK N   1      20.988   8.193   0.530  0.00  0.00     0.007 A 
ENDBRANCH  95  96
ENDBRANCH  32  95
BRANCH  41 102
HETATM  102  C   UNK N   1      35.524  11.548   6.832  0.00  0.00     0.146 C 
HETATM  103  C   UNK N   1      35.038  10.226   6.260  0.00  0.00     0.042 C 
BRANCH 102 104
HETATM  104  O   UNK N   1      36.918  11.526   6.871  0.00  0.00    -0.393 OA
HETATM  105  H   UNK N   1      37.404  11.785   7.670  0.00  0.00     0.210 HD
ENDBRANCH 102 104
ENDBRANCH  41 102
BRANCH  30 106
HETATM  106  C   UNK N   1      21.479  11.554   3.301  0.00  0.00     0.073 C 
BRANCH 106 107
HETATM  107  C   UNK N   1      20.419  12.108   2.408  0.00  0.00    -0.056 A 
HETATM  108  C   UNK N   1      19.768  11.287   1.481  0.00  0.00     0.007 A 
HETATM  109  C   UNK N   1      18.789  11.825   0.641  0.00  0.00     0.001 A 
HETATM  110  C   UNK N   1      18.464  13.183   0.725  0.00  0.00     0.000 A 
HETATM  111  C   UNK N   1      19.121  14.003   1.647  0.00  0.00     0.001 A 
HETATM  112  C   UNK N   1      20.100  13.467   2.486  0.00  0.00     0.007 A 
ENDBRANCH 106 107
ENDBRANCH  30 106
BRANCH  34 113
HETATM  113  C   UNK N   1      31.265  15.605   7.127  0.00  0.00     0.073 C 
BRANCH 113 114
HETATM  114  C   UNK N   1      32.438  16.270   7.780  0.00  0.00    -0.056 A 
HETATM  115  C   UNK N   1      33.060  15.689   8.894  0.00  0.00     0.007 A 
HETATM  116  C   UNK N   1      34.138  16.329   9.511  0.00  0.00     0.001 A 
HETATM  117  C   UNK N   1      34.587  17.561   9.028  0.00  0.00     0.000 A 
HETATM  118  C   UNK N   1      33.954  18.156   7.932  0.00  0.00     0.001 A 
HETATM  119  C   UNK N   1      32.879  17.513   7.314  0.00  0.00     0.007 A 
ENDBRANCH 113 114
ENDBRANCH  34 113
BRANCH  26 120
HETATM  120  C   UNK N   1      23.341  14.767   6.820  0.00  0.00     0.075 C 
BRANCH 120 121
HETATM  121  C   UNK N   1      22.498  14.183   7.916  0.00  0.00    -0.028 A 
HETATM  122  C   UNK N   1      22.937  13.441   8.981  0.00  0.00    -0.002 A 
HETATM  123  C   UNK N   1      21.848  13.198   9.771  0.00  0.00     0.042 A 
HETATM  124  C   UNK N   1      24.210  12.992   9.330  0.00  0.00     0.014 A 
HETATM  125  N   UNK N   1      20.742  13.758   9.254  0.00  0.00    -0.365 N 
HETATM  126  C   UNK N   1      21.943  12.487  10.962  0.00  0.00     0.030 A 
HETATM  127  C   UNK N   1      21.137  14.382   8.119  0.00  0.00     0.096 A 
HETATM  128  H   UNK N   1      19.830  13.722   9.625  0.00  0.00     0.165 HD
HETATM  129  C   UNK N   1      23.213  12.016  11.343  0.00  0.00     0.002 A 
HETATM  130  C   UNK N   1      24.342  12.269  10.531  0.00  0.00     0.001 A 
ENDBRANCH 120 121
ENDBRANCH  26 120
BRANCH  28 131
HETATM  131  C   UNK N   1      28.018  12.925   4.029  0.00  0.00     0.146 C 
HETATM  132  C   UNK N   1      27.132  12.437   2.903  0.00  0.00     0.042 C 
BRANCH 131 133
HETATM  133  O   UNK N   1      28.618  11.823   4.638  0.00  0.00    -0.393 OA
HETATM  134  H   UNK N   1      28.987  10.931   4.540  0.00  0.00     0.210 HD
ENDBRANCH 131 133
ENDBRANCH  28 131
BRANCH  25 135
HETATM  135  C   UNK N   1      27.032  17.363   4.570  0.00  0.00     0.035 C 
BRANCH 135 136
HETATM  136  C   UNK N   1      25.624  17.830   4.886  0.00  0.00     0.004 C 
BRANCH 136 137
HETATM  137  C   UNK N   1      25.121  18.788   3.823  0.00  0.00     0.019 C 
BRANCH 137 138
HETATM  138  C   UNK N   1      23.605  18.805   3.810  0.00  0.00     0.111 C 
BRANCH 138 139
HETATM  139  N   UNK N   1      23.090  17.449   3.858  0.00  0.00    -0.430 N 
HETATM  140  H   UNK N   1      23.364  16.764   3.153  0.00  0.00     0.149 HD
HETATM  141  H   UNK N   1      22.450  17.177   4.603  0.00  0.00     0.149 HD
ENDBRANCH 138 139
ENDBRANCH 137 138
ENDBRANCH 136 137
ENDBRANCH 135 136
ENDBRANCH  25 135
TORSDOF 33
ENDMDL
MODEL 8
REMARK VINA RESULT:      -6.2      3.068     12.935
REMARK WARNING: 32 MAX_TORS EXCEEDED!!!
REMARK  33 active torsions:
REMARK  status: ('A' for Active; 'I' for Inactive)
REMARK    1  A    between atoms: O_5  and  C_53 
REMARK    2  A    between atoms: O_12  and  C_81 
REMARK    3  A    between atoms: O_16  and  C_104 
REMARK    4  A    between atoms: O_19  and  C_112 
REMARK    5  A    between atoms: N_32  and  C_60 
REMARK    6  A    between atoms: N_34  and  C_86 
REMARK       I    between atoms: N_34  and  C_109 
REMARK    7  A    between atoms: N_35  and  C_87 
REMARK       I    between atoms: N_36  and  C_92 
REMARK    8  A    between atoms: N_38  and  C_111 
REMARK       I    between atoms: N_38  and  C_113 
REMARK    9  A    between atoms: N_39  and  C_114 
REMARK   10  A    between atoms: C_40  and  C_42 
REMARK   11  A    between atoms: C_41  and  C_43 
REMARK   12  A    between atoms: C_42  and  C_44 
REMARK   13  A    between atoms: C_43  and  C_46 
REMARK   14  A    between atoms: C_44  and  C_50 
REMARK   15  A    between atoms: C_47  and  C_53 
REMARK   16  A    between atoms: C_49  and  C_54 
REMARK   17  A    between atoms: C_50  and  C_60 
REMARK   18  A    between atoms: C_54  and  C_67 
REMARK   19  A    between atoms: C_55  and  C_64 
REMARK   20  A    between atoms: C_59  and  C_66 
REMARK   21  A    between atoms: C_61  and  C_63 
REMARK   22  A    between atoms: C_63  and  C_69 
REMARK   23  A    between atoms: C_64  and  C_78 
REMARK   24  A    between atoms: C_65  and  C_77 
REMARK   25  A    between atoms: C_66  and  C_80 
REMARK   26  A    between atoms: C_69  and  C_76 
REMARK   27  A    between atoms: C_75  and  C_81 
REMARK   28  A    between atoms: C_76  and  C_87 
REMARK   29  A    between atoms: C_77  and  C_92 
REMARK   30  A    between atoms: C_95  and  C_104 
REMARK   31  A    between atoms: C_108  and  C_112 
REMARK   32  A    between atoms: C_109  and  C_111 
REMARK   33  A    between atoms: C_113  and  C_114 
ROOT
HETATM    1  S   UNK N   1      26.794  10.398   4.420  0.00  0.00    -0.095 SA
HETATM    2  S   UNK N   1      26.838  12.004   2.998  0.00  0.00    -0.095 SA
HETATM    3  O   UNK N   1      32.271  14.481   2.173  0.00  0.00    -0.271 OA
HETATM    4  O   UNK N   1      32.673  11.230   5.781  0.00  0.00    -0.271 OA
HETATM    5  O   UNK N   1      35.146  11.173   2.286  0.00  0.00    -0.271 OA
HETATM    6  O   UNK N   1      29.717  14.149   5.653  0.00  0.00    -0.271 OA
HETATM    7  O   UNK N   1      33.035   7.043   2.160  0.00  0.00    -0.271 OA
HETATM    8  O   UNK N   1      26.394  14.987   5.680  0.00  0.00    -0.271 OA
HETATM    9  O   UNK N   1      29.836  10.430  -0.632  0.00  0.00    -0.271 OA
HETATM   10  O   UNK N   1      28.000   6.140   1.585  0.00  0.00    -0.271 OA
HETATM   11  O   UNK N   1      25.730  10.395   0.880  0.00  0.00    -0.271 OA
HETATM   12  O   UNK N   1      24.142  17.675   5.656  0.00  0.00    -0.271 OA
HETATM   13  O   UNK N   1      21.896  13.313   4.683  0.00  0.00    -0.271 OA
HETATM   14  N   UNK N   1      33.415  13.075   3.491  0.00  0.00    -0.346 N 
HETATM   15  N   UNK N   1      34.197  12.256   0.570  0.00  0.00    -0.346 N 
HETATM   16  N   UNK N   1      30.655  11.661   4.947  0.00  0.00    -0.344 N 
HETATM   17  N   UNK N   1      34.256   8.739   1.397  0.00  0.00    -0.346 N 
HETATM   18  N   UNK N   1      28.599  14.547   3.750  0.00  0.00    -0.346 N 
HETATM   19  N   UNK N   1      31.586   9.184  -0.019  0.00  0.00    -0.346 N 
HETATM   20  N   UNK N   1      29.297   7.278   0.190  0.00  0.00    -0.346 N 
HETATM   21  N   UNK N   1      26.455   8.573  -0.158  0.00  0.00    -0.346 N 
HETATM   22  N   UNK N   1      25.526  16.009   3.881  0.00  0.00    -0.344 N 
HETATM   23  N   UNK N   1      23.073  15.930   6.524  0.00  0.00    -0.344 N 
HETATM   24  N   UNK N   1      23.997  13.104   5.447  0.00  0.00    -0.344 N 
HETATM   25  C   UNK N   1      32.519  13.274   4.608  0.00  0.00     0.176 C 
HETATM   26  C   UNK N   1      34.187  13.574   1.166  0.00  0.00     0.181 C 
HETATM   27  C   UNK N   1      33.225  13.729   2.313  0.00  0.00     0.241 C 
HETATM   28  C   UNK N   1      29.774  12.391   4.049  0.00  0.00     0.205 C 
HETATM   29  C   UNK N   1      31.957  11.988   5.147  0.00  0.00     0.241 C 
HETATM   30  C   UNK N   1      34.473   9.824   0.467  0.00  0.00     0.180 C 
HETATM   31  C   UNK N   1      34.656  11.133   1.167  0.00  0.00     0.241 C 
HETATM   32  C   UNK N   1      32.267   7.909   0.109  0.00  0.00     0.180 C 
HETATM   33  C   UNK N   1      29.390  13.775   4.538  0.00  0.00     0.243 C 
HETATM   34  C   UNK N   1      27.966  15.799   4.110  0.00  0.00     0.180 C 
HETATM   35  C   UNK N   1      26.802   7.170  -0.158  0.00  0.00     0.176 C 
HETATM   36  C   UNK N   1      33.201   7.888   1.295  0.00  0.00     0.241 C 
HETATM   37  C   UNK N   1      29.511   8.125  -0.962  0.00  0.00     0.185 C 
HETATM   38  C   UNK N   1      26.574  15.586   4.629  0.00  0.00     0.241 C 
HETATM   39  C   UNK N   1      30.323   9.317  -0.525  0.00  0.00     0.241 C 
HETATM   40  C   UNK N   1      28.076   6.845   0.592  0.00  0.00     0.241 C 
HETATM   41  C   UNK N   1      24.126  15.809   4.225  0.00  0.00     0.205 C 
HETATM   42  C   UNK N   1      26.117   9.243   0.969  0.00  0.00     0.241 C 
HETATM   43  C   UNK N   1      26.197   8.566   2.314  0.00  0.00     0.186 C 
HETATM   44  C   UNK N   1      23.786  16.516   5.517  0.00  0.00     0.243 C 
HETATM   45  C   UNK N   1      22.430  14.619   6.592  0.00  0.00     0.200 C 
HETATM   46  C   UNK N   1      27.294   9.120   3.226  0.00  0.00     0.120 C 
HETATM   47  C   UNK N   1      22.754  13.643   5.492  0.00  0.00     0.243 C 
HETATM   48  C   UNK N   1      24.469  12.139   4.477  0.00  0.00     0.192 C 
HETATM   49  C   UNK N   1      25.239  12.813   3.361  0.00  0.00     0.122 C 
HETATM   50  H   UNK N   1      34.176  12.456   3.584  0.00  0.00     0.163 HD
HETATM   51  H   UNK N   1      33.839  12.170  -0.344  0.00  0.00     0.163 HD
HETATM   52  H   UNK N   1      30.288  10.889   5.435  0.00  0.00     0.163 HD
HETATM   53  H   UNK N   1      34.897   8.612   2.132  0.00  0.00     0.163 HD
HETATM   54  H   UNK N   1      28.438  14.220   2.835  0.00  0.00     0.163 HD
HETATM   55  H   UNK N   1      32.058   9.997   0.275  0.00  0.00     0.163 HD
HETATM   56  H   UNK N   1      30.084   6.999   0.711  0.00  0.00     0.163 HD
HETATM   57  H   UNK N   1      26.464   9.061  -1.013  0.00  0.00     0.163 HD
HETATM   58  H   UNK N   1      25.725  16.485   3.042  0.00  0.00     0.163 HD
HETATM   59  H   UNK N   1      22.976  16.479   7.335  0.00  0.00     0.163 HD
HETATM   60  H   UNK N   1      24.637  13.395   6.136  0.00  0.00     0.163 HD
ENDROOT
BRANCH  43  61
HETATM   61  N   UNK N   1      24.911   8.354   2.952  0.00  0.00    -0.346 N 
HETATM   62  C   UNK N   1      24.389   7.103   3.072  0.00  0.00     0.236 C 
HETATM   63  O   UNK N   1      24.993   6.137   2.633  0.00  0.00    -0.272 OA
HETATM   64  H   UNK N   1      24.410   9.125   3.303  0.00  0.00     0.163 HD
BRANCH  62  65
HETATM   65  C   UNK N   1      23.103   6.864   3.808  0.00  0.00     0.225 C 
BRANCH  65  66
HETATM   66  N   UNK N   1      23.076   5.608   4.524  0.00  0.00    -0.351 N 
HETATM   67  C   UNK N   1      23.538   5.424   5.789  0.00  0.00     0.239 C 
HETATM   68  O   UNK N   1      23.453   4.312   6.289  0.00  0.00    -0.271 OA
HETATM   69  H   UNK N   1      22.696   4.828   4.060  0.00  0.00     0.163 HD
BRANCH  67  70
HETATM   70  C   UNK N   1      24.186   6.543   6.572  0.00  0.00     0.163 C 
HETATM   71  C   UNK N   1      23.922   6.379   8.056  0.00  0.00     0.041 C 
BRANCH  70  72
HETATM   72  N   UNK N   1      25.622   6.581   6.345  0.00  0.00    -0.419 N 
HETATM   73  H   UNK N   1      26.611   6.345   6.421  0.00  0.00     0.150 HD
HETATM   74  H   UNK N   1      25.674   7.344   5.670  0.00  0.00     0.150 HD
ENDBRANCH  70  72
ENDBRANCH  67  70
ENDBRANCH  65  66
ENDBRANCH  62  65
ENDBRANCH  43  61
BRANCH  35  75
HETATM   75  C   UNK N   1      26.803   6.639  -1.574  0.00  0.00     0.035 C 
BRANCH  75  76
HETATM   76  C   UNK N   1      26.142   7.654  -2.486  0.00  0.00     0.004 C 
BRANCH  76  77
HETATM   77  C   UNK N   1      26.338   7.248  -3.940  0.00  0.00     0.019 C 
BRANCH  77  78
HETATM   78  C   UNK N   1      25.963   8.376  -4.891  0.00  0.00     0.111 C 
BRANCH  78  79
HETATM   79  N   UNK N   1      27.098   8.724  -5.727  0.00  0.00    -0.430 N 
HETATM   80  H   UNK N   1      27.586   8.553  -6.607  0.00  0.00     0.149 HD
HETATM   81  H   UNK N   1      27.628   9.439  -5.227  0.00  0.00     0.149 HD
ENDBRANCH  78  79
ENDBRANCH  77  78
ENDBRANCH  76  77
ENDBRANCH  75  76
ENDBRANCH  35  75
BRANCH  48  82
HETATM   82  C   UNK N   1      23.447  11.163   3.981  0.00  0.00     0.164 C 
HETATM   83  O   UNK N   1      22.983  10.331   4.743  0.00  0.00    -0.648 OA
BRANCH  82  84
HETATM   84  O   UNK N   1      23.052  11.191   2.693  0.00  0.00    -0.775 OA
HETATM   85  H   UNK N   1      22.311  11.404   2.161  0.00  0.00     0.167 HD
ENDBRANCH  82  84
ENDBRANCH  48  82
BRANCH  37  86
HETATM   86  C   UNK N   1      30.294   7.408  -2.067  0.00  0.00     0.137 C 
BRANCH  86  87
HETATM   87  C   UNK N   1      30.194   7.959  -3.455  0.00  0.00     0.217 C 
HETATM   88  O   UNK N   1      29.355   8.807  -3.704  0.00  0.00    -0.274 OA
HETATM   89  N   UNK N   1      31.101   7.623  -4.394  0.00  0.00    -0.370 N 
HETATM   90  H   UNK N   1      31.855   7.491  -5.014  0.00  0.00     0.159 HD
HETATM   91  H   UNK N   1      30.541   6.922  -4.798  0.00  0.00     0.159 HD
ENDBRANCH  86  87
ENDBRANCH  37  86
BRANCH  45  92
HETATM   92  C   UNK N   1      20.931  14.786   6.833  0.00  0.00     0.199 C 
BRANCH  92  93
HETATM   93  O   UNK N   1      20.360  13.594   7.276  0.00  0.00    -0.398 OA
HETATM   94  H   UNK N   1      20.310  12.647   7.482  0.00  0.00     0.209 HD
ENDBRANCH  92  93
ENDBRANCH  45  92
BRANCH  32  95
HETATM   95  C   UNK N   1      33.060   7.618  -1.169  0.00  0.00     0.073 C 
BRANCH  95  96
HETATM   96  C   UNK N   1      33.691   6.258  -1.230  0.00  0.00    -0.056 A 
HETATM   97  C   UNK N   1      32.879   5.139  -1.030  0.00  0.00     0.007 A 
HETATM   98  C   UNK N   1      33.423   3.854  -1.085  0.00  0.00     0.001 A 
HETATM   99  C   UNK N   1      34.788   3.682  -1.336  0.00  0.00     0.000 A 
HETATM  100  C   UNK N   1      35.609   4.796  -1.528  0.00  0.00     0.001 A 
HETATM  101  C   UNK N   1      35.064   6.081  -1.477  0.00  0.00     0.007 A 
ENDBRANCH  95  96
ENDBRANCH  32  95
BRANCH  41 102
HETATM  102  C   UNK N   1      23.255  16.318   3.076  0.00  0.00     0.146 C 
HETATM  103  C   UNK N   1      22.882  15.176   2.145  0.00  0.00     0.042 C 
BRANCH 102 104
HETATM  104  O   UNK N   1      22.081  16.881   3.576  0.00  0.00    -0.393 OA
HETATM  105  H   UNK N   1      21.976  17.843   3.650  0.00  0.00     0.210 HD
ENDBRANCH 102 104
ENDBRANCH  41 102
BRANCH  30 106
HETATM  106  C   UNK N   1      35.492   9.518  -0.631  0.00  0.00     0.073 C 
BRANCH 106 107
HETATM  107  C   UNK N   1      35.281  10.297  -1.886  0.00  0.00    -0.056 A 
HETATM  108  C   UNK N   1      34.025  10.830  -2.191  0.00  0.00     0.007 A 
HETATM  109  C   UNK N   1      33.840  11.543  -3.378  0.00  0.00     0.001 A 
HETATM  110  C   UNK N   1      34.910  11.721  -4.262  0.00  0.00     0.000 A 
HETATM  111  C   UNK N   1      36.164  11.181  -3.958  0.00  0.00     0.001 A 
HETATM  112  C   UNK N   1      36.349  10.467  -2.773  0.00  0.00     0.007 A 
ENDBRANCH 106 107
ENDBRANCH  30 106
BRANCH  34 113
HETATM  113  C   UNK N   1      28.873  16.865   4.757  0.00  0.00     0.073 C 
BRANCH 113 114
HETATM  114  C   UNK N   1      28.220  18.168   5.103  0.00  0.00    -0.056 A 
HETATM  115  C   UNK N   1      27.688  18.989   4.099  0.00  0.00     0.007 A 
HETATM  116  C   UNK N   1      27.103  20.214   4.429  0.00  0.00     0.001 A 
HETATM  117  C   UNK N   1      27.063  20.631   5.762  0.00  0.00     0.000 A 
HETATM  118  C   UNK N   1      27.614  19.827   6.763  0.00  0.00     0.001 A 
HETATM  119  C   UNK N   1      28.196  18.600   6.433  0.00  0.00     0.007 A 
ENDBRANCH 113 114
ENDBRANCH  34 113
BRANCH  26 120
HETATM  120  C   UNK N   1      35.556  14.269   1.266  0.00  0.00     0.075 C 
BRANCH 120 121
HETATM  121  C   UNK N   1      36.631  13.854   0.303  0.00  0.00    -0.028 A 
HETATM  122  C   UNK N   1      36.703  14.162  -1.030  0.00  0.00    -0.002 A 
HETATM  123  C   UNK N   1      37.888  13.659  -1.490  0.00  0.00     0.042 A 
HETATM  124  C   UNK N   1      35.836  14.871  -1.859  0.00  0.00     0.014 A 
HETATM  125  N   UNK N   1      38.570  13.051  -0.505  0.00  0.00    -0.365 N 
HETATM  126  C   UNK N   1      38.296  13.818  -2.810  0.00  0.00     0.030 A 
HETATM  127  C   UNK N   1      37.810  13.181   0.609  0.00  0.00     0.096 A 
HETATM  128  H   UNK N   1      39.443  12.603  -0.578  0.00  0.00     0.165 HD
HETATM  129  C   UNK N   1      37.442  14.526  -3.676  0.00  0.00     0.002 A 
HETATM  130  C   UNK N   1      36.218  15.052  -3.202  0.00  0.00     0.001 A 
ENDBRANCH 120 121
ENDBRANCH  26 120
BRANCH  28 131
HETATM  131  C   UNK N   1      30.319  12.320   2.618  0.00  0.00     0.146 C 
HETATM  132  C   UNK N   1      30.789  10.906   2.350  0.00  0.00     0.042 C 
BRANCH 131 133
HETATM  133  O   UNK N   1      29.353  12.658   1.670  0.00  0.00    -0.393 OA
HETATM  134  H   UNK N   1      28.826  12.386   0.902  0.00  0.00     0.210 HD
ENDBRANCH 131 133
ENDBRANCH  28 131
BRANCH  25 135
HETATM  135  C   UNK N   1      33.202  14.058   5.719  0.00  0.00     0.035 C 
BRANCH 135 136
HETATM  136  C   UNK N   1      33.634  15.418   5.207  0.00  0.00     0.004 C 
BRANCH 136 137
HETATM  137  C   UNK N   1      32.461  16.379   5.168  0.00  0.00     0.019 C 
BRANCH 137 138
HETATM  138  C   UNK N   1      32.734  17.499   4.182  0.00  0.00     0.111 C 
BRANCH 138 139
HETATM  139  N   UNK N   1      31.978  17.284   2.962  0.00  0.00    -0.430 N 
HETATM  140  H   UNK N   1      32.438  16.941   2.119  0.00  0.00     0.149 HD
HETATM  141  H   UNK N   1      30.977  17.479   2.947  0.00  0.00     0.149 HD
ENDBRANCH 138 139
ENDBRANCH 137 138
ENDBRANCH 136 137
ENDBRANCH 135 136
ENDBRANCH  25 135
TORSDOF 33
ENDMDL
MODEL 9
REMARK VINA RESULT:      -6.2      3.006     10.900
REMARK WARNING: 32 MAX_TORS EXCEEDED!!!
REMARK  33 active torsions:
REMARK  status: ('A' for Active; 'I' for Inactive)
REMARK    1  A    between atoms: O_5  and  C_53 
REMARK    2  A    between atoms: O_12  and  C_81 
REMARK    3  A    between atoms: O_16  and  C_104 
REMARK    4  A    between atoms: O_19  and  C_112 
REMARK    5  A    between atoms: N_32  and  C_60 
REMARK    6  A    between atoms: N_34  and  C_86 
REMARK       I    between atoms: N_34  and  C_109 
REMARK    7  A    between atoms: N_35  and  C_87 
REMARK       I    between atoms: N_36  and  C_92 
REMARK    8  A    between atoms: N_38  and  C_111 
REMARK       I    between atoms: N_38  and  C_113 
REMARK    9  A    between atoms: N_39  and  C_114 
REMARK   10  A    between atoms: C_40  and  C_42 
REMARK   11  A    between atoms: C_41  and  C_43 
REMARK   12  A    between atoms: C_42  and  C_44 
REMARK   13  A    between atoms: C_43  and  C_46 
REMARK   14  A    between atoms: C_44  and  C_50 
REMARK   15  A    between atoms: C_47  and  C_53 
REMARK   16  A    between atoms: C_49  and  C_54 
REMARK   17  A    between atoms: C_50  and  C_60 
REMARK   18  A    between atoms: C_54  and  C_67 
REMARK   19  A    between atoms: C_55  and  C_64 
REMARK   20  A    between atoms: C_59  and  C_66 
REMARK   21  A    between atoms: C_61  and  C_63 
REMARK   22  A    between atoms: C_63  and  C_69 
REMARK   23  A    between atoms: C_64  and  C_78 
REMARK   24  A    between atoms: C_65  and  C_77 
REMARK   25  A    between atoms: C_66  and  C_80 
REMARK   26  A    between atoms: C_69  and  C_76 
REMARK   27  A    between atoms: C_75  and  C_81 
REMARK   28  A    between atoms: C_76  and  C_87 
REMARK   29  A    between atoms: C_77  and  C_92 
REMARK   30  A    between atoms: C_95  and  C_104 
REMARK   31  A    between atoms: C_108  and  C_112 
REMARK   32  A    between atoms: C_109  and  C_111 
REMARK   33  A    between atoms: C_113  and  C_114 
ROOT
HETATM    1  S   UNK N   1      26.338  14.453   2.662  0.00  0.00    -0.095 SA
HETATM    2  S   UNK N   1      26.392  13.282   4.458  0.00  0.00    -0.095 SA
HETATM    3  O   UNK N   1      28.628   7.726   3.770  0.00  0.00    -0.271 OA
HETATM    4  O   UNK N   1      28.337   9.749  -0.653  0.00  0.00    -0.271 OA
HETATM    5  O   UNK N   1      31.953   8.096   0.937  0.00  0.00    -0.271 OA
HETATM    6  O   UNK N   1      25.186   9.715   2.057  0.00  0.00    -0.271 OA
HETATM    7  O   UNK N   1      33.069  12.530   0.151  0.00  0.00    -0.271 OA
HETATM    8  O   UNK N   1      22.852  11.429   3.891  0.00  0.00    -0.271 OA
HETATM    9  O   UNK N   1      31.204  12.351   5.249  0.00  0.00    -0.271 OA
HETATM   10  O   UNK N   1      31.089  16.690   2.446  0.00  0.00    -0.271 OA
HETATM   11  O   UNK N   1      27.966  15.225   5.889  0.00  0.00    -0.271 OA
HETATM   12  O   UNK N   1      20.155  11.069   6.103  0.00  0.00    -0.271 OA
HETATM   13  O   UNK N   1      21.853  15.771   5.933  0.00  0.00    -0.271 OA
HETATM   14  N   UNK N   1      29.199   7.927   1.613  0.00  0.00    -0.346 N 
HETATM   15  N   UNK N   1      31.915   7.994   3.175  0.00  0.00    -0.346 N 
HETATM   16  N   UNK N   1      27.496  10.852   1.087  0.00  0.00    -0.344 N 
HETATM   17  N   UNK N   1      33.322  10.469   0.949  0.00  0.00    -0.346 N 
HETATM   18  N   UNK N   1      25.540  10.224   4.213  0.00  0.00    -0.346 N 
HETATM   19  N   UNK N   1      32.472  12.021   3.439  0.00  0.00    -0.346 N 
HETATM   20  N   UNK N   1      32.082  14.981   3.455  0.00  0.00    -0.346 N 
HETATM   21  N   UNK N   1      30.007  16.035   5.567  0.00  0.00    -0.346 N 
HETATM   22  N   UNK N   1      22.944  11.316   6.129  0.00  0.00    -0.344 N 
HETATM   23  N   UNK N   1      19.948  13.059   5.133  0.00  0.00    -0.344 N 
HETATM   24  N   UNK N   1      22.665  14.451   4.309  0.00  0.00    -0.344 N 
HETATM   25  C   UNK N   1      27.887   8.399   1.232  0.00  0.00     0.176 C 
HETATM   26  C   UNK N   1      30.825   7.050   3.298  0.00  0.00     0.181 C 
HETATM   27  C   UNK N   1      29.481   7.600   2.904  0.00  0.00     0.241 C 
HETATM   28  C   UNK N   1      27.172  10.950   2.502  0.00  0.00     0.205 C 
HETATM   29  C   UNK N   1      27.925   9.709   0.495  0.00  0.00     0.241 C 
HETATM   30  C   UNK N   1      33.444   9.547   2.056  0.00  0.00     0.180 C 
HETATM   31  C   UNK N   1      32.402   8.474   2.008  0.00  0.00     0.241 C 
HETATM   32  C   UNK N   1      33.461  12.460   2.472  0.00  0.00     0.180 C 
HETATM   33  C   UNK N   1      25.905  10.221   2.905  0.00  0.00     0.243 C 
HETATM   34  C   UNK N   1      24.284   9.764   4.769  0.00  0.00     0.180 C 
HETATM   35  C   UNK N   1      30.957  16.800   4.792  0.00  0.00     0.176 C 
HETATM   36  C   UNK N   1      33.251  11.815   1.123  0.00  0.00     0.241 C 
HETATM   37  C   UNK N   1      32.469  14.234   4.631  0.00  0.00     0.185 C 
HETATM   38  C   UNK N   1      23.291  10.882   4.892  0.00  0.00     0.241 C 
HETATM   39  C   UNK N   1      32.010  12.810   4.455  0.00  0.00     0.241 C 
HETATM   40  C   UNK N   1      31.375  16.139   3.496  0.00  0.00     0.241 C 
HETATM   41  C   UNK N   1      22.050  12.430   6.398  0.00  0.00     0.205 C 
HETATM   42  C   UNK N   1      28.748  15.781   5.138  0.00  0.00     0.241 C 
HETATM   43  C   UNK N   1      28.312  16.199   3.756  0.00  0.00     0.186 C 
HETATM   44  C   UNK N   1      20.666  12.151   5.857  0.00  0.00     0.243 C 
HETATM   45  C   UNK N   1      20.251  14.447   4.788  0.00  0.00     0.200 C 
HETATM   46  C   UNK N   1      28.057  15.031   2.802  0.00  0.00     0.120 C 
HETATM   47  C   UNK N   1      21.649  14.930   5.066  0.00  0.00     0.243 C 
HETATM   48  C   UNK N   1      24.059  14.823   4.426  0.00  0.00     0.192 C 
HETATM   49  C   UNK N   1      24.830  13.812   5.248  0.00  0.00     0.122 C 
HETATM   50  H   UNK N   1      29.901   7.840   0.927  0.00  0.00     0.163 HD
HETATM   51  H   UNK N   1      32.335   8.312   4.007  0.00  0.00     0.163 HD
HETATM   52  H   UNK N   1      27.398  11.658   0.530  0.00  0.00     0.163 HD
HETATM   53  H   UNK N   1      33.288  10.108   0.034  0.00  0.00     0.163 HD
HETATM   54  H   UNK N   1      26.200  10.578   4.852  0.00  0.00     0.163 HD
HETATM   55  H   UNK N   1      32.115  11.107   3.360  0.00  0.00     0.163 HD
HETATM   56  H   UNK N   1      32.346  14.629   2.575  0.00  0.00     0.163 HD
HETATM   57  H   UNK N   1      30.287  15.685   6.444  0.00  0.00     0.163 HD
HETATM   58  H   UNK N   1      23.327  10.842   6.903  0.00  0.00     0.163 HD
HETATM   59  H   UNK N   1      19.089  12.726   4.789  0.00  0.00     0.163 HD
HETATM   60  H   UNK N   1      22.435  13.791   3.615  0.00  0.00     0.163 HD
ENDROOT
BRANCH  43  61
HETATM   61  N   UNK N   1      27.303  17.242   3.740  0.00  0.00    -0.346 N 
HETATM   62  C   UNK N   1      27.617  18.523   4.077  0.00  0.00     0.236 C 
HETATM   63  O   UNK N   1      28.755  18.812   4.410  0.00  0.00    -0.272 OA
HETATM   64  H   UNK N   1      26.380  17.021   3.482  0.00  0.00     0.163 HD
BRANCH  62  65
HETATM   65  C   UNK N   1      26.602  19.624   3.979  0.00  0.00     0.225 C 
BRANCH  65  66
HETATM   66  N   UNK N   1      27.065  20.881   4.523  0.00  0.00    -0.351 N 
HETATM   67  C   UNK N   1      27.128  21.179   5.848  0.00  0.00     0.239 C 
HETATM   68  O   UNK N   1      27.545  22.278   6.183  0.00  0.00    -0.271 OA
HETATM   69  H   UNK N   1      27.356  21.573   3.886  0.00  0.00     0.163 HD
BRANCH  67  70
HETATM   70  C   UNK N   1      26.659  20.208   6.907  0.00  0.00     0.163 C 
HETATM   71  C   UNK N   1      27.838  19.474   7.517  0.00  0.00     0.041 C 
BRANCH  70  72
HETATM   72  N   UNK N   1      25.927  20.891   7.961  0.00  0.00    -0.419 N 
HETATM   73  H   UNK N   1      25.148  21.297   8.480  0.00  0.00     0.150 HD
HETATM   74  H   UNK N   1      26.694  21.106   8.598  0.00  0.00     0.150 HD
ENDBRANCH  70  72
ENDBRANCH  67  70
ENDBRANCH  65  66
ENDBRANCH  62  65
ENDBRANCH  43  61
BRANCH  35  75
HETATM   75  C   UNK N   1      32.133  17.192   5.659  0.00  0.00     0.035 C 
BRANCH  75  76
HETATM   76  C   UNK N   1      31.743  17.057   7.117  0.00  0.00     0.004 C 
BRANCH  76  77
HETATM   77  C   UNK N   1      32.812  17.687   7.999  0.00  0.00     0.019 C 
BRANCH  77  78
HETATM   78  C   UNK N   1      33.285  16.723   9.080  0.00  0.00     0.111 C 
BRANCH  78  79
HETATM   79  N   UNK N   1      34.441  17.271   9.767  0.00  0.00    -0.430 N 
HETATM   80  H   UNK N   1      34.958  17.321  10.645  0.00  0.00     0.149 HD
HETATM   81  H   UNK N   1      34.946  17.842   9.090  0.00  0.00     0.149 HD
ENDBRANCH  78  79
ENDBRANCH  77  78
ENDBRANCH  76  77
ENDBRANCH  75  76
ENDBRANCH  35  75
BRANCH  48  82
HETATM   82  C   UNK N   1      24.322  16.239   4.836  0.00  0.00     0.164 C 
HETATM   83  O   UNK N   1      24.024  17.153   4.085  0.00  0.00    -0.648 OA
BRANCH  82  84
HETATM   84  O   UNK N   1      24.902  16.505   6.023  0.00  0.00    -0.775 OA
HETATM   85  H   UNK N   1      24.910  17.147   6.705  0.00  0.00     0.167 HD
ENDBRANCH  82  84
ENDBRANCH  48  82
BRANCH  37  86
HETATM   86  C   UNK N   1      33.990  14.212   4.824  0.00  0.00     0.137 C 
BRANCH  86  87
HETATM   87  C   UNK N   1      34.520  14.563   6.178  0.00  0.00     0.217 C 
HETATM   88  O   UNK N   1      35.209  15.559   6.312  0.00  0.00    -0.274 OA
HETATM   89  N   UNK N   1      34.140  13.863   7.266  0.00  0.00    -0.370 N 
HETATM   90  H   UNK N   1      33.732  13.447   8.060  0.00  0.00     0.159 HD
HETATM   91  H   UNK N   1      34.938  13.287   7.273  0.00  0.00     0.159 HD
ENDBRANCH  86  87
ENDBRANCH  37  86
BRANCH  45  92
HETATM   92  C   UNK N   1      19.167  15.370   5.343  0.00  0.00     0.199 C 
BRANCH  92  93
HETATM   93  O   UNK N   1      18.903  16.417   4.462  0.00  0.00    -0.398 OA
HETATM   94  H   UNK N   1      18.375  17.089   4.003  0.00  0.00     0.209 HD
ENDBRANCH  92  93
ENDBRANCH  45  92
BRANCH  32  95
HETATM   95  C   UNK N   1      34.866  12.127   2.983  0.00  0.00     0.073 C 
BRANCH  95  96
HETATM   96  C   UNK N   1      35.989  12.573   2.094  0.00  0.00    -0.056 A 
HETATM   97  C   UNK N   1      37.157  11.808   2.066  0.00  0.00     0.007 A 
HETATM   98  C   UNK N   1      38.226  12.181   1.247  0.00  0.00     0.001 A 
HETATM   99  C   UNK N   1      38.132  13.329   0.455  0.00  0.00     0.000 A 
HETATM  100  C   UNK N   1      36.970  14.105   0.484  0.00  0.00     0.001 A 
HETATM  101  C   UNK N   1      35.900  13.729   1.299  0.00  0.00     0.007 A 
ENDBRANCH  95  96
ENDBRANCH  32  95
BRANCH  41 102
HETATM  102  C   UNK N   1      22.009  12.682   7.906  0.00  0.00     0.146 C 
HETATM  103  C   UNK N   1      23.077  13.685   8.308  0.00  0.00     0.042 C 
BRANCH 102 104
HETATM  104  O   UNK N   1      20.764  13.192   8.274  0.00  0.00    -0.393 OA
HETATM  105  H   UNK N   1      19.970  12.633   8.275  0.00  0.00     0.210 HD
ENDBRANCH 102 104
ENDBRANCH  41 102
BRANCH  30 106
HETATM  106  C   UNK N   1      34.871   9.065   2.319  0.00  0.00     0.073 C 
BRANCH 106 107
HETATM  107  C   UNK N   1      35.106   8.611   3.721  0.00  0.00    -0.056 A 
HETATM  108  C   UNK N   1      34.474   9.250   4.793  0.00  0.00     0.007 A 
HETATM  109  C   UNK N   1      34.718   8.823   6.100  0.00  0.00     0.001 A 
HETATM  110  C   UNK N   1      35.596   7.760   6.338  0.00  0.00     0.000 A 
HETATM  111  C   UNK N   1      36.233   7.127   5.265  0.00  0.00     0.001 A 
HETATM  112  C   UNK N   1      35.991   7.554   3.958  0.00  0.00     0.007 A 
ENDBRANCH 106 107
ENDBRANCH  30 106
BRANCH  34 113
HETATM  113  C   UNK N   1      23.813   8.362   4.332  0.00  0.00     0.073 C 
BRANCH 113 114
HETATM  114  C   UNK N   1      22.349   8.081   4.476  0.00  0.00    -0.056 A 
HETATM  115  C   UNK N   1      21.816   7.679   5.709  0.00  0.00     0.007 A 
HETATM  116  C   UNK N   1      20.453   7.395   5.827  0.00  0.00     0.001 A 
HETATM  117  C   UNK N   1      19.620   7.496   4.709  0.00  0.00     0.000 A 
HETATM  118  C   UNK N   1      20.151   7.874   3.473  0.00  0.00     0.001 A 
HETATM  119  C   UNK N   1      21.514   8.161   3.356  0.00  0.00     0.007 A 
ENDBRANCH 113 114
ENDBRANCH  34 113
BRANCH  26 120
HETATM  120  C   UNK N   1      31.158   5.597   2.917  0.00  0.00     0.075 C 
BRANCH 120 121
HETATM  121  C   UNK N   1      32.490   5.044   3.333  0.00  0.00    -0.028 A 
HETATM  122  C   UNK N   1      32.953   4.897   4.614  0.00  0.00    -0.002 A 
HETATM  123  C   UNK N   1      34.167   4.273   4.528  0.00  0.00     0.042 A 
HETATM  124  C   UNK N   1      32.388   5.234   5.842  0.00  0.00     0.014 A 
HETATM  125  N   UNK N   1      34.487   4.015   3.249  0.00  0.00    -0.365 N 
HETATM  126  C   UNK N   1      34.910   3.942   5.655  0.00  0.00     0.030 A 
HETATM  127  C   UNK N   1      33.451   4.472   2.506  0.00  0.00     0.096 A 
HETATM  128  H   UNK N   1      35.308   3.581   2.919  0.00  0.00     0.165 HD
HETATM  129  C   UNK N   1      34.370   4.271   6.912  0.00  0.00     0.002 A 
HETATM  130  C   UNK N   1      33.114   4.913   7.006  0.00  0.00     0.001 A 
ENDBRANCH 120 121
ENDBRANCH  26 120
BRANCH  28 131
HETATM  131  C   UNK N   1      28.416  10.633   3.341  0.00  0.00     0.146 C 
HETATM  132  C   UNK N   1      29.609  11.322   2.713  0.00  0.00     0.042 C 
BRANCH 131 133
HETATM  133  O   UNK N   1      28.287  11.071   4.658  0.00  0.00    -0.393 OA
HETATM  134  H   UNK N   1      27.992  10.878   5.562  0.00  0.00     0.210 HD
ENDBRANCH 131 133
ENDBRANCH  28 131
BRANCH  25 135
HETATM  135  C   UNK N   1      27.151   7.352   0.410  0.00  0.00     0.035 C 
BRANCH 135 136
HETATM  136  C   UNK N   1      28.111   6.262  -0.025  0.00  0.00     0.004 C 
BRANCH 136 137
HETATM  137  C   UNK N   1      28.304   6.278  -1.530  0.00  0.00     0.019 C 
BRANCH 137 138
HETATM  138  C   UNK N   1      27.100   6.906  -2.204  0.00  0.00     0.111 C 
BRANCH 138 139
HETATM  139  N   UNK N   1      27.528   7.947  -3.121  0.00  0.00    -0.430 N 
HETATM  140  H   UNK N   1      27.983   8.791  -2.773  0.00  0.00     0.149 HD
HETATM  141  H   UNK N   1      27.374   7.833  -4.122  0.00  0.00     0.149 HD
ENDBRANCH 138 139
ENDBRANCH 137 138
ENDBRANCH 136 137
ENDBRANCH 135 136
ENDBRANCH  25 135
TORSDOF 33
ENDMDL
