REMARK  4 active torsions:
REMARK  status: ('A' for Active; 'I' for Inactive)
REMARK    1  A    between atoms: N_3  and  C_6 
REMARK    2  A    between atoms: N_4  and  C_5 
REMARK    3  A    between atoms: C_5  and  C_6 
REMARK    4  A    between atoms: C_16  and  C_22 
ROOT
HETATM    1  S   UNK N   1       3.950  -3.895   0.174  0.00  0.00    -0.086 SA
HETATM    2  N   UNK N   1       3.599  -0.791  -0.536  0.00  0.00    -0.343 N 
HETATM    3  C   UNK N   1       4.920  -1.263  -0.221  0.00  0.00     0.053 A 
HETATM    4  C   UNK N   1       2.416  -1.587  -0.375  0.00  0.00     0.052 A 
HETATM    5  C   UNK N   1       5.182  -2.608   0.133  0.00  0.00     0.032 A 
HETATM    6  C   UNK N   1       2.451  -2.955  -0.028  0.00  0.00     0.032 A 
HETATM    7  C   UNK N   1       6.006  -0.362  -0.250  0.00  0.00     0.046 A 
HETATM    8  C   UNK N   1       1.155  -0.976  -0.546  0.00  0.00     0.031 A 
HETATM    9  C   UNK N   1       7.310  -0.769   0.068  0.00  0.00     0.011 A 
HETATM   10  C   UNK N   1       6.487  -3.007   0.441  0.00  0.00     0.022 A 
HETATM   11  C   UNK N   1       1.253  -3.661   0.138  0.00  0.00     0.021 A 
HETATM   12  C   UNK N   1       7.540  -2.101   0.414  0.00  0.00     0.016 A 
HETATM   13  C   UNK N   1      -0.029  -1.688  -0.374  0.00  0.00     0.002 A 
HETATM   14  C   UNK N   1       0.020  -3.034  -0.027  0.00  0.00     0.002 A 
ENDROOT
BRANCH   2  15
HETATM   15  C   UNK N   1       3.418   0.572  -1.027  0.00  0.00     0.164 C 
BRANCH  15  16
HETATM   16  C   UNK N   1       3.631   1.646   0.042  0.00  0.00     0.236 C 
HETATM   17  C   UNK N   1       2.954   1.296   1.373  0.00  0.00     0.044 C 
BRANCH  16  18
HETATM   18  N   UNK N   1       3.211   2.952  -0.490  0.00  0.00     0.085 N 
HETATM   19  C   UNK N   1       1.758   3.104  -0.489  0.00  0.00     0.310 C 
HETATM   20  C   UNK N   1       3.780   4.016   0.319  0.00  0.00     0.310 C 
ENDBRANCH  16  18
ENDBRANCH  15  16
ENDBRANCH   2  15
BRANCH   9  21
HETATM   21  C   UNK N   1       8.430   0.197   0.047  0.00  0.00     0.155 C 
HETATM   22  O   UNK N   1       8.227   1.367  -0.237  0.00  0.00    -0.293 OA
HETATM   23  C   UNK N   1       9.823  -0.238   0.378  0.00  0.00     0.096 C 
ENDBRANCH   9  21
TORSDOF 4
