MODEL 1
REMARK VINA RESULT:      -6.1      0.000      0.000
REMARK  4 active torsions:
REMARK  status: ('A' for Active; 'I' for Inactive)
REMARK    1  A    between atoms: N_3  and  C_6 
REMARK    2  A    between atoms: N_4  and  C_5 
REMARK    3  A    between atoms: C_5  and  C_6 
REMARK    4  A    between atoms: C_16  and  C_22 
ROOT
HETATM    1  S   UNK N   1      26.688  24.925  -3.463  0.00  0.00    -0.086 SA
HETATM    2  N   UNK N   1      28.268  23.737  -5.983  0.00  0.00    -0.343 N 
HETATM    3  C   UNK N   1      28.770  23.433  -4.671  0.00  0.00     0.053 A 
HETATM    4  C   UNK N   1      27.216  24.681  -6.227  0.00  0.00     0.052 A 
HETATM    5  C   UNK N   1      28.165  23.929  -3.492  0.00  0.00     0.032 A 
HETATM    6  C   UNK N   1      26.477  25.295  -5.192  0.00  0.00     0.032 A 
HETATM    7  C   UNK N   1      29.916  22.619  -4.536  0.00  0.00     0.046 A 
HETATM    8  C   UNK N   1      26.915  25.037  -7.560  0.00  0.00     0.031 A 
HETATM    9  C   UNK N   1      30.456  22.310  -3.279  0.00  0.00     0.011 A 
HETATM   10  C   UNK N   1      28.705  23.608  -2.242  0.00  0.00     0.022 A 
HETATM   11  C   UNK N   1      25.482  26.228  -5.507  0.00  0.00     0.021 A 
HETATM   12  C   UNK N   1      29.839  22.813  -2.133  0.00  0.00     0.016 A 
HETATM   13  C   UNK N   1      25.926  25.970  -7.860  0.00  0.00     0.002 A 
HETATM   14  C   UNK N   1      25.210  26.570  -6.830  0.00  0.00     0.002 A 
ENDROOT
BRANCH   2  15
HETATM   15  C   UNK N   1      28.854  23.082  -7.149  0.00  0.00     0.164 C 
BRANCH  15  16
HETATM   16  C   UNK N   1      28.258  21.705  -7.448  0.00  0.00     0.236 C 
HETATM   17  C   UNK N   1      29.315  20.593  -7.453  0.00  0.00     0.044 C 
BRANCH  16  18
HETATM   18  N   UNK N   1      27.486  21.769  -8.699  0.00  0.00     0.085 N 
HETATM   19  C   UNK N   1      28.071  20.937  -9.748  0.00  0.00     0.310 C 
HETATM   20  C   UNK N   1      26.128  21.312  -8.460  0.00  0.00     0.310 C 
ENDBRANCH  16  18
ENDBRANCH  15  16
ENDBRANCH   2  15
BRANCH   9  21
HETATM   21  C   UNK N   1      31.667  21.469  -3.162  0.00  0.00     0.155 C 
HETATM   22  O   UNK N   1      32.395  21.572  -2.188  0.00  0.00    -0.293 OA
HETATM   23  C   UNK N   1      32.017  20.478  -4.227  0.00  0.00     0.096 C 
ENDBRANCH   9  21
TORSDOF 4
ENDMDL
MODEL 2
REMARK VINA RESULT:      -6.0     11.145     12.849
REMARK  4 active torsions:
REMARK  status: ('A' for Active; 'I' for Inactive)
REMARK    1  A    between atoms: N_3  and  C_6 
REMARK    2  A    between atoms: N_4  and  C_5 
REMARK    3  A    between atoms: C_5  and  C_6 
REMARK    4  A    between atoms: C_16  and  C_22 
ROOT
HETATM    1  S   UNK N   1      28.567  18.805   8.214  0.00  0.00    -0.086 SA
HETATM    2  N   UNK N   1      29.043  17.686   5.250  0.00  0.00    -0.343 N 
HETATM    3  C   UNK N   1      29.852  17.147   6.310  0.00  0.00     0.053 A 
HETATM    4  C   UNK N   1      28.171  18.814   5.417  0.00  0.00     0.052 A 
HETATM    5  C   UNK N   1      29.742  17.590   7.650  0.00  0.00     0.032 A 
HETATM    6  C   UNK N   1      27.917  19.410   6.671  0.00  0.00     0.032 A 
HETATM    7  C   UNK N   1      30.803  16.146   6.019  0.00  0.00     0.046 A 
HETATM    8  C   UNK N   1      27.555  19.373   4.277  0.00  0.00     0.031 A 
HETATM    9  C   UNK N   1      31.629  15.602   7.014  0.00  0.00     0.011 A 
HETATM   10  C   UNK N   1      30.564  17.036   8.637  0.00  0.00     0.022 A 
HETATM   11  C   UNK N   1      27.074  20.526   6.751  0.00  0.00     0.021 A 
HETATM   12  C   UNK N   1      31.500  16.057   8.326  0.00  0.00     0.016 A 
HETATM   13  C   UNK N   1      26.723  20.485   4.370  0.00  0.00     0.002 A 
HETATM   14  C   UNK N   1      26.485  21.066   5.611  0.00  0.00     0.002 A 
ENDROOT
BRANCH   2  15
HETATM   15  C   UNK N   1      29.108  17.090   3.919  0.00  0.00     0.164 C 
BRANCH  15  16
HETATM   16  C   UNK N   1      28.267  15.821   3.770  0.00  0.00     0.236 C 
HETATM   17  C   UNK N   1      29.034  14.681   3.089  0.00  0.00     0.044 C 
BRANCH  16  18
HETATM   18  N   UNK N   1      27.005  16.151   3.090  0.00  0.00     0.085 N 
HETATM   19  C   UNK N   1      26.738  15.258   1.964  0.00  0.00     0.310 C 
HETATM   20  C   UNK N   1      25.900  16.043   4.027  0.00  0.00     0.310 C 
ENDBRANCH  16  18
ENDBRANCH  15  16
ENDBRANCH   2  15
BRANCH   9  21
HETATM   21  C   UNK N   1      32.630  14.566   6.682  0.00  0.00     0.155 C 
HETATM   22  O   UNK N   1      32.407  13.392   6.933  0.00  0.00    -0.293 OA
HETATM   23  C   UNK N   1      33.926  14.933   6.030  0.00  0.00     0.096 C 
ENDBRANCH   9  21
TORSDOF 4
ENDMDL
MODEL 3
REMARK VINA RESULT:      -6.0      1.973      4.500
REMARK  4 active torsions:
REMARK  status: ('A' for Active; 'I' for Inactive)
REMARK    1  A    between atoms: N_3  and  C_6 
REMARK    2  A    between atoms: N_4  and  C_5 
REMARK    3  A    between atoms: C_5  and  C_6 
REMARK    4  A    between atoms: C_16  and  C_22 
ROOT
HETATM    1  S   UNK N   1      25.839  24.584  -7.464  0.00  0.00    -0.086 SA
HETATM    2  N   UNK N   1      28.209  24.313  -5.326  0.00  0.00    -0.343 N 
HETATM    3  C   UNK N   1      28.065  23.269  -6.304  0.00  0.00     0.053 A 
HETATM    4  C   UNK N   1      27.251  25.365  -5.144  0.00  0.00     0.052 A 
HETATM    5  C   UNK N   1      27.036  23.276  -7.276  0.00  0.00     0.032 A 
HETATM    6  C   UNK N   1      26.147  25.556  -6.004  0.00  0.00     0.032 A 
HETATM    7  C   UNK N   1      28.967  22.184  -6.303  0.00  0.00     0.046 A 
HETATM    8  C   UNK N   1      27.397  26.238  -4.045  0.00  0.00     0.031 A 
HETATM    9  C   UNK N   1      28.856  21.132  -7.224  0.00  0.00     0.011 A 
HETATM   10  C   UNK N   1      26.938  22.227  -8.196  0.00  0.00     0.022 A 
HETATM   11  C   UNK N   1      25.237  26.589  -5.747  0.00  0.00     0.021 A 
HETATM   12  C   UNK N   1      27.832  21.164  -8.171  0.00  0.00     0.016 A 
HETATM   13  C   UNK N   1      26.483  27.258  -3.798  0.00  0.00     0.002 A 
HETATM   14  C   UNK N   1      25.397  27.432  -4.650  0.00  0.00     0.002 A 
ENDROOT
BRANCH   2  15
HETATM   15  C   UNK N   1      29.372  24.316  -4.442  0.00  0.00     0.164 C 
BRANCH  15  16
HETATM   16  C   UNK N   1      29.434  23.112  -3.500  0.00  0.00     0.236 C 
HETATM   17  C   UNK N   1      28.571  23.298  -2.246  0.00  0.00     0.044 C 
BRANCH  16  18
HETATM   18  N   UNK N   1      30.840  22.810  -3.190  0.00  0.00     0.085 N 
HETATM   19  C   UNK N   1      31.135  21.384  -3.309  0.00  0.00     0.310 C 
HETATM   20  C   UNK N   1      31.709  23.532  -4.102  0.00  0.00     0.310 C 
ENDBRANCH  16  18
ENDBRANCH  15  16
ENDBRANCH   2  15
BRANCH   9  21
HETATM   21  C   UNK N   1      29.804  19.997  -7.193  0.00  0.00     0.155 C 
HETATM   22  O   UNK N   1      30.889  20.117  -6.646  0.00  0.00    -0.293 OA
HETATM   23  C   UNK N   1      29.449  18.685  -7.821  0.00  0.00     0.096 C 
ENDBRANCH   9  21
TORSDOF 4
ENDMDL
MODEL 4
REMARK VINA RESULT:      -5.8      2.247      4.364
REMARK  4 active torsions:
REMARK  status: ('A' for Active; 'I' for Inactive)
REMARK    1  A    between atoms: N_3  and  C_6 
REMARK    2  A    between atoms: N_4  and  C_5 
REMARK    3  A    between atoms: C_5  and  C_6 
REMARK    4  A    between atoms: C_16  and  C_22 
ROOT
HETATM    1  S   UNK N   1      29.157  20.479  -8.161  0.00  0.00    -0.086 SA
HETATM    2  N   UNK N   1      28.376  22.685  -5.973  0.00  0.00    -0.343 N 
HETATM    3  C   UNK N   1      29.533  21.869  -5.722  0.00  0.00     0.053 A 
HETATM    4  C   UNK N   1      27.459  22.446  -7.051  0.00  0.00     0.052 A 
HETATM    5  C   UNK N   1      29.949  20.847  -6.608  0.00  0.00     0.032 A 
HETATM    6  C   UNK N   1      27.684  21.474  -8.050  0.00  0.00     0.032 A 
HETATM    7  C   UNK N   1      30.285  22.072  -4.545  0.00  0.00     0.046 A 
HETATM    8  C   UNK N   1      26.265  23.196  -7.108  0.00  0.00     0.031 A 
HETATM    9  C   UNK N   1      31.410  21.290  -4.245  0.00  0.00     0.011 A 
HETATM   10  C   UNK N   1      31.077  20.077  -6.305  0.00  0.00     0.022 A 
HETATM   11  C   UNK N   1      26.730  21.279  -9.057  0.00  0.00     0.021 A 
HETATM   12  C   UNK N   1      31.798  20.289  -5.137  0.00  0.00     0.016 A 
HETATM   13  C   UNK N   1      25.322  22.989  -8.112  0.00  0.00     0.002 A 
HETATM   14  C   UNK N   1      25.554  22.025  -9.088  0.00  0.00     0.002 A 
ENDROOT
BRANCH   2  15
HETATM   15  C   UNK N   1      28.081  23.810  -5.090  0.00  0.00     0.164 C 
BRANCH  15  16
HETATM   16  C   UNK N   1      28.432  25.173  -5.690  0.00  0.00     0.236 C 
HETATM   17  C   UNK N   1      29.919  25.518  -5.542  0.00  0.00     0.044 C 
BRANCH  16  18
HETATM   18  N   UNK N   1      27.544  26.198  -5.120  0.00  0.00     0.085 N 
HETATM   19  C   UNK N   1      26.538  25.621  -4.232  0.00  0.00     0.310 C 
HETATM   20  C   UNK N   1      28.328  27.155  -4.357  0.00  0.00     0.310 C 
ENDBRANCH  16  18
ENDBRANCH  15  16
ENDBRANCH   2  15
BRANCH   9  21
HETATM   21  C   UNK N   1      32.173  21.510  -2.997  0.00  0.00     0.155 C 
HETATM   22  O   UNK N   1      31.678  22.141  -2.077  0.00  0.00    -0.293 OA
HETATM   23  C   UNK N   1      33.557  20.963  -2.839  0.00  0.00     0.096 C 
ENDBRANCH   9  21
TORSDOF 4
ENDMDL
MODEL 5
REMARK VINA RESULT:      -5.8     11.828     13.182
REMARK  4 active torsions:
REMARK  status: ('A' for Active; 'I' for Inactive)
REMARK    1  A    between atoms: N_3  and  C_6 
REMARK    2  A    between atoms: N_4  and  C_5 
REMARK    3  A    between atoms: C_5  and  C_6 
REMARK    4  A    between atoms: C_16  and  C_22 
ROOT
HETATM    1  S   UNK N   1      27.842  17.014   7.285  0.00  0.00    -0.086 SA
HETATM    2  N   UNK N   1      29.723  16.577   4.729  0.00  0.00    -0.343 N 
HETATM    3  C   UNK N   1      30.347  16.967   5.964  0.00  0.00     0.053 A 
HETATM    4  C   UNK N   1      28.301  16.549   4.537  0.00  0.00     0.052 A 
HETATM    5  C   UNK N   1      29.607  17.213   7.145  0.00  0.00     0.032 A 
HETATM    6  C   UNK N   1      27.379  16.764   5.584  0.00  0.00     0.032 A 
HETATM    7  C   UNK N   1      31.748  17.127   6.015  0.00  0.00     0.046 A 
HETATM    8  C   UNK N   1      27.794  16.321   3.239  0.00  0.00     0.031 A 
HETATM    9  C   UNK N   1      32.403  17.525   7.191  0.00  0.00     0.011 A 
HETATM   10  C   UNK N   1      30.268  17.602   8.315  0.00  0.00     0.022 A 
HETATM   11  C   UNK N   1      26.005  16.748   5.314  0.00  0.00     0.021 A 
HETATM   12  C   UNK N   1      31.648  17.761   8.341  0.00  0.00     0.016 A 
HETATM   13  C   UNK N   1      26.425  16.312   2.983  0.00  0.00     0.002 A 
HETATM   14  C   UNK N   1      25.528  16.530   4.023  0.00  0.00     0.002 A 
ENDROOT
BRANCH   2  15
HETATM   15  C   UNK N   1      30.553  16.206   3.587  0.00  0.00     0.164 C 
BRANCH  15  16
HETATM   16  C   UNK N   1      31.175  14.812   3.704  0.00  0.00     0.236 C 
HETATM   17  C   UNK N   1      32.602  14.754   3.147  0.00  0.00     0.044 C 
BRANCH  16  18
HETATM   18  N   UNK N   1      30.276  13.825   3.086  0.00  0.00     0.085 N 
HETATM   19  C   UNK N   1      30.985  12.937   2.167  0.00  0.00     0.310 C 
HETATM   20  C   UNK N   1      29.657  13.012   4.118  0.00  0.00     0.310 C 
ENDBRANCH  16  18
ENDBRANCH  15  16
ENDBRANCH   2  15
BRANCH   9  21
HETATM   21  C   UNK N   1      33.871  17.703   7.216  0.00  0.00     0.155 C 
HETATM   22  O   UNK N   1      34.522  17.581   6.190  0.00  0.00    -0.293 OA
HETATM   23  C   UNK N   1      34.580  18.038   8.490  0.00  0.00     0.096 C 
ENDBRANCH   9  21
TORSDOF 4
ENDMDL
MODEL 6
REMARK VINA RESULT:      -5.8     10.811     13.474
REMARK  4 active torsions:
REMARK  status: ('A' for Active; 'I' for Inactive)
REMARK    1  A    between atoms: N_3  and  C_6 
REMARK    2  A    between atoms: N_4  and  C_5 
REMARK    3  A    between atoms: C_5  and  C_6 
REMARK    4  A    between atoms: C_16  and  C_22 
ROOT
HETATM    1  S   UNK N   1      26.987  19.745   3.668  0.00  0.00    -0.086 SA
HETATM    2  N   UNK N   1      25.105  17.507   4.975  0.00  0.00    -0.343 N 
HETATM    3  C   UNK N   1      24.475  18.567   4.236  0.00  0.00     0.053 A 
HETATM    4  C   UNK N   1      26.501  17.497   5.308  0.00  0.00     0.052 A 
HETATM    5  C   UNK N   1      25.209  19.620   3.642  0.00  0.00     0.032 A 
HETATM    6  C   UNK N   1      27.415  18.455   4.819  0.00  0.00     0.032 A 
HETATM    7  C   UNK N   1      23.070  18.578   4.098  0.00  0.00     0.046 A 
HETATM    8  C   UNK N   1      26.986  16.500   6.182  0.00  0.00     0.031 A 
HETATM    9  C   UNK N   1      22.406  19.600   3.403  0.00  0.00     0.011 A 
HETATM   10  C   UNK N   1      24.540  20.631   2.944  0.00  0.00     0.022 A 
HETATM   11  C   UNK N   1      28.758  18.397   5.209  0.00  0.00     0.021 A 
HETATM   12  C   UNK N   1      23.156  20.627   2.828  0.00  0.00     0.016 A 
HETATM   13  C   UNK N   1      28.323  16.456   6.566  0.00  0.00     0.002 A 
HETATM   14  C   UNK N   1      29.212  17.410   6.081  0.00  0.00     0.002 A 
ENDROOT
BRANCH   2  15
HETATM   15  C   UNK N   1      24.305  16.379   5.443  0.00  0.00     0.164 C 
BRANCH  15  16
HETATM   16  C   UNK N   1      24.308  15.182   4.489  0.00  0.00     0.236 C 
HETATM   17  C   UNK N   1      23.014  15.074   3.674  0.00  0.00     0.044 C 
BRANCH  16  18
HETATM   18  N   UNK N   1      24.614  13.958   5.245  0.00  0.00     0.085 N 
HETATM   19  C   UNK N   1      24.170  14.044   6.634  0.00  0.00     0.310 C 
HETATM   20  C   UNK N   1      23.953  12.822   4.626  0.00  0.00     0.310 C 
ENDBRANCH  16  18
ENDBRANCH  15  16
ENDBRANCH   2  15
BRANCH   9  21
HETATM   21  C   UNK N   1      20.932  19.601   3.285  0.00  0.00     0.155 C 
HETATM   22  O   UNK N   1      20.278  20.514   3.763  0.00  0.00    -0.293 OA
HETATM   23  C   UNK N   1      20.220  18.492   2.577  0.00  0.00     0.096 C 
ENDBRANCH   9  21
TORSDOF 4
ENDMDL
MODEL 7
REMARK VINA RESULT:      -5.7     13.631     15.494
REMARK  4 active torsions:
REMARK  status: ('A' for Active; 'I' for Inactive)
REMARK    1  A    between atoms: N_3  and  C_6 
REMARK    2  A    between atoms: N_4  and  C_5 
REMARK    3  A    between atoms: C_5  and  C_6 
REMARK    4  A    between atoms: C_16  and  C_22 
ROOT
HETATM    1  S   UNK N   1      22.598  13.568   5.959  0.00  0.00    -0.086 SA
HETATM    2  N   UNK N   1      21.135  16.096   4.645  0.00  0.00    -0.343 N 
HETATM    3  C   UNK N   1      21.032  15.925   6.068  0.00  0.00     0.053 A 
HETATM    4  C   UNK N   1      21.699  15.110   3.769  0.00  0.00     0.052 A 
HETATM    5  C   UNK N   1      21.616  14.829   6.746  0.00  0.00     0.032 A 
HETATM    6  C   UNK N   1      22.335  13.939   4.237  0.00  0.00     0.032 A 
HETATM    7  C   UNK N   1      20.314  16.871   6.833  0.00  0.00     0.046 A 
HETATM    8  C   UNK N   1      21.596  15.298   2.374  0.00  0.00     0.031 A 
HETATM    9  C   UNK N   1      20.168  16.738   8.221  0.00  0.00     0.011 A 
HETATM   10  C   UNK N   1      21.473  14.709   8.133  0.00  0.00     0.022 A 
HETATM   11  C   UNK N   1      22.838  13.007   3.321  0.00  0.00     0.021 A 
HETATM   12  C   UNK N   1      20.755  15.647   8.864  0.00  0.00     0.016 A 
HETATM   13  C   UNK N   1      22.097  14.362   1.473  0.00  0.00     0.002 A 
HETATM   14  C   UNK N   1      22.716  13.211   1.948  0.00  0.00     0.002 A 
ENDROOT
BRANCH   2  15
HETATM   15  C   UNK N   1      20.629  17.319   4.026  0.00  0.00     0.164 C 
BRANCH  15  16
HETATM   16  C   UNK N   1      21.724  18.319   3.652  0.00  0.00     0.236 C 
HETATM   17  C   UNK N   1      22.872  18.346   4.669  0.00  0.00     0.044 C 
BRANCH  16  18
HETATM   18  N   UNK N   1      21.120  19.643   3.432  0.00  0.00     0.085 N 
HETATM   19  C   UNK N   1      21.955  20.495   2.590  0.00  0.00     0.310 C 
HETATM   20  C   UNK N   1      19.828  19.490   2.786  0.00  0.00     0.310 C 
ENDBRANCH  16  18
ENDBRANCH  15  16
ENDBRANCH   2  15
BRANCH   9  21
HETATM   21  C   UNK N   1      19.397  17.732   8.999  0.00  0.00     0.155 C 
HETATM   22  O   UNK N   1      19.903  18.801   9.302  0.00  0.00    -0.293 OA
HETATM   23  C   UNK N   1      17.990  17.450   9.421  0.00  0.00     0.096 C 
ENDBRANCH   9  21
TORSDOF 4
ENDMDL
MODEL 8
REMARK VINA RESULT:      -5.6     10.785     12.668
REMARK  4 active torsions:
REMARK  status: ('A' for Active; 'I' for Inactive)
REMARK    1  A    between atoms: N_3  and  C_6 
REMARK    2  A    between atoms: N_4  and  C_5 
REMARK    3  A    between atoms: C_5  and  C_6 
REMARK    4  A    between atoms: C_16  and  C_22 
ROOT
HETATM    1  S   UNK N   1      23.180  20.563   3.108  0.00  0.00    -0.086 SA
HETATM    2  N   UNK N   1      23.422  17.478   3.936  0.00  0.00    -0.343 N 
HETATM    3  C   UNK N   1      24.635  18.242   3.829  0.00  0.00     0.053 A 
HETATM    4  C   UNK N   1      22.140  17.969   3.521  0.00  0.00     0.052 A 
HETATM    5  C   UNK N   1      24.644  19.604   3.444  0.00  0.00     0.032 A 
HETATM    6  C   UNK N   1      21.924  19.299   3.101  0.00  0.00     0.032 A 
HETATM    7  C   UNK N   1      25.874  17.624   4.105  0.00  0.00     0.046 A 
HETATM    8  C   UNK N   1      21.043  17.080   3.505  0.00  0.00     0.031 A 
HETATM    9  C   UNK N   1      27.086  18.321   3.996  0.00  0.00     0.011 A 
HETATM   10  C   UNK N   1      25.857  20.294   3.347  0.00  0.00     0.022 A 
HETATM   11  C   UNK N   1      20.649  19.699   2.684  0.00  0.00     0.021 A 
HETATM   12  C   UNK N   1      27.065  19.663   3.614  0.00  0.00     0.016 A 
HETATM   13  C   UNK N   1      19.780  17.489   3.084  0.00  0.00     0.002 A 
HETATM   14  C   UNK N   1      19.583  18.802   2.668  0.00  0.00     0.002 A 
ENDROOT
BRANCH   2  15
HETATM   15  C   UNK N   1      23.470  16.120   4.471  0.00  0.00     0.164 C 
BRANCH  15  16
HETATM   16  C   UNK N   1      23.444  16.058   6.000  0.00  0.00     0.236 C 
HETATM   17  C   UNK N   1      24.652  15.314   6.581  0.00  0.00     0.044 C 
BRANCH  16  18
HETATM   18  N   UNK N   1      22.157  15.498   6.442  0.00  0.00     0.085 N 
HETATM   19  C   UNK N   1      22.333  14.397   7.386  0.00  0.00     0.310 C 
HETATM   20  C   UNK N   1      21.370  16.532   7.091  0.00  0.00     0.310 C 
ENDBRANCH  16  18
ENDBRANCH  15  16
ENDBRANCH   2  15
BRANCH   9  21
HETATM   21  C   UNK N   1      28.373  17.648   4.273  0.00  0.00     0.155 C 
HETATM   22  O   UNK N   1      28.904  16.960   3.415  0.00  0.00    -0.293 OA
HETATM   23  C   UNK N   1      29.048  17.801   5.600  0.00  0.00     0.096 C 
ENDBRANCH   9  21
TORSDOF 4
ENDMDL
MODEL 9
REMARK VINA RESULT:      -5.6     13.895     17.661
REMARK  4 active torsions:
REMARK  status: ('A' for Active; 'I' for Inactive)
REMARK    1  A    between atoms: N_3  and  C_6 
REMARK    2  A    between atoms: N_4  and  C_5 
REMARK    3  A    between atoms: C_5  and  C_6 
REMARK    4  A    between atoms: C_16  and  C_22 
ROOT
HETATM    1  S   UNK N   1      34.424  17.453   8.943  0.00  0.00    -0.086 SA
HETATM    2  N   UNK N   1      35.522  14.724   7.674  0.00  0.00    -0.343 N 
HETATM    3  C   UNK N   1      34.753  15.597   6.829  0.00  0.00     0.053 A 
HETATM    4  C   UNK N   1      35.669  14.921   9.088  0.00  0.00     0.052 A 
HETATM    5  C   UNK N   1      34.198  16.812   7.296  0.00  0.00     0.032 A 
HETATM    6  C   UNK N   1      35.192  16.068   9.758  0.00  0.00     0.032 A 
HETATM    7  C   UNK N   1      34.523  15.237   5.483  0.00  0.00     0.046 A 
HETATM    8  C   UNK N   1      36.298  13.916   9.854  0.00  0.00     0.031 A 
HETATM    9  C   UNK N   1      33.763  16.044   4.624  0.00  0.00     0.011 A 
HETATM   10  C   UNK N   1      33.448  17.615   6.430  0.00  0.00     0.022 A 
HETATM   11  C   UNK N   1      35.348  16.178  11.145  0.00  0.00     0.021 A 
HETATM   12  C   UNK N   1      33.227  17.237   5.111  0.00  0.00     0.016 A 
HETATM   13  C   UNK N   1      36.444  14.035  11.233  0.00  0.00     0.002 A 
HETATM   14  C   UNK N   1      35.964  15.168  11.882  0.00  0.00     0.002 A 
ENDROOT
BRANCH   2  15
HETATM   15  C   UNK N   1      36.181  13.557   7.096  0.00  0.00     0.164 C 
BRANCH  15  16
HETATM   16  C   UNK N   1      37.673  13.763   6.824  0.00  0.00     0.236 C 
HETATM   17  C   UNK N   1      37.944  14.355   5.435  0.00  0.00     0.044 C 
BRANCH  16  18
HETATM   18  N   UNK N   1      38.390  12.500   7.059  0.00  0.00     0.085 N 
HETATM   19  C   UNK N   1      39.284  12.581   8.212  0.00  0.00     0.310 C 
HETATM   20  C   UNK N   1      37.434  11.432   7.300  0.00  0.00     0.310 C 
ENDBRANCH  16  18
ENDBRANCH  15  16
ENDBRANCH   2  15
BRANCH   9  21
HETATM   21  C   UNK N   1      33.521  15.639   3.222  0.00  0.00     0.155 C 
HETATM   22  O   UNK N   1      32.832  16.333   2.492  0.00  0.00    -0.293 OA
HETATM   23  C   UNK N   1      34.120  14.382   2.675  0.00  0.00     0.096 C 
ENDBRANCH   9  21
TORSDOF 4
ENDMDL
