MODEL 1
REMARK VINA RESULT:      -4.8      0.000      0.000
REMARK  9 active torsions:
REMARK  status: ('A' for Active; 'I' for Inactive)
REMARK    1  A    between atoms: N_1  and  C_2 
REMARK    2  A    between atoms: N_1  and  C_3 
REMARK    3  A    between atoms: N_1  and  C_6 
REMARK    4  A    between atoms: C_2  and  C_4 
REMARK    5  A    between atoms: C_3  and  C_5 
REMARK    6  A    between atoms: C_4  and  C_7 
REMARK    7  A    between atoms: C_5  and  C_8 
REMARK    8  A    between atoms: C_7  and  C_10 
REMARK    9  A    between atoms: C_8  and  C_11 
ROOT
HETATM    1  N   UNK N   1      26.153  23.417  -9.628  0.00  0.00     0.088 N 
ENDROOT
BRANCH   1   2
HETATM    2  C   UNK N   1      26.690  24.769  -9.769  0.00  0.00     0.272 C 
BRANCH   2   3
HETATM    3  C   UNK N   1      26.027  25.718  -8.787  0.00  0.00     0.035 C 
BRANCH   3   4
HETATM    4  C   UNK N   1      27.053  26.660  -8.184  0.00  0.00     0.040 C 
BRANCH   4   5
HETATM    5  C   UNK N   1      26.563  27.160  -6.868  0.00  0.00    -0.058 A 
HETATM    6  C   UNK N   1      25.261  26.861  -6.456  0.00  0.00     0.007 A 
HETATM    7  C   UNK N   1      24.801  27.312  -5.215  0.00  0.00     0.001 A 
HETATM    8  C   UNK N   1      25.640  28.065  -4.388  0.00  0.00     0.000 A 
HETATM    9  C   UNK N   1      26.941  28.370  -4.801  0.00  0.00     0.001 A 
HETATM   10  C   UNK N   1      27.402  27.917  -6.041  0.00  0.00     0.007 A 
ENDBRANCH   4   5
ENDBRANCH   3   4
ENDBRANCH   2   3
ENDBRANCH   1   2
BRANCH   1  11
HETATM   11  C   UNK N   1      25.317  23.324  -8.428  0.00  0.00     0.272 C 
BRANCH  11  12
HETATM   12  C   UNK N   1      25.954  22.514  -7.296  0.00  0.00     0.035 C 
BRANCH  12  13
HETATM   13  C   UNK N   1      25.541  23.126  -5.971  0.00  0.00     0.040 C 
BRANCH  13  14
HETATM   14  C   UNK N   1      26.694  23.806  -5.313  0.00  0.00    -0.058 A 
HETATM   15  C   UNK N   1      27.937  23.895  -5.961  0.00  0.00     0.007 A 
HETATM   16  C   UNK N   1      29.011  24.526  -5.330  0.00  0.00     0.001 A 
HETATM   17  C   UNK N   1      28.854  25.060  -4.048  0.00  0.00     0.000 A 
HETATM   18  C   UNK N   1      27.618  24.966  -3.398  0.00  0.00     0.001 A 
HETATM   19  C   UNK N   1      26.541  24.342  -4.031  0.00  0.00     0.007 A 
ENDBRANCH  13  14
ENDBRANCH  12  13
ENDBRANCH  11  12
ENDBRANCH   1  11
BRANCH   1  20
HETATM   20  C   UNK N   1      27.247  22.454  -9.553  0.00  0.00     0.268 C 
HETATM   21  C   UNK N   1      28.568  23.150  -9.830  0.00  0.00     0.037 C 
ENDBRANCH   1  20
TORSDOF 9
ENDMDL
MODEL 2
REMARK VINA RESULT:      -4.7      0.796      3.744
REMARK  9 active torsions:
REMARK  status: ('A' for Active; 'I' for Inactive)
REMARK    1  A    between atoms: N_1  and  C_2 
REMARK    2  A    between atoms: N_1  and  C_3 
REMARK    3  A    between atoms: N_1  and  C_6 
REMARK    4  A    between atoms: C_2  and  C_4 
REMARK    5  A    between atoms: C_3  and  C_5 
REMARK    6  A    between atoms: C_4  and  C_7 
REMARK    7  A    between atoms: C_5  and  C_8 
REMARK    8  A    between atoms: C_7  and  C_10 
REMARK    9  A    between atoms: C_8  and  C_11 
ROOT
HETATM    1  N   UNK N   1      26.924  23.663  -9.663  0.00  0.00     0.088 N 
ENDROOT
BRANCH   1   2
HETATM    2  C   UNK N   1      26.093  22.650  -9.017  0.00  0.00     0.272 C 
BRANCH   2   3
HETATM    3  C   UNK N   1      26.670  22.258  -7.668  0.00  0.00     0.035 C 
BRANCH   3   4
HETATM    4  C   UNK N   1      25.835  22.844  -6.543  0.00  0.00     0.040 C 
BRANCH   4   5
HETATM    5  C   UNK N   1      26.707  23.637  -5.632  0.00  0.00    -0.058 A 
HETATM    6  C   UNK N   1      28.018  23.936  -6.014  0.00  0.00     0.007 A 
HETATM    7  C   UNK N   1      28.835  24.695  -5.171  0.00  0.00     0.001 A 
HETATM    8  C   UNK N   1      28.345  25.150  -3.944  0.00  0.00     0.000 A 
HETATM    9  C   UNK N   1      27.036  24.846  -3.556  0.00  0.00     0.001 A 
HETATM   10  C   UNK N   1      26.217  24.089  -4.400  0.00  0.00     0.007 A 
ENDBRANCH   4   5
ENDBRANCH   3   4
ENDBRANCH   2   3
ENDBRANCH   1   2
BRANCH   1  11
HETATM   11  C   UNK N   1      26.100  24.792 -10.105  0.00  0.00     0.272 C 
BRANCH  11  12
HETATM   12  C   UNK N   1      25.639  25.700  -8.963  0.00  0.00     0.035 C 
BRANCH  12  13
HETATM   13  C   UNK N   1      26.846  26.431  -8.407  0.00  0.00     0.040 C 
BRANCH  13  14
HETATM   14  C   UNK N   1      26.532  27.061  -7.092  0.00  0.00    -0.058 A 
HETATM   15  C   UNK N   1      25.294  26.836  -6.468  0.00  0.00     0.007 A 
HETATM   16  C   UNK N   1      25.008  27.439  -5.242  0.00  0.00     0.001 A 
HETATM   17  C   UNK N   1      25.949  28.278  -4.639  0.00  0.00     0.000 A 
HETATM   18  C   UNK N   1      27.180  28.510  -5.262  0.00  0.00     0.001 A 
HETATM   19  C   UNK N   1      27.470  27.900  -6.486  0.00  0.00     0.007 A 
ENDBRANCH  13  14
ENDBRANCH  12  13
ENDBRANCH  11  12
ENDBRANCH   1  11
BRANCH   1  20
HETATM   20  C   UNK N   1      27.623  23.077 -10.803  0.00  0.00     0.268 C 
HETATM   21  C   UNK N   1      27.933  24.154 -11.828  0.00  0.00     0.037 C 
ENDBRANCH   1  20
TORSDOF 9
ENDMDL
MODEL 3
REMARK VINA RESULT:      -4.7      2.538      5.036
REMARK  9 active torsions:
REMARK  status: ('A' for Active; 'I' for Inactive)
REMARK    1  A    between atoms: N_1  and  C_2 
REMARK    2  A    between atoms: N_1  and  C_3 
REMARK    3  A    between atoms: N_1  and  C_6 
REMARK    4  A    between atoms: C_2  and  C_4 
REMARK    5  A    between atoms: C_3  and  C_5 
REMARK    6  A    between atoms: C_4  and  C_7 
REMARK    7  A    between atoms: C_5  and  C_8 
REMARK    8  A    between atoms: C_7  and  C_10 
REMARK    9  A    between atoms: C_8  and  C_11 
ROOT
HETATM    1  N   UNK N   1      30.300  28.147  -4.066  0.00  0.00     0.088 N 
ENDROOT
BRANCH   1   2
HETATM    2  C   UNK N   1      29.571  28.960  -3.094  0.00  0.00     0.272 C 
BRANCH   2   3
HETATM    3  C   UNK N   1      28.092  28.617  -3.105  0.00  0.00     0.035 C 
BRANCH   3   4
HETATM    4  C   UNK N   1      27.376  29.392  -4.197  0.00  0.00     0.040 C 
BRANCH   4   5
HETATM    5  C   UNK N   1      26.724  28.442  -5.142  0.00  0.00    -0.058 A 
HETATM    6  C   UNK N   1      25.453  27.939  -4.849  0.00  0.00     0.007 A 
HETATM    7  C   UNK N   1      24.828  27.060  -5.740  0.00  0.00     0.001 A 
HETATM    8  C   UNK N   1      25.475  26.681  -6.920  0.00  0.00     0.000 A 
HETATM    9  C   UNK N   1      26.749  27.179  -7.211  0.00  0.00     0.001 A 
HETATM   10  C   UNK N   1      27.373  28.059  -6.322  0.00  0.00     0.007 A 
ENDBRANCH   4   5
ENDBRANCH   3   4
ENDBRANCH   2   3
ENDBRANCH   1   2
BRANCH   1  11
HETATM   11  C   UNK N   1      31.056  27.093  -3.384  0.00  0.00     0.272 C 
BRANCH  11  12
HETATM   12  C   UNK N   1      30.429  25.703  -3.514  0.00  0.00     0.035 C 
BRANCH  12  13
HETATM   13  C   UNK N   1      29.936  25.525  -4.937  0.00  0.00     0.040 C 
BRANCH  13  14
HETATM   14  C   UNK N   1      28.600  24.862  -4.963  0.00  0.00    -0.058 A 
HETATM   15  C   UNK N   1      28.217  24.068  -6.055  0.00  0.00     0.007 A 
HETATM   16  C   UNK N   1      26.959  23.461  -6.071  0.00  0.00     0.001 A 
HETATM   17  C   UNK N   1      26.076  23.653  -5.006  0.00  0.00     0.000 A 
HETATM   18  C   UNK N   1      26.453  24.451  -3.920  0.00  0.00     0.001 A 
HETATM   19  C   UNK N   1      27.714  25.052  -3.899  0.00  0.00     0.007 A 
ENDBRANCH  13  14
ENDBRANCH  12  13
ENDBRANCH  11  12
ENDBRANCH   1  11
BRANCH   1  20
HETATM   20  C   UNK N   1      31.204  28.992  -4.840  0.00  0.00     0.268 C 
HETATM   21  C   UNK N   1      30.984  28.761  -6.325  0.00  0.00     0.037 C 
ENDBRANCH   1  20
TORSDOF 9
ENDMDL
MODEL 4
REMARK VINA RESULT:      -4.6      2.619      4.685
REMARK  9 active torsions:
REMARK  status: ('A' for Active; 'I' for Inactive)
REMARK    1  A    between atoms: N_1  and  C_2 
REMARK    2  A    between atoms: N_1  and  C_3 
REMARK    3  A    between atoms: N_1  and  C_6 
REMARK    4  A    between atoms: C_2  and  C_4 
REMARK    5  A    between atoms: C_3  and  C_5 
REMARK    6  A    between atoms: C_4  and  C_7 
REMARK    7  A    between atoms: C_5  and  C_8 
REMARK    8  A    between atoms: C_7  and  C_10 
REMARK    9  A    between atoms: C_8  and  C_11 
ROOT
HETATM    1  N   UNK N   1      29.522  23.207  -4.363  0.00  0.00     0.088 N 
ENDROOT
BRANCH   1   2
HETATM    2  C   UNK N   1      28.937  22.956  -5.678  0.00  0.00     0.272 C 
BRANCH   2   3
HETATM    3  C   UNK N   1      27.728  23.845  -5.909  0.00  0.00     0.035 C 
BRANCH   3   4
HETATM    4  C   UNK N   1      26.937  24.011  -4.623  0.00  0.00     0.040 C 
BRANCH   4   5
HETATM    5  C   UNK N   1      26.301  25.358  -4.595  0.00  0.00    -0.058 A 
HETATM    6  C   UNK N   1      26.559  26.223  -3.527  0.00  0.00     0.007 A 
HETATM    7  C   UNK N   1      25.979  27.494  -3.503  0.00  0.00     0.001 A 
HETATM    8  C   UNK N   1      25.139  27.901  -4.544  0.00  0.00     0.000 A 
HETATM    9  C   UNK N   1      24.875  27.035  -5.610  0.00  0.00     0.001 A 
HETATM   10  C   UNK N   1      25.456  25.764  -5.635  0.00  0.00     0.007 A 
ENDBRANCH   4   5
ENDBRANCH   3   4
ENDBRANCH   2   3
ENDBRANCH   1   2
BRANCH   1  11
HETATM   11  C   UNK N   1      30.551  24.247  -4.454  0.00  0.00     0.272 C 
BRANCH  11  12
HETATM   12  C   UNK N   1      30.174  25.550  -3.746  0.00  0.00     0.035 C 
BRANCH  12  13
HETATM   13  C   UNK N   1      30.799  26.709  -4.498  0.00  0.00     0.040 C 
BRANCH  13  14
HETATM   14  C   UNK N   1      29.766  27.487  -5.240  0.00  0.00    -0.058 A 
HETATM   15  C   UNK N   1      29.231  27.000  -6.443  0.00  0.00     0.007 A 
HETATM   16  C   UNK N   1      28.270  27.744  -7.133  0.00  0.00     0.001 A 
HETATM   17  C   UNK N   1      27.849  28.978  -6.633  0.00  0.00     0.000 A 
HETATM   18  C   UNK N   1      28.386  29.469  -5.438  0.00  0.00     0.001 A 
HETATM   19  C   UNK N   1      29.341  28.723  -4.743  0.00  0.00     0.007 A 
ENDBRANCH  13  14
ENDBRANCH  12  13
ENDBRANCH  11  12
ENDBRANCH   1  11
BRANCH   1  20
HETATM   20  C   UNK N   1      30.100  21.976  -3.834  0.00  0.00     0.268 C 
HETATM   21  C   UNK N   1      30.454  21.039  -4.976  0.00  0.00     0.037 C 
ENDBRANCH   1  20
TORSDOF 9
ENDMDL
MODEL 5
REMARK VINA RESULT:      -4.6      1.790      3.490
REMARK  9 active torsions:
REMARK  status: ('A' for Active; 'I' for Inactive)
REMARK    1  A    between atoms: N_1  and  C_2 
REMARK    2  A    between atoms: N_1  and  C_3 
REMARK    3  A    between atoms: N_1  and  C_6 
REMARK    4  A    between atoms: C_2  and  C_4 
REMARK    5  A    between atoms: C_3  and  C_5 
REMARK    6  A    between atoms: C_4  and  C_7 
REMARK    7  A    between atoms: C_5  and  C_8 
REMARK    8  A    between atoms: C_7  and  C_10 
REMARK    9  A    between atoms: C_8  and  C_11 
ROOT
HETATM    1  N   UNK N   1      27.926  22.551  -7.240  0.00  0.00     0.088 N 
ENDROOT
BRANCH   1   2
HETATM    2  C   UNK N   1      27.177  23.628  -7.885  0.00  0.00     0.272 C 
BRANCH   2   3
HETATM    3  C   UNK N   1      25.850  23.857  -7.183  0.00  0.00     0.035 C 
BRANCH   3   4
HETATM    4  C   UNK N   1      26.024  23.766  -5.677  0.00  0.00     0.040 C 
BRANCH   4   5
HETATM    5  C   UNK N   1      25.877  25.120  -5.073  0.00  0.00    -0.058 A 
HETATM    6  C   UNK N   1      26.447  25.386  -3.825  0.00  0.00     0.007 A 
HETATM    7  C   UNK N   1      26.329  26.659  -3.260  0.00  0.00     0.001 A 
HETATM    8  C   UNK N   1      25.637  27.666  -3.940  0.00  0.00     0.000 A 
HETATM    9  C   UNK N   1      25.060  27.400  -5.186  0.00  0.00     0.001 A 
HETATM   10  C   UNK N   1      25.181  26.128  -5.752  0.00  0.00     0.007 A 
ENDBRANCH   4   5
ENDBRANCH   3   4
ENDBRANCH   2   3
ENDBRANCH   1   2
BRANCH   1  11
HETATM   11  C   UNK N   1      29.256  23.023  -6.843  0.00  0.00     0.272 C 
BRANCH  11  12
HETATM   12  C   UNK N   1      29.519  24.489  -7.193  0.00  0.00     0.035 C 
BRANCH  12  13
HETATM   13  C   UNK N   1      29.673  25.275  -5.905  0.00  0.00     0.040 C 
BRANCH  13  14
HETATM   14  C   UNK N   1      29.120  26.652  -6.048  0.00  0.00    -0.058 A 
HETATM   15  C   UNK N   1      28.387  27.014  -7.190  0.00  0.00     0.007 A 
HETATM   16  C   UNK N   1      27.882  28.310  -7.316  0.00  0.00     0.001 A 
HETATM   17  C   UNK N   1      28.116  29.253  -6.312  0.00  0.00     0.000 A 
HETATM   18  C   UNK N   1      28.853  28.897  -5.176  0.00  0.00     0.001 A 
HETATM   19  C   UNK N   1      29.351  27.598  -5.046  0.00  0.00     0.007 A 
ENDBRANCH  13  14
ENDBRANCH  12  13
ENDBRANCH  11  12
ENDBRANCH   1  11
BRANCH   1  20
HETATM   20  C   UNK N   1      28.049  21.418  -8.152  0.00  0.00     0.268 C 
HETATM   21  C   UNK N   1      29.047  20.416  -7.600  0.00  0.00     0.037 C 
ENDBRANCH   1  20
TORSDOF 9
ENDMDL
MODEL 6
REMARK VINA RESULT:      -4.5      1.430      4.122
REMARK  9 active torsions:
REMARK  status: ('A' for Active; 'I' for Inactive)
REMARK    1  A    between atoms: N_1  and  C_2 
REMARK    2  A    between atoms: N_1  and  C_3 
REMARK    3  A    between atoms: N_1  and  C_6 
REMARK    4  A    between atoms: C_2  and  C_4 
REMARK    5  A    between atoms: C_3  and  C_5 
REMARK    6  A    between atoms: C_4  and  C_7 
REMARK    7  A    between atoms: C_5  and  C_8 
REMARK    8  A    between atoms: C_7  and  C_10 
REMARK    9  A    between atoms: C_8  and  C_11 
ROOT
HETATM    1  N   UNK N   1      26.561  23.414  -7.224  0.00  0.00     0.088 N 
ENDROOT
BRANCH   1   2
HETATM    2  C   UNK N   1      25.841  23.726  -5.991  0.00  0.00     0.272 C 
BRANCH   2   3
HETATM    3  C   UNK N   1      26.810  23.953  -4.844  0.00  0.00     0.035 C 
BRANCH   3   4
HETATM    4  C   UNK N   1      28.238  23.705  -5.299  0.00  0.00     0.040 C 
BRANCH   4   5
HETATM    5  C   UNK N   1      29.028  24.963  -5.179  0.00  0.00    -0.058 A 
HETATM    6  C   UNK N   1      28.923  25.738  -4.020  0.00  0.00     0.007 A 
HETATM    7  C   UNK N   1      29.674  26.911  -3.895  0.00  0.00     0.001 A 
HETATM    8  C   UNK N   1      30.527  27.310  -4.928  0.00  0.00     0.000 A 
HETATM    9  C   UNK N   1      30.629  26.540  -6.090  0.00  0.00     0.001 A 
HETATM   10  C   UNK N   1      29.879  25.366  -6.215  0.00  0.00     0.007 A 
ENDBRANCH   4   5
ENDBRANCH   3   4
ENDBRANCH   2   3
ENDBRANCH   1   2
BRANCH   1  11
HETATM   11  C   UNK N   1      26.368  24.481  -8.210  0.00  0.00     0.272 C 
BRANCH  11  12
HETATM   12  C   UNK N   1      25.807  25.775  -7.615  0.00  0.00     0.035 C 
BRANCH  12  13
HETATM   13  C   UNK N   1      26.890  26.836  -7.655  0.00  0.00     0.040 C 
BRANCH  13  14
HETATM   14  C   UNK N   1      26.806  27.733  -6.466  0.00  0.00    -0.058 A 
HETATM   15  C   UNK N   1      27.643  28.855  -6.356  0.00  0.00     0.007 A 
HETATM   16  C   UNK N   1      27.561  29.681  -5.233  0.00  0.00     0.001 A 
HETATM   17  C   UNK N   1      26.655  29.385  -4.211  0.00  0.00     0.000 A 
HETATM   18  C   UNK N   1      25.826  28.262  -4.315  0.00  0.00     0.001 A 
HETATM   19  C   UNK N   1      25.901  27.440  -5.442  0.00  0.00     0.007 A 
ENDBRANCH  13  14
ENDBRANCH  12  13
ENDBRANCH  11  12
ENDBRANCH   1  11
BRANCH   1  20
HETATM   20  C   UNK N   1      26.090  22.142  -7.765  0.00  0.00     0.268 C 
HETATM   21  C   UNK N   1      24.829  21.707  -7.038  0.00  0.00     0.037 C 
ENDBRANCH   1  20
TORSDOF 9
ENDMDL
MODEL 7
REMARK VINA RESULT:      -4.5      2.562      5.318
REMARK  9 active torsions:
REMARK  status: ('A' for Active; 'I' for Inactive)
REMARK    1  A    between atoms: N_1  and  C_2 
REMARK    2  A    between atoms: N_1  and  C_3 
REMARK    3  A    between atoms: N_1  and  C_6 
REMARK    4  A    between atoms: C_2  and  C_4 
REMARK    5  A    between atoms: C_3  and  C_5 
REMARK    6  A    between atoms: C_4  and  C_7 
REMARK    7  A    between atoms: C_5  and  C_8 
REMARK    8  A    between atoms: C_7  and  C_10 
REMARK    9  A    between atoms: C_8  and  C_11 
ROOT
HETATM    1  N   UNK N   1      28.254  28.757  -4.288  0.00  0.00     0.088 N 
ENDROOT
BRANCH   1   2
HETATM    2  C   UNK N   1      27.207  28.963  -3.290  0.00  0.00     0.272 C 
BRANCH   2   3
HETATM    3  C   UNK N   1      25.997  28.096  -3.592  0.00  0.00     0.035 C 
BRANCH   3   4
HETATM    4  C   UNK N   1      26.292  26.642  -3.267  0.00  0.00     0.040 C 
BRANCH   4   5
HETATM    5  C   UNK N   1      26.139  25.812  -4.495  0.00  0.00    -0.058 A 
HETATM    6  C   UNK N   1      26.013  26.435  -5.739  0.00  0.00     0.007 A 
HETATM    7  C   UNK N   1      25.886  25.662  -6.897  0.00  0.00     0.001 A 
HETATM    8  C   UNK N   1      25.880  24.267  -6.811  0.00  0.00     0.000 A 
HETATM    9  C   UNK N   1      25.999  23.641  -5.566  0.00  0.00     0.001 A 
HETATM   10  C   UNK N   1      26.128  24.414  -4.408  0.00  0.00     0.007 A 
ENDBRANCH   4   5
ENDBRANCH   3   4
ENDBRANCH   2   3
ENDBRANCH   1   2
BRANCH   1  11
HETATM   11  C   UNK N   1      29.563  28.652  -3.637  0.00  0.00     0.272 C 
BRANCH  11  12
HETATM   12  C   UNK N   1      30.153  27.240  -3.664  0.00  0.00     0.035 C 
BRANCH  12  13
HETATM   13  C   UNK N   1      29.771  26.580  -4.975  0.00  0.00     0.040 C 
BRANCH  13  14
HETATM   14  C   UNK N   1      29.713  25.097  -4.831  0.00  0.00    -0.058 A 
HETATM   15  C   UNK N   1      29.746  24.499  -3.560  0.00  0.00     0.007 A 
HETATM   16  C   UNK N   1      29.700  23.108  -3.440  0.00  0.00     0.001 A 
HETATM   17  C   UNK N   1      29.634  22.309  -4.584  0.00  0.00     0.000 A 
HETATM   18  C   UNK N   1      29.609  22.902  -5.851  0.00  0.00     0.001 A 
HETATM   19  C   UNK N   1      29.646  24.293  -5.973  0.00  0.00     0.007 A 
ENDBRANCH  13  14
ENDBRANCH  12  13
ENDBRANCH  11  12
ENDBRANCH   1  11
BRANCH   1  20
HETATM   20  C   UNK N   1      28.256  29.862  -5.241  0.00  0.00     0.268 C 
HETATM   21  C   UNK N   1      28.158  29.324  -6.658  0.00  0.00     0.037 C 
ENDBRANCH   1  20
TORSDOF 9
ENDMDL
MODEL 8
REMARK VINA RESULT:      -4.5     23.314     25.940
REMARK  9 active torsions:
REMARK  status: ('A' for Active; 'I' for Inactive)
REMARK    1  A    between atoms: N_1  and  C_2 
REMARK    2  A    between atoms: N_1  and  C_3 
REMARK    3  A    between atoms: N_1  and  C_6 
REMARK    4  A    between atoms: C_2  and  C_4 
REMARK    5  A    between atoms: C_3  and  C_5 
REMARK    6  A    between atoms: C_4  and  C_7 
REMARK    7  A    between atoms: C_5  and  C_8 
REMARK    8  A    between atoms: C_7  and  C_10 
REMARK    9  A    between atoms: C_8  and  C_11 
ROOT
HETATM    1  N   UNK N   1      36.112  13.642  11.116  0.00  0.00     0.088 N 
ENDROOT
BRANCH   1   2
HETATM    2  C   UNK N   1      36.189  14.425  12.347  0.00  0.00     0.272 C 
BRANCH   2   3
HETATM    3  C   UNK N   1      35.573  13.666  13.509  0.00  0.00     0.035 C 
BRANCH   3   4
HETATM    4  C   UNK N   1      36.647  13.244  14.496  0.00  0.00     0.040 C 
BRANCH   4   5
HETATM    5  C   UNK N   1      36.421  13.921  15.803  0.00  0.00    -0.058 A 
HETATM    6  C   UNK N   1      37.151  15.070  16.122  0.00  0.00     0.007 A 
HETATM    7  C   UNK N   1      36.931  15.720  17.340  0.00  0.00     0.001 A 
HETATM    8  C   UNK N   1      35.987  15.220  18.241  0.00  0.00     0.000 A 
HETATM    9  C   UNK N   1      35.261  14.067  17.927  0.00  0.00     0.001 A 
HETATM   10  C   UNK N   1      35.478  13.418  16.708  0.00  0.00     0.007 A 
ENDBRANCH   4   5
ENDBRANCH   3   4
ENDBRANCH   2   3
ENDBRANCH   1   2
BRANCH   1  11
HETATM   11  C   UNK N   1      34.890  12.832  11.103  0.00  0.00     0.272 C 
BRANCH  11  12
HETATM   12  C   UNK N   1      35.130  11.363  10.749  0.00  0.00     0.035 C 
BRANCH  12  13
HETATM   13  C   UNK N   1      34.128  10.512  11.505  0.00  0.00     0.040 C 
BRANCH  13  14
HETATM   14  C   UNK N   1      34.577  10.275  12.908  0.00  0.00    -0.058 A 
HETATM   15  C   UNK N   1      35.829   9.697  13.170  0.00  0.00     0.007 A 
HETATM   16  C   UNK N   1      36.233   9.471  14.488  0.00  0.00     0.001 A 
HETATM   17  C   UNK N   1      35.387   9.809  15.547  0.00  0.00     0.000 A 
HETATM   18  C   UNK N   1      34.135  10.378  15.288  0.00  0.00     0.001 A 
HETATM   19  C   UNK N   1      33.733  10.611  13.970  0.00  0.00     0.007 A 
ENDBRANCH  13  14
ENDBRANCH  12  13
ENDBRANCH  11  12
ENDBRANCH   1  11
BRANCH   1  20
HETATM   20  C   UNK N   1      37.285  12.781  11.001  0.00  0.00     0.268 C 
HETATM   21  C   UNK N   1      38.311  13.425  10.085  0.00  0.00     0.037 C 
ENDBRANCH   1  20
TORSDOF 9
ENDMDL
MODEL 9
REMARK VINA RESULT:      -4.4     13.088     15.934
REMARK  9 active torsions:
REMARK  status: ('A' for Active; 'I' for Inactive)
REMARK    1  A    between atoms: N_1  and  C_2 
REMARK    2  A    between atoms: N_1  and  C_3 
REMARK    3  A    between atoms: N_1  and  C_6 
REMARK    4  A    between atoms: C_2  and  C_4 
REMARK    5  A    between atoms: C_3  and  C_5 
REMARK    6  A    between atoms: C_4  and  C_7 
REMARK    7  A    between atoms: C_5  and  C_8 
REMARK    8  A    between atoms: C_7  and  C_10 
REMARK    9  A    between atoms: C_8  and  C_11 
ROOT
HETATM    1  N   UNK N   1      31.056  18.001   8.149  0.00  0.00     0.088 N 
ENDROOT
BRANCH   1   2
HETATM    2  C   UNK N   1      30.377  16.795   7.681  0.00  0.00     0.272 C 
BRANCH   2   3
HETATM    3  C   UNK N   1      29.857  16.983   6.267  0.00  0.00     0.035 C 
BRANCH   3   4
HETATM    4  C   UNK N   1      28.340  17.037   6.261  0.00  0.00     0.040 C 
BRANCH   4   5
HETATM    5  C   UNK N   1      27.887  18.372   5.780  0.00  0.00    -0.058 A 
HETATM    6  C   UNK N   1      27.728  19.419   6.693  0.00  0.00     0.007 A 
HETATM    7  C   UNK N   1      27.320  20.679   6.245  0.00  0.00     0.001 A 
HETATM    8  C   UNK N   1      27.066  20.892   4.887  0.00  0.00     0.000 A 
HETATM    9  C   UNK N   1      27.217  19.844   3.974  0.00  0.00     0.001 A 
HETATM   10  C   UNK N   1      27.627  18.584   4.420  0.00  0.00     0.007 A 
ENDBRANCH   4   5
ENDBRANCH   3   4
ENDBRANCH   2   3
ENDBRANCH   1   2
BRANCH   1  11
HETATM   11  C   UNK N   1      32.361  17.661   8.722  0.00  0.00     0.272 C 
BRANCH  11  12
HETATM   12  C   UNK N   1      33.180  16.698   7.859  0.00  0.00     0.035 C 
BRANCH  12  13
HETATM   13  C   UNK N   1      33.870  17.493   6.767  0.00  0.00     0.040 C 
BRANCH  13  14
HETATM   14  C   UNK N   1      33.601  16.904   5.424  0.00  0.00    -0.058 A 
HETATM   15  C   UNK N   1      34.083  15.627   5.094  0.00  0.00     0.007 A 
HETATM   16  C   UNK N   1      33.832  15.091   3.829  0.00  0.00     0.001 A 
HETATM   17  C   UNK N   1      33.112  15.829   2.886  0.00  0.00     0.000 A 
HETATM   18  C   UNK N   1      32.639  17.105   3.210  0.00  0.00     0.001 A 
HETATM   19  C   UNK N   1      32.882  17.639   4.478  0.00  0.00     0.007 A 
ENDBRANCH  13  14
ENDBRANCH  12  13
ENDBRANCH  11  12
ENDBRANCH   1  11
BRANCH   1  20
HETATM   20  C   UNK N   1      30.233  18.679   9.145  0.00  0.00     0.268 C 
HETATM   21  C   UNK N   1      29.323  17.676   9.833  0.00  0.00     0.037 C 
ENDBRANCH   1  20
TORSDOF 9
ENDMDL
