MODEL 1
REMARK VINA RESULT:      -6.3      0.000      0.000
REMARK  3 active torsions:
REMARK  status: ('A' for Active; 'I' for Inactive)
REMARK    1  A    between atoms: N_3  and  C_7 
REMARK    2  A    between atoms: C_5  and  C_7 
REMARK    3  A    between atoms: C_12  and  C_18 
ROOT
HETATM    1  O   UNK N   1      29.507  17.719   4.681  0.00  0.00    -0.292 OA
HETATM    2  N   UNK N   1      27.257  19.917   8.024  0.00  0.00    -0.362 N 
HETATM    3  C   UNK N   1      29.605  16.624   6.810  0.00  0.00     0.089 C 
HETATM    4  C   UNK N   1      29.891  17.231   8.195  0.00  0.00     0.020 C 
HETATM    5  C   UNK N   1      28.663  17.954   8.777  0.00  0.00     0.059 C 
HETATM    6  C   UNK N   1      28.315  18.778   6.408  0.00  0.00     0.041 A 
HETATM    7  C   UNK N   1      28.066  18.874   7.755  0.00  0.00     0.024 A 
HETATM    8  C   UNK N   1      29.174  17.720   5.857  0.00  0.00     0.168 C 
HETATM    9  C   UNK N   1      27.639  19.816   5.807  0.00  0.00    -0.021 A 
HETATM   10  C   UNK N   1      26.994  20.496   6.831  0.00  0.00     0.012 A 
HETATM   11  C   UNK N   1      26.133  21.700   6.681  0.00  0.00     0.068 C 
HETATM   12  H   UNK N   1      26.926  20.200   8.907  0.00  0.00     0.165 HD
ENDROOT
BRANCH   3  13
HETATM   13  C   UNK N   1      30.788  15.794   6.296  0.00  0.00     0.285 C 
BRANCH  13  14
HETATM   14  N   UNK N   1      32.057  16.195   6.909  0.00  0.00     0.093 N 
HETATM   15  C   UNK N   1      32.875  14.984   7.019  0.00  0.00     0.298 C 
HETATM   16  C   UNK N   1      34.299  15.352   7.458  0.00  0.00     0.198 C 
HETATM   17  O   UNK N   1      34.878  16.210   6.506  0.00  0.00    -0.388 OA
HETATM   18  C   UNK N   1      34.155  17.413   6.568  0.00  0.00     0.198 C 
HETATM   19  C   UNK N   1      32.744  17.163   6.043  0.00  0.00     0.298 C 
ENDBRANCH  13  14
ENDBRANCH   3  13
BRANCH   9  20
HETATM   20  C   UNK N   1      27.613  20.139   4.347  0.00  0.00     0.037 C 
HETATM   21  C   UNK N   1      26.409  19.499   3.682  0.00  0.00     0.010 C 
ENDBRANCH   9  20
TORSDOF 3
ENDMDL
MODEL 2
REMARK VINA RESULT:      -6.3      3.199      4.769
REMARK  3 active torsions:
REMARK  status: ('A' for Active; 'I' for Inactive)
REMARK    1  A    between atoms: N_3  and  C_7 
REMARK    2  A    between atoms: C_5  and  C_7 
REMARK    3  A    between atoms: C_12  and  C_18 
ROOT
HETATM    1  O   UNK N   1      34.198  17.419   6.061  0.00  0.00    -0.292 OA
HETATM    2  N   UNK N   1      29.637  17.082   5.671  0.00  0.00    -0.362 N 
HETATM    3  C   UNK N   1      33.065  17.034   8.137  0.00  0.00     0.089 C 
HETATM    4  C   UNK N   1      31.800  17.718   8.687  0.00  0.00     0.020 C 
HETATM    5  C   UNK N   1      30.515  17.171   8.041  0.00  0.00     0.059 C 
HETATM    6  C   UNK N   1      31.865  17.177   5.899  0.00  0.00     0.041 A 
HETATM    7  C   UNK N   1      30.657  17.130   6.550  0.00  0.00     0.024 A 
HETATM    8  C   UNK N   1      33.136  17.235   6.637  0.00  0.00     0.168 C 
HETATM    9  C   UNK N   1      31.588  17.171   4.550  0.00  0.00    -0.021 A 
HETATM   10  C   UNK N   1      30.206  17.108   4.446  0.00  0.00     0.012 A 
HETATM   11  C   UNK N   1      29.421  17.079   3.181  0.00  0.00     0.068 C 
HETATM   12  H   UNK N   1      28.676  17.039   5.879  0.00  0.00     0.165 HD
ENDROOT
BRANCH   3  13
HETATM   13  C   UNK N   1      34.327  17.490   8.878  0.00  0.00     0.285 C 
BRANCH  13  14
HETATM   14  N   UNK N   1      35.020  16.378   9.535  0.00  0.00     0.093 N 
HETATM   15  C   UNK N   1      35.313  16.812  10.904  0.00  0.00     0.298 C 
HETATM   16  C   UNK N   1      35.850  15.631  11.724  0.00  0.00     0.198 C 
HETATM   17  O   UNK N   1      34.885  14.608  11.764  0.00  0.00    -0.388 OA
HETATM   18  C   UNK N   1      34.773  14.120  10.452  0.00  0.00     0.198 C 
HETATM   19  C   UNK N   1      34.141  15.202   9.581  0.00  0.00     0.298 C 
ENDBRANCH  13  14
ENDBRANCH   3  13
BRANCH   9  20
HETATM   20  C   UNK N   1      32.581  17.224   3.434  0.00  0.00     0.037 C 
HETATM   21  C   UNK N   1      33.054  15.828   3.076  0.00  0.00     0.010 C 
ENDBRANCH   9  20
TORSDOF 3
ENDMDL
MODEL 3
REMARK VINA RESULT:      -6.3      1.804      2.633
REMARK  3 active torsions:
REMARK  status: ('A' for Active; 'I' for Inactive)
REMARK    1  A    between atoms: N_3  and  C_7 
REMARK    2  A    between atoms: C_5  and  C_7 
REMARK    3  A    between atoms: C_12  and  C_18 
ROOT
HETATM    1  O   UNK N   1      28.877  18.675   8.173  0.00  0.00    -0.292 OA
HETATM    2  N   UNK N   1      28.059  18.254   3.676  0.00  0.00    -0.362 N 
HETATM    3  C   UNK N   1      30.429  17.255   7.025  0.00  0.00     0.089 C 
HETATM    4  C   UNK N   1      30.143  16.145   5.998  0.00  0.00     0.020 C 
HETATM    5  C   UNK N   1      29.838  16.712   4.599  0.00  0.00     0.059 C 
HETATM    6  C   UNK N   1      28.533  18.481   5.856  0.00  0.00     0.041 A 
HETATM    7  C   UNK N   1      28.825  17.813   4.692  0.00  0.00     0.024 A 
HETATM    8  C   UNK N   1      29.234  18.182   7.113  0.00  0.00     0.168 C 
HETATM    9  C   UNK N   1      27.528  19.374   5.557  0.00  0.00    -0.021 A 
HETATM   10  C   UNK N   1      27.263  19.210   4.204  0.00  0.00     0.012 A 
HETATM   11  C   UNK N   1      26.248  19.956   3.411  0.00  0.00     0.068 C 
HETATM   12  H   UNK N   1      28.075  17.943   2.742  0.00  0.00     0.165 HD
ENDROOT
BRANCH   3  13
HETATM   13  C   UNK N   1      30.860  16.680   8.380  0.00  0.00     0.285 C 
BRANCH  13  14
HETATM   14  N   UNK N   1      32.284  16.897   8.649  0.00  0.00     0.093 N 
HETATM   15  C   UNK N   1      33.005  15.769   8.051  0.00  0.00     0.298 C 
HETATM   16  C   UNK N   1      34.517  16.026   8.106  0.00  0.00     0.198 C 
HETATM   17  O   UNK N   1      34.822  17.196   7.388  0.00  0.00    -0.388 OA
HETATM   18  C   UNK N   1      34.246  18.259   8.103  0.00  0.00     0.198 C 
HETATM   19  C   UNK N   1      32.727  18.144   8.010  0.00  0.00     0.298 C 
ENDBRANCH  13  14
ENDBRANCH   3  13
BRANCH   9  20
HETATM   20  C   UNK N   1      26.862  20.320   6.503  0.00  0.00     0.037 C 
HETATM   21  C   UNK N   1      27.434  21.717   6.348  0.00  0.00     0.010 C 
ENDBRANCH   9  20
TORSDOF 3
ENDMDL
MODEL 4
REMARK VINA RESULT:      -6.1      2.153      6.366
REMARK  3 active torsions:
REMARK  status: ('A' for Active; 'I' for Inactive)
REMARK    1  A    between atoms: N_3  and  C_7 
REMARK    2  A    between atoms: C_5  and  C_7 
REMARK    3  A    between atoms: C_12  and  C_18 
ROOT
HETATM    1  O   UNK N   1      29.749  16.794   5.051  0.00  0.00    -0.292 OA
HETATM    2  N   UNK N   1      31.728  17.733   9.085  0.00  0.00    -0.362 N 
HETATM    3  C   UNK N   1      28.336  17.977   6.582  0.00  0.00     0.089 C 
HETATM    4  C   UNK N   1      28.099  17.711   8.080  0.00  0.00     0.020 C 
HETATM    5  C   UNK N   1      29.253  18.236   8.953  0.00  0.00     0.059 C 
HETATM    6  C   UNK N   1      30.745  17.351   7.107  0.00  0.00     0.041 A 
HETATM    7  C   UNK N   1      30.573  17.793   8.396  0.00  0.00     0.024 A 
HETATM    8  C   UNK N   1      29.629  17.316   6.149  0.00  0.00     0.168 C 
HETATM    9  C   UNK N   1      32.067  16.987   6.987  0.00  0.00    -0.021 A 
HETATM   10  C   UNK N   1      32.645  17.240   8.224  0.00  0.00     0.012 A 
HETATM   11  C   UNK N   1      34.068  17.007   8.592  0.00  0.00     0.068 C 
HETATM   12  H   UNK N   1      31.875  17.995  10.023  0.00  0.00     0.165 HD
ENDROOT
BRANCH   3  13
HETATM   13  C   UNK N   1      27.125  17.571   5.733  0.00  0.00     0.285 C 
BRANCH  13  14
HETATM   14  N   UNK N   1      26.406  18.731   5.199  0.00  0.00     0.093 N 
HETATM   15  C   UNK N   1      27.250  19.304   4.146  0.00  0.00     0.298 C 
HETATM   16  C   UNK N   1      26.478  20.396   3.393  0.00  0.00     0.198 C 
HETATM   17  O   UNK N   1      25.328  19.840   2.806  0.00  0.00    -0.388 OA
HETATM   18  C   UNK N   1      24.486  19.464   3.866  0.00  0.00     0.198 C 
HETATM   19  C   UNK N   1      25.131  18.299   4.612  0.00  0.00     0.298 C 
ENDBRANCH  13  14
ENDBRANCH   3  13
BRANCH   9  20
HETATM   20  C   UNK N   1      32.735  16.433   5.770  0.00  0.00     0.037 C 
HETATM   21  C   UNK N   1      33.181  17.554   4.850  0.00  0.00     0.010 C 
ENDBRANCH   9  20
TORSDOF 3
ENDMDL
MODEL 5
REMARK VINA RESULT:      -6.0      1.923      2.122
REMARK  3 active torsions:
REMARK  status: ('A' for Active; 'I' for Inactive)
REMARK    1  A    between atoms: N_3  and  C_7 
REMARK    2  A    between atoms: C_5  and  C_7 
REMARK    3  A    between atoms: C_12  and  C_18 
ROOT
HETATM    1  O   UNK N   1      30.566  16.841   5.474  0.00  0.00    -0.292 OA
HETATM    2  N   UNK N   1      27.509  19.552   7.566  0.00  0.00    -0.362 N 
HETATM    3  C   UNK N   1      30.708  16.811   7.866  0.00  0.00     0.089 C 
HETATM    4  C   UNK N   1      30.690  17.996   8.848  0.00  0.00     0.020 C 
HETATM    5  C   UNK N   1      29.268  18.541   9.076  0.00  0.00     0.059 C 
HETATM    6  C   UNK N   1      28.977  18.167   6.588  0.00  0.00     0.041 A 
HETATM    7  C   UNK N   1      28.573  18.751   7.764  0.00  0.00     0.024 A 
HETATM    8  C   UNK N   1      30.123  17.247   6.538  0.00  0.00     0.168 C 
HETATM    9  C   UNK N   1      28.133  18.635   5.605  0.00  0.00    -0.021 A 
HETATM   10  C   UNK N   1      27.238  19.483   6.244  0.00  0.00     0.012 A 
HETATM   11  C   UNK N   1      26.128  20.235   5.598  0.00  0.00     0.068 C 
HETATM   12  H   UNK N   1      27.029  20.080   8.244  0.00  0.00     0.165 HD
ENDROOT
BRANCH   3  13
HETATM   13  C   UNK N   1      32.105  16.191   7.747  0.00  0.00     0.285 C 
BRANCH  13  14
HETATM   14  N   UNK N   1      32.864  16.285   8.996  0.00  0.00     0.093 N 
HETATM   15  C   UNK N   1      33.072  14.913   9.470  0.00  0.00     0.298 C 
HETATM   16  C   UNK N   1      34.037  14.911  10.662  0.00  0.00     0.198 C 
HETATM   17  O   UNK N   1      35.275  15.451  10.267  0.00  0.00    -0.388 OA
HETATM   18  C   UNK N   1      35.043  16.808   9.989  0.00  0.00     0.198 C 
HETATM   19  C   UNK N   1      34.170  16.908   8.741  0.00  0.00     0.298 C 
ENDBRANCH  13  14
ENDBRANCH   3  13
BRANCH   9  20
HETATM   20  C   UNK N   1      28.180  18.295   4.151  0.00  0.00     0.037 C 
HETATM   21  C   UNK N   1      27.315  17.084   3.859  0.00  0.00     0.010 C 
ENDBRANCH   9  20
TORSDOF 3
ENDMDL
MODEL 6
REMARK VINA RESULT:      -5.9     10.953     14.009
REMARK  3 active torsions:
REMARK  status: ('A' for Active; 'I' for Inactive)
REMARK    1  A    between atoms: N_3  and  C_7 
REMARK    2  A    between atoms: C_5  and  C_7 
REMARK    3  A    between atoms: C_12  and  C_18 
ROOT
HETATM    1  O   UNK N   1      28.148  23.078  -5.796  0.00  0.00    -0.292 OA
HETATM    2  N   UNK N   1      31.701  21.453  -3.386  0.00  0.00    -0.362 N 
HETATM    3  C   UNK N   1      28.318  23.971  -3.579  0.00  0.00     0.089 C 
HETATM    4  C   UNK N   1      28.578  23.228  -2.256  0.00  0.00     0.020 C 
HETATM    5  C   UNK N   1      30.064  22.867  -2.076  0.00  0.00     0.059 C 
HETATM    6  C   UNK N   1      29.991  22.320  -4.548  0.00  0.00     0.041 A 
HETATM    7  C   UNK N   1      30.599  22.224  -3.320  0.00  0.00     0.024 A 
HETATM    8  C   UNK N   1      28.764  23.108  -4.741  0.00  0.00     0.168 C 
HETATM    9  C   UNK N   1      30.741  21.563  -5.420  0.00  0.00    -0.021 A 
HETATM   10  C   UNK N   1      31.790  21.047  -4.672  0.00  0.00     0.012 A 
HETATM   11  C   UNK N   1      32.875  20.160  -5.175  0.00  0.00     0.068 C 
HETATM   12  H   UNK N   1      32.315  21.230  -2.649  0.00  0.00     0.165 HD
ENDROOT
BRANCH   3  13
HETATM   13  C   UNK N   1      26.863  24.444  -3.689  0.00  0.00     0.285 C 
BRANCH  13  14
HETATM   14  N   UNK N   1      26.756  25.792  -4.252  0.00  0.00     0.093 N 
HETATM   15  C   UNK N   1      25.724  25.737  -5.291  0.00  0.00     0.298 C 
HETATM   16  C   UNK N   1      25.403  27.154  -5.786  0.00  0.00     0.198 C 
HETATM   17  O   UNK N   1      24.932  27.932  -4.714  0.00  0.00    -0.388 OA
HETATM   18  C   UNK N   1      26.015  28.090  -3.834  0.00  0.00     0.198 C 
HETATM   19  C   UNK N   1      26.337  26.736  -3.207  0.00  0.00     0.298 C 
ENDBRANCH  13  14
ENDBRANCH   3  13
BRANCH   9  20
HETATM   20  C   UNK N   1      30.472  21.347  -6.875  0.00  0.00     0.037 C 
HETATM   21  C   UNK N   1      29.662  20.082  -7.084  0.00  0.00     0.010 C 
ENDBRANCH   9  20
TORSDOF 3
ENDMDL
MODEL 7
REMARK VINA RESULT:      -5.9      7.976     10.574
REMARK  3 active torsions:
REMARK  status: ('A' for Active; 'I' for Inactive)
REMARK    1  A    between atoms: N_3  and  C_7 
REMARK    2  A    between atoms: C_5  and  C_7 
REMARK    3  A    between atoms: C_12  and  C_18 
ROOT
HETATM    1  O   UNK N   1      23.309  14.644   6.439  0.00  0.00    -0.292 OA
HETATM    2  N   UNK N   1      20.285  14.242   9.869  0.00  0.00    -0.362 N 
HETATM    3  C   UNK N   1      21.735  16.445   6.572  0.00  0.00     0.089 C 
HETATM    4  C   UNK N   1      20.210  16.382   6.771  0.00  0.00     0.020 C 
HETATM    5  C   UNK N   1      19.826  16.120   8.239  0.00  0.00     0.059 C 
HETATM    6  C   UNK N   1      21.781  14.510   8.220  0.00  0.00     0.041 A 
HETATM    7  C   UNK N   1      20.620  14.974   8.790  0.00  0.00     0.024 A 
HETATM    8  C   UNK N   1      22.359  15.142   7.025  0.00  0.00     0.168 C 
HETATM    9  C   UNK N   1      22.184  13.429   8.971  0.00  0.00    -0.021 A 
HETATM   10  C   UNK N   1      21.241  13.294   9.982  0.00  0.00     0.012 A 
HETATM   11  C   UNK N   1      21.243  12.260  11.052  0.00  0.00     0.068 C 
HETATM   12  H   UNK N   1      19.504  14.370  10.454  0.00  0.00     0.165 HD
ENDROOT
BRANCH   3  13
HETATM   13  C   UNK N   1      22.105  16.837   5.136  0.00  0.00     0.285 C 
BRANCH  13  14
HETATM   14  N   UNK N   1      21.047  17.607   4.478  0.00  0.00     0.093 N 
HETATM   15  C   UNK N   1      21.538  18.984   4.357  0.00  0.00     0.298 C 
HETATM   16  C   UNK N   1      20.576  19.809   3.492  0.00  0.00     0.198 C 
HETATM   17  O   UNK N   1      20.490  19.239   2.209  0.00  0.00    -0.388 OA
HETATM   18  C   UNK N   1      19.858  17.995   2.371  0.00  0.00     0.198 C 
HETATM   19  C   UNK N   1      20.797  17.066   3.135  0.00  0.00     0.298 C 
ENDBRANCH  13  14
ENDBRANCH   3  13
BRANCH   9  20
HETATM   20  C   UNK N   1      23.391  12.578   8.738  0.00  0.00     0.037 C 
HETATM   21  C   UNK N   1      24.583  13.127   9.498  0.00  0.00     0.010 C 
ENDBRANCH   9  20
TORSDOF 3
ENDMDL
MODEL 8
REMARK VINA RESULT:      -5.8      5.515      9.944
REMARK  3 active torsions:
REMARK  status: ('A' for Active; 'I' for Inactive)
REMARK    1  A    between atoms: N_3  and  C_7 
REMARK    2  A    between atoms: C_5  and  C_7 
REMARK    3  A    between atoms: C_12  and  C_18 
ROOT
HETATM    1  O   UNK N   1      35.707  14.882  12.228  0.00  0.00    -0.292 OA
HETATM    2  N   UNK N   1      34.386  10.510  12.680  0.00  0.00    -0.362 N 
HETATM    3  C   UNK N   1      34.924  13.882  10.197  0.00  0.00     0.089 C 
HETATM    4  C   UNK N   1      35.264  12.501   9.607  0.00  0.00     0.020 C 
HETATM    5  C   UNK N   1      34.491  11.366  10.303  0.00  0.00     0.059 C 
HETATM    6  C   UNK N   1      34.961  12.662  12.428  0.00  0.00     0.041 A 
HETATM    7  C   UNK N   1      34.595  11.500  11.792  0.00  0.00     0.024 A 
HETATM    8  C   UNK N   1      35.247  13.894  11.677  0.00  0.00     0.168 C 
HETATM    9  C   UNK N   1      34.994  12.381  13.775  0.00  0.00    -0.021 A 
HETATM   10  C   UNK N   1      34.631  11.047  13.896  0.00  0.00     0.012 A 
HETATM   11  C   UNK N   1      34.521  10.278  15.165  0.00  0.00     0.068 C 
HETATM   12  H   UNK N   1      34.113   9.584  12.484  0.00  0.00     0.165 HD
ENDROOT
BRANCH   3  13
HETATM   13  C   UNK N   1      35.594  15.017   9.413  0.00  0.00     0.285 C 
BRANCH  13  14
HETATM   14  N   UNK N   1      34.632  15.799   8.633  0.00  0.00     0.093 N 
HETATM   15  C   UNK N   1      34.772  17.194   9.064  0.00  0.00     0.298 C 
HETATM   16  C   UNK N   1      33.949  18.110   8.148  0.00  0.00     0.198 C 
HETATM   17  O   UNK N   1      34.410  17.991   6.825  0.00  0.00    -0.388 OA
HETATM   18  C   UNK N   1      34.095  16.685   6.413  0.00  0.00     0.198 C 
HETATM   19  C   UNK N   1      34.955  15.703   7.203  0.00  0.00     0.298 C 
ENDBRANCH  13  14
ENDBRANCH   3  13
BRANCH   9  20
HETATM   20  C   UNK N   1      35.352  13.327  14.876  0.00  0.00     0.037 C 
HETATM   21  C   UNK N   1      36.839  13.266  15.168  0.00  0.00     0.010 C 
ENDBRANCH   9  20
TORSDOF 3
ENDMDL
MODEL 9
REMARK VINA RESULT:      -5.8      3.137      5.039
REMARK  3 active torsions:
REMARK  status: ('A' for Active; 'I' for Inactive)
REMARK    1  A    between atoms: N_3  and  C_7 
REMARK    2  A    between atoms: C_5  and  C_7 
REMARK    3  A    between atoms: C_12  and  C_18 
ROOT
HETATM    1  O   UNK N   1      25.130  16.880   5.292  0.00  0.00    -0.292 OA
HETATM    2  N   UNK N   1      24.077  20.697   2.971  0.00  0.00    -0.362 N 
HETATM    3  C   UNK N   1      26.943  18.433   5.089  0.00  0.00     0.089 C 
HETATM    4  C   UNK N   1      27.421  19.201   3.843  0.00  0.00     0.020 C 
HETATM    5  C   UNK N   1      26.527  20.415   3.531  0.00  0.00     0.059 C 
HETATM    6  C   UNK N   1      24.616  18.878   4.164  0.00  0.00     0.041 A 
HETATM    7  C   UNK N   1      25.081  20.020   3.558  0.00  0.00     0.024 A 
HETATM    8  C   UNK N   1      25.519  17.961   4.877  0.00  0.00     0.168 C 
HETATM    9  C   UNK N   1      23.259  18.833   3.935  0.00  0.00    -0.021 A 
HETATM   10  C   UNK N   1      22.960  19.972   3.199  0.00  0.00     0.012 A 
HETATM   11  C   UNK N   1      21.613  20.371   2.707  0.00  0.00     0.068 C 
HETATM   12  H   UNK N   1      24.143  21.546   2.475  0.00  0.00     0.165 HD
ENDROOT
BRANCH   3  13
HETATM   13  C   UNK N   1      27.912  17.307   5.470  0.00  0.00     0.285 C 
BRANCH  13  14
HETATM   14  N   UNK N   1      28.265  17.333   6.891  0.00  0.00     0.093 N 
HETATM   15  C   UNK N   1      29.667  16.915   6.987  0.00  0.00     0.298 C 
HETATM   16  C   UNK N   1      30.177  17.116   8.420  0.00  0.00     0.198 C 
HETATM   17  O   UNK N   1      30.080  18.475   8.768  0.00  0.00    -0.388 OA
HETATM   18  C   UNK N   1      28.708  18.771   8.825  0.00  0.00     0.198 C 
HETATM   19  C   UNK N   1      28.135  18.701   7.412  0.00  0.00     0.298 C 
ENDBRANCH  13  14
ENDBRANCH   3  13
BRANCH   9  20
HETATM   20  C   UNK N   1      22.311  17.770   4.387  0.00  0.00     0.037 C 
HETATM   21  C   UNK N   1      21.811  18.065   5.789  0.00  0.00     0.010 C 
ENDBRANCH   9  20
TORSDOF 3
ENDMDL
