MODEL 1
REMARK VINA RESULT:      -6.9      0.000      0.000
REMARK  1 active torsions:
REMARK  status: ('A' for Active; 'I' for Inactive)
REMARK    1  A    between atoms: C_2  and  C_10 
ROOT
HETATM    1  N   UNK N   1      27.361  28.449  -3.533  0.00  0.00     0.088 N 
HETATM    2  C   UNK N   1      26.697  24.666  -3.972  0.00  0.00     0.083 A 
HETATM    3  C   UNK N   1      26.648  26.190  -4.070  0.00  0.00    -0.032 A 
HETATM    4  C   UNK N   1      26.297  26.611  -5.284  0.00  0.00    -0.041 A 
HETATM    5  C   UNK N   1      26.937  27.166  -2.963  0.00  0.00     0.307 C 
HETATM    6  C   UNK N   1      26.333  24.333  -5.402  0.00  0.00    -0.035 A 
HETATM    7  C   UNK N   1      26.157  28.063  -5.657  0.00  0.00     0.070 C 
HETATM    8  C   UNK N   1      26.095  25.471  -6.134  0.00  0.00    -0.022 A 
HETATM    9  C   UNK N   1      26.310  28.958  -4.418  0.00  0.00     0.277 C 
HETATM   10  C   UNK N   1      26.186  23.071  -5.984  0.00  0.00     0.009 A 
HETATM   11  C   UNK N   1      25.708  25.425  -7.472  0.00  0.00     0.012 A 
HETATM   12  C   UNK N   1      27.509  29.388  -2.438  0.00  0.00     0.310 C 
HETATM   13  C   UNK N   1      25.804  22.992  -7.334  0.00  0.00     0.001 A 
HETATM   14  C   UNK N   1      25.563  24.167  -8.076  0.00  0.00     0.001 A 
ENDROOT
BRANCH   2  15
HETATM   15  C   UNK N   1      28.028  24.094  -3.523  0.00  0.00    -0.045 A 
HETATM   16  C   UNK N   1      28.077  23.301  -2.367  0.00  0.00     0.008 A 
HETATM   17  C   UNK N   1      29.299  22.813  -1.893  0.00  0.00     0.001 A 
HETATM   18  C   UNK N   1      30.485  23.125  -2.562  0.00  0.00     0.000 A 
HETATM   19  C   UNK N   1      30.449  23.920  -3.710  0.00  0.00     0.001 A 
HETATM   20  C   UNK N   1      29.227  24.402  -4.189  0.00  0.00     0.008 A 
ENDBRANCH   2  15
TORSDOF 1
ENDMDL
MODEL 2
REMARK VINA RESULT:      -6.9     13.281     15.811
REMARK  1 active torsions:
REMARK  status: ('A' for Active; 'I' for Inactive)
REMARK    1  A    between atoms: C_2  and  C_10 
ROOT
HETATM    1  N   UNK N   1      32.486  15.763   4.292  0.00  0.00     0.088 N 
HETATM    2  C   UNK N   1      32.252  17.716   7.620  0.00  0.00     0.083 A 
HETATM    3  C   UNK N   1      31.991  17.144   6.226  0.00  0.00    -0.032 A 
HETATM    4  C   UNK N   1      30.692  17.002   5.970  0.00  0.00    -0.041 A 
HETATM    5  C   UNK N   1      33.030  16.775   5.204  0.00  0.00     0.307 C 
HETATM    6  C   UNK N   1      30.820  17.827   8.093  0.00  0.00    -0.035 A 
HETATM    7  C   UNK N   1      30.150  16.475   4.668  0.00  0.00     0.070 C 
HETATM    8  C   UNK N   1      29.940  17.421   7.119  0.00  0.00    -0.022 A 
HETATM    9  C   UNK N   1      31.281  16.289   3.645  0.00  0.00     0.277 C 
HETATM   10  C   UNK N   1      30.352  18.307   9.319  0.00  0.00     0.009 A 
HETATM   11  C   UNK N   1      28.559  17.462   7.304  0.00  0.00     0.012 A 
HETATM   12  C   UNK N   1      33.475  15.529   3.257  0.00  0.00     0.310 C 
HETATM   13  C   UNK N   1      28.964  18.354   9.538  0.00  0.00     0.001 A 
HETATM   14  C   UNK N   1      28.070  17.935   8.532  0.00  0.00     0.001 A 
ENDROOT
BRANCH   2  15
HETATM   15  C   UNK N   1      33.134  16.861   8.508  0.00  0.00    -0.045 A 
HETATM   16  C   UNK N   1      32.701  15.577   8.871  0.00  0.00     0.008 A 
HETATM   17  C   UNK N   1      33.463  14.790   9.740  0.00  0.00     0.001 A 
HETATM   18  C   UNK N   1      34.659  15.285  10.267  0.00  0.00     0.000 A 
HETATM   19  C   UNK N   1      35.096  16.565   9.920  0.00  0.00     0.001 A 
HETATM   20  C   UNK N   1      34.339  17.350   9.044  0.00  0.00     0.008 A 
ENDBRANCH   2  15
TORSDOF 1
ENDMDL
MODEL 3
REMARK VINA RESULT:      -6.7     13.381     16.313
REMARK  1 active torsions:
REMARK  status: ('A' for Active; 'I' for Inactive)
REMARK    1  A    between atoms: C_2  and  C_10 
ROOT
HETATM    1  N   UNK N   1      34.446  15.114   9.596  0.00  0.00     0.088 N 
HETATM    2  C   UNK N   1      32.916  17.620   7.081  0.00  0.00     0.083 A 
HETATM    3  C   UNK N   1      33.788  16.567   7.765  0.00  0.00    -0.032 A 
HETATM    4  C   UNK N   1      34.269  15.670   6.906  0.00  0.00    -0.041 A 
HETATM    5  C   UNK N   1      34.118  16.496   9.230  0.00  0.00     0.307 C 
HETATM    6  C   UNK N   1      32.989  17.094   5.665  0.00  0.00    -0.035 A 
HETATM    7  C   UNK N   1      35.168  14.530   7.305  0.00  0.00     0.070 C 
HETATM    8  C   UNK N   1      33.786  15.976   5.589  0.00  0.00    -0.022 A 
HETATM    9  C   UNK N   1      35.573  14.650   8.783  0.00  0.00     0.277 C 
HETATM   10  C   UNK N   1      32.401  17.627   4.515  0.00  0.00     0.009 A 
HETATM   11  C   UNK N   1      34.037  15.326   4.383  0.00  0.00     0.012 A 
HETATM   12  C   UNK N   1      34.873  15.116  10.982  0.00  0.00     0.310 C 
HETATM   13  C   UNK N   1      32.631  16.989   3.284  0.00  0.00     0.001 A 
HETATM   14  C   UNK N   1      33.450  15.843   3.218  0.00  0.00     0.001 A 
ENDROOT
BRANCH   2  15
HETATM   15  C   UNK N   1      31.506  17.738   7.626  0.00  0.00    -0.045 A 
HETATM   16  C   UNK N   1      31.270  18.553   8.744  0.00  0.00     0.008 A 
HETATM   17  C   UNK N   1      29.992  18.632   9.307  0.00  0.00     0.001 A 
HETATM   18  C   UNK N   1      28.942  17.885   8.768  0.00  0.00     0.000 A 
HETATM   19  C   UNK N   1      29.167  17.064   7.660  0.00  0.00     0.001 A 
HETATM   20  C   UNK N   1      30.442  16.991   7.091  0.00  0.00     0.008 A 
ENDBRANCH   2  15
TORSDOF 1
ENDMDL
MODEL 4
REMARK VINA RESULT:      -6.6     26.227     29.076
REMARK  1 active torsions:
REMARK  status: ('A' for Active; 'I' for Inactive)
REMARK    1  A    between atoms: C_2  and  C_10 
ROOT
HETATM    1  N   UNK N   1      35.634   7.189  16.527  0.00  0.00     0.088 N 
HETATM    2  C   UNK N   1      35.482   9.979  19.199  0.00  0.00     0.083 A 
HETATM    3  C   UNK N   1      35.773   9.156  17.944  0.00  0.00    -0.032 A 
HETATM    4  C   UNK N   1      35.866   9.912  16.851  0.00  0.00    -0.041 A 
HETATM    5  C   UNK N   1      35.958   7.666  17.876  0.00  0.00     0.307 C 
HETATM    6  C   UNK N   1      35.399  11.348  18.562  0.00  0.00    -0.035 A 
HETATM    7  C   UNK N   1      36.159   9.366  15.480  0.00  0.00     0.070 C 
HETATM    8  C   UNK N   1      35.636  11.284  17.210  0.00  0.00    -0.022 A 
HETATM    9  C   UNK N   1      36.493   7.867  15.553  0.00  0.00     0.277 C 
HETATM   10  C   UNK N   1      35.164  12.576  19.185  0.00  0.00     0.009 A 
HETATM   11  C   UNK N   1      35.649  12.421  16.405  0.00  0.00     0.012 A 
HETATM   12  C   UNK N   1      35.943   5.773  16.476  0.00  0.00     0.310 C 
HETATM   13  C   UNK N   1      35.164  13.741  18.397  0.00  0.00     0.001 A 
HETATM   14  C   UNK N   1      35.408  13.664  17.011  0.00  0.00     0.001 A 
ENDROOT
BRANCH   2  15
HETATM   15  C   UNK N   1      34.234   9.572  19.957  0.00  0.00    -0.045 A 
HETATM   16  C   UNK N   1      33.221   8.872  19.284  0.00  0.00     0.008 A 
HETATM   17  C   UNK N   1      32.032   8.538  19.940  0.00  0.00     0.001 A 
HETATM   18  C   UNK N   1      31.837   8.915  21.271  0.00  0.00     0.000 A 
HETATM   19  C   UNK N   1      32.835   9.619  21.949  0.00  0.00     0.001 A 
HETATM   20  C   UNK N   1      34.028   9.946  21.297  0.00  0.00     0.008 A 
ENDBRANCH   2  15
TORSDOF 1
ENDMDL
MODEL 5
REMARK VINA RESULT:      -6.4      2.030      5.272
REMARK  1 active torsions:
REMARK  status: ('A' for Active; 'I' for Inactive)
REMARK    1  A    between atoms: C_2  and  C_10 
ROOT
HETATM    1  N   UNK N   1      26.715  24.159  -7.982  0.00  0.00     0.088 N 
HETATM    2  C   UNK N   1      27.436  24.261  -4.185  0.00  0.00     0.083 A 
HETATM    3  C   UNK N   1      27.315  23.843  -5.651  0.00  0.00    -0.032 A 
HETATM    4  C   UNK N   1      28.313  23.048  -6.036  0.00  0.00    -0.041 A 
HETATM    5  C   UNK N   1      26.220  24.233  -6.604  0.00  0.00     0.307 C 
HETATM    6  C   UNK N   1      28.732  23.557  -3.852  0.00  0.00    -0.035 A 
HETATM    7  C   UNK N   1      28.437  22.476  -7.423  0.00  0.00     0.070 C 
HETATM    8  C   UNK N   1      29.210  22.854  -4.932  0.00  0.00    -0.022 A 
HETATM    9  C   UNK N   1      27.187  22.800  -8.257  0.00  0.00     0.277 C 
HETATM   10  C   UNK N   1      29.407  23.525  -2.629  0.00  0.00     0.009 A 
HETATM   11  C   UNK N   1      30.376  22.094  -4.864  0.00  0.00     0.012 A 
HETATM   12  C   UNK N   1      25.595  24.424  -8.865  0.00  0.00     0.310 C 
HETATM   13  C   UNK N   1      30.589  22.772  -2.532  0.00  0.00     0.001 A 
HETATM   14  C   UNK N   1      31.071  22.055  -3.646  0.00  0.00     0.001 A 
ENDROOT
BRANCH   2  15
HETATM   15  C   UNK N   1      27.465  25.758  -3.946  0.00  0.00    -0.045 A 
HETATM   16  C   UNK N   1      26.351  26.380  -3.363  0.00  0.00     0.008 A 
HETATM   17  C   UNK N   1      26.323  27.767  -3.187  0.00  0.00     0.001 A 
HETATM   18  C   UNK N   1      27.402  28.548  -3.608  0.00  0.00     0.000 A 
HETATM   19  C   UNK N   1      28.514  27.940  -4.198  0.00  0.00     0.001 A 
HETATM   20  C   UNK N   1      28.546  26.552  -4.365  0.00  0.00     0.008 A 
ENDBRANCH   2  15
TORSDOF 1
ENDMDL
MODEL 6
REMARK VINA RESULT:      -6.3     11.245     14.841
REMARK  1 active torsions:
REMARK  status: ('A' for Active; 'I' for Inactive)
REMARK    1  A    between atoms: C_2  and  C_10 
ROOT
HETATM    1  N   UNK N   1      28.077  14.710   4.037  0.00  0.00     0.088 N 
HETATM    2  C   UNK N   1      28.867  17.114   6.960  0.00  0.00     0.083 A 
HETATM    3  C   UNK N   1      28.842  15.932   5.991  0.00  0.00    -0.032 A 
HETATM    4  C   UNK N   1      30.039  15.361   5.855  0.00  0.00    -0.041 A 
HETATM    5  C   UNK N   1      27.643  15.408   5.251  0.00  0.00     0.307 C 
HETATM    6  C   UNK N   1      30.340  17.097   7.303  0.00  0.00    -0.035 A 
HETATM    7  C   UNK N   1      30.299  14.167   4.975  0.00  0.00     0.070 C 
HETATM    8  C   UNK N   1      30.990  16.070   6.664  0.00  0.00    -0.022 A 
HETATM    9  C   UNK N   1      28.983  13.618   4.403  0.00  0.00     0.277 C 
HETATM   10  C   UNK N   1      31.031  17.941   8.177  0.00  0.00     0.009 A 
HETATM   11  C   UNK N   1      32.349  15.824   6.847  0.00  0.00     0.012 A 
HETATM   12  C   UNK N   1      26.902  14.121   3.425  0.00  0.00     0.310 C 
HETATM   13  C   UNK N   1      32.405  17.722   8.377  0.00  0.00     0.001 A 
HETATM   14  C   UNK N   1      33.062  16.665   7.716  0.00  0.00     0.001 A 
ENDROOT
BRANCH   2  15
HETATM   15  C   UNK N   1      28.382  18.428   6.380  0.00  0.00    -0.045 A 
HETATM   16  C   UNK N   1      27.789  19.374   7.229  0.00  0.00     0.008 A 
HETATM   17  C   UNK N   1      27.275  20.568   6.714  0.00  0.00     0.001 A 
HETATM   18  C   UNK N   1      27.334  20.821   5.341  0.00  0.00     0.000 A 
HETATM   19  C   UNK N   1      27.914  19.883   4.484  0.00  0.00     0.001 A 
HETATM   20  C   UNK N   1      28.436  18.692   5.000  0.00  0.00     0.008 A 
ENDBRANCH   2  15
TORSDOF 1
ENDMDL
MODEL 7
REMARK VINA RESULT:      -6.3      2.032      4.855
REMARK  1 active torsions:
REMARK  status: ('A' for Active; 'I' for Inactive)
REMARK    1  A    between atoms: C_2  and  C_10 
ROOT
HETATM    1  N   UNK N   1      30.572  23.577  -4.468  0.00  0.00     0.088 N 
HETATM    2  C   UNK N   1      26.776  23.938  -5.105  0.00  0.00     0.083 A 
HETATM    3  C   UNK N   1      28.212  24.127  -4.616  0.00  0.00    -0.032 A 
HETATM    4  C   UNK N   1      28.521  25.410  -4.429  0.00  0.00    -0.041 A 
HETATM    5  C   UNK N   1      29.213  23.040  -4.342  0.00  0.00     0.307 C 
HETATM    6  C   UNK N   1      26.367  25.392  -5.183  0.00  0.00    -0.035 A 
HETATM    7  C   UNK N   1      29.862  25.884  -3.938  0.00  0.00     0.070 C 
HETATM    8  C   UNK N   1      27.386  26.219  -4.776  0.00  0.00    -0.022 A 
HETATM    9  C   UNK N   1      30.743  24.692  -3.534  0.00  0.00     0.277 C 
HETATM   10  C   UNK N   1      25.130  25.921  -5.561  0.00  0.00     0.009 A 
HETATM   11  C   UNK N   1      27.241  27.604  -4.727  0.00  0.00     0.012 A 
HETATM   12  C   UNK N   1      31.496  22.529  -4.078  0.00  0.00     0.310 C 
HETATM   13  C   UNK N   1      24.956  27.315  -5.527  0.00  0.00     0.001 A 
HETATM   14  C   UNK N   1      26.008  28.155  -5.109  0.00  0.00     0.001 A 
ENDROOT
BRANCH   2  15
HETATM   15  C   UNK N   1      26.639  23.184  -6.413  0.00  0.00    -0.045 A 
HETATM   16  C   UNK N   1      25.499  22.398  -6.634  0.00  0.00     0.008 A 
HETATM   17  C   UNK N   1      25.373  21.642  -7.804  0.00  0.00     0.001 A 
HETATM   18  C   UNK N   1      26.394  21.653  -8.758  0.00  0.00     0.000 A 
HETATM   19  C   UNK N   1      27.538  22.426  -8.545  0.00  0.00     0.001 A 
HETATM   20  C   UNK N   1      27.661  23.188  -7.379  0.00  0.00     0.008 A 
ENDBRANCH   2  15
TORSDOF 1
ENDMDL
MODEL 8
REMARK VINA RESULT:      -6.1      3.732      5.459
REMARK  1 active torsions:
REMARK  status: ('A' for Active; 'I' for Inactive)
REMARK    1  A    between atoms: C_2  and  C_10 
ROOT
HETATM    1  N   UNK N   1      30.679  29.492  -8.037  0.00  0.00     0.088 N 
HETATM    2  C   UNK N   1      28.070  29.960  -5.224  0.00  0.00     0.083 A 
HETATM    3  C   UNK N   1      28.769  29.649  -6.547  0.00  0.00    -0.032 A 
HETATM    4  C   UNK N   1      28.209  28.624  -7.190  0.00  0.00    -0.041 A 
HETATM    5  C   UNK N   1      29.947  30.380  -7.128  0.00  0.00     0.307 C 
HETATM    6  C   UNK N   1      27.026  28.866  -5.254  0.00  0.00    -0.035 A 
HETATM    7  C   UNK N   1      28.686  28.113  -8.523  0.00  0.00     0.070 C 
HETATM    8  C   UNK N   1      27.120  28.118  -6.403  0.00  0.00    -0.022 A 
HETATM    9  C   UNK N   1      29.778  29.031  -9.096  0.00  0.00     0.277 C 
HETATM   10  C   UNK N   1      26.029  28.598  -4.312  0.00  0.00     0.009 A 
HETATM   11  C   UNK N   1      26.244  27.070  -6.679  0.00  0.00     0.012 A 
HETATM   12  C   UNK N   1      31.729  30.274  -8.662  0.00  0.00     0.310 C 
HETATM   13  C   UNK N   1      25.134  27.543  -4.560  0.00  0.00     0.001 A 
HETATM   14  C   UNK N   1      25.240  26.782  -5.742  0.00  0.00     0.001 A 
ENDROOT
BRANCH   2  15
HETATM   15  C   UNK N   1      28.967  29.927  -4.002  0.00  0.00    -0.045 A 
HETATM   16  C   UNK N   1      29.751  28.790  -3.759  0.00  0.00     0.008 A 
HETATM   17  C   UNK N   1      30.541  28.704  -2.608  0.00  0.00     0.001 A 
HETATM   18  C   UNK N   1      30.541  29.748  -1.680  0.00  0.00     0.000 A 
HETATM   19  C   UNK N   1      29.757  30.882  -1.907  0.00  0.00     0.001 A 
HETATM   20  C   UNK N   1      28.974  30.972  -3.062  0.00  0.00     0.008 A 
ENDBRANCH   2  15
TORSDOF 1
ENDMDL
MODEL 9
REMARK VINA RESULT:      -6.0     23.374     27.567
REMARK  1 active torsions:
REMARK  status: ('A' for Active; 'I' for Inactive)
REMARK    1  A    between atoms: C_2  and  C_10 
ROOT
HETATM    1  N   UNK N   1      37.675   8.174  14.614  0.00  0.00     0.088 N 
HETATM    2  C   UNK N   1      35.295  10.853  16.063  0.00  0.00     0.083 A 
HETATM    3  C   UNK N   1      36.177   9.621  15.861  0.00  0.00    -0.032 A 
HETATM    4  C   UNK N   1      36.773   9.232  16.988  0.00  0.00    -0.041 A 
HETATM    5  C   UNK N   1      36.387   8.874  14.574  0.00  0.00     0.307 C 
HETATM    6  C   UNK N   1      35.557  11.084  17.535  0.00  0.00    -0.035 A 
HETATM    7  C   UNK N   1      37.685   8.038  17.082  0.00  0.00     0.070 C 
HETATM    8  C   UNK N   1      36.401  10.128  18.047  0.00  0.00    -0.022 A 
HETATM    9  C   UNK N   1      37.696   7.259  15.758  0.00  0.00     0.277 C 
HETATM   10  C   UNK N   1      35.024  12.077  18.361  0.00  0.00     0.009 A 
HETATM   11  C   UNK N   1      36.767  10.106  19.392  0.00  0.00     0.012 A 
HETATM   12  C   UNK N   1      37.777   7.375  13.408  0.00  0.00     0.310 C 
HETATM   13  C   UNK N   1      35.379  12.084  19.721  0.00  0.00     0.001 A 
HETATM   14  C   UNK N   1      36.247  11.099  20.236  0.00  0.00     0.001 A 
ENDROOT
BRANCH   2  15
HETATM   15  C   UNK N   1      35.637  12.037  15.181  0.00  0.00    -0.045 A 
HETATM   16  C   UNK N   1      36.595  12.964  15.618  0.00  0.00     0.008 A 
HETATM   17  C   UNK N   1      36.885  14.099  14.855  0.00  0.00     0.001 A 
HETATM   18  C   UNK N   1      36.208  14.328  13.655  0.00  0.00     0.000 A 
HETATM   19  C   UNK N   1      35.246  13.417  13.213  0.00  0.00     0.001 A 
HETATM   20  C   UNK N   1      34.961  12.277  13.971  0.00  0.00     0.008 A 
ENDBRANCH   2  15
TORSDOF 1
ENDMDL
