MODEL 1
REMARK VINA RESULT:      -5.8      0.000      0.000
REMARK  5 active torsions:
REMARK  status: ('A' for Active; 'I' for Inactive)
REMARK    1  A    between atoms: N_1  and  C_6 
REMARK    2  A    between atoms: C_4  and  C_5 
REMARK    3  A    between atoms: C_4  and  C_7 
REMARK    4  A    between atoms: C_4  and  C_8 
REMARK    5  A    between atoms: C_5  and  C_6 
ROOT
HETATM    1  C   UNK N   1      32.258  17.452   7.366  0.00  0.00     0.070 C 
ENDROOT
BRANCH   1   2
HETATM    2  C   UNK N   1      33.452  18.176   8.002  0.00  0.00     0.046 C 
BRANCH   2   3
HETATM    3  C   UNK N   1      34.586  17.211   8.316  0.00  0.00     0.272 C 
BRANCH   3   4
HETATM    4  N   UNK N   1      34.249  16.424   9.491  0.00  0.00     0.080 N 
HETATM    5  C   UNK N   1      34.377  15.025   9.125  0.00  0.00     0.309 C 
HETATM    6  C   UNK N   1      35.260  16.692  10.496  0.00  0.00     0.309 C 
ENDBRANCH   3   4
ENDBRANCH   2   3
ENDBRANCH   1   2
BRANCH   1   7
HETATM    7  C   UNK N   1      32.446  16.830   5.991  0.00  0.00    -0.048 A 
HETATM    8  C   UNK N   1      32.644  17.631   4.854  0.00  0.00     0.008 A 
HETATM    9  C   UNK N   1      32.813  17.059   3.593  0.00  0.00     0.001 A 
HETATM   10  C   UNK N   1      32.781  15.672   3.449  0.00  0.00     0.000 A 
HETATM   11  C   UNK N   1      32.585  14.859   4.569  0.00  0.00     0.001 A 
HETATM   12  C   UNK N   1      32.420  15.435   5.835  0.00  0.00     0.008 A 
ENDBRANCH   1   7
BRANCH   1  13
HETATM   13  C   UNK N   1      30.870  17.654   7.961  0.00  0.00     0.017 A 
HETATM   14  N   UNK N   1      30.727  18.129   9.228  0.00  0.00    -0.369 N 
HETATM   15  C   UNK N   1      29.506  18.337   9.790  0.00  0.00     0.088 A 
ATOM     16  HN  UNK N   1      31.563  18.336   9.775  1.00  0.00     0.165 HD
HETATM   17  C   UNK N   1      28.349  18.067   9.061  0.00  0.00     0.017 A 
HETATM   18  C   UNK N   1      28.461  17.582   7.759  0.00  0.00     0.003 A 
HETATM   19  C   UNK N   1      29.723  17.373   7.204  0.00  0.00     0.025 A 
ENDBRANCH   1  13
TORSDOF 5
ENDMDL
MODEL 2
REMARK VINA RESULT:      -5.7      1.458      4.593
REMARK  5 active torsions:
REMARK  status: ('A' for Active; 'I' for Inactive)
REMARK    1  A    between atoms: N_1  and  C_6 
REMARK    2  A    between atoms: C_4  and  C_5 
REMARK    3  A    between atoms: C_4  and  C_7 
REMARK    4  A    between atoms: C_4  and  C_8 
REMARK    5  A    between atoms: C_5  and  C_6 
ROOT
HETATM    1  C   UNK N   1      31.976  16.986   8.131  0.00  0.00     0.070 C 
ENDROOT
BRANCH   1   2
HETATM    2  C   UNK N   1      30.613  17.078   8.832  0.00  0.00     0.046 C 
BRANCH   2   3
HETATM    3  C   UNK N   1      30.228  18.523   9.113  0.00  0.00     0.272 C 
BRANCH   3   4
HETATM    4  N   UNK N   1      28.779  18.649   9.130  0.00  0.00     0.080 N 
HETATM    5  C   UNK N   1      28.362  19.019   7.790  0.00  0.00     0.309 C 
HETATM    6  C   UNK N   1      28.233  17.331   9.394  0.00  0.00     0.309 C 
ENDBRANCH   3   4
ENDBRANCH   2   3
ENDBRANCH   1   2
BRANCH   1   7
HETATM    7  C   UNK N   1      32.019  17.169   6.622  0.00  0.00    -0.048 A 
HETATM    8  C   UNK N   1      30.852  17.072   5.847  0.00  0.00     0.008 A 
HETATM    9  C   UNK N   1      30.893  17.237   4.462  0.00  0.00     0.001 A 
HETATM   10  C   UNK N   1      32.109  17.496   3.830  0.00  0.00     0.000 A 
HETATM   11  C   UNK N   1      33.281  17.595   4.585  0.00  0.00     0.001 A 
HETATM   12  C   UNK N   1      33.236  17.434   5.975  0.00  0.00     0.008 A 
ENDBRANCH   1   7
BRANCH   1  13
HETATM   13  C   UNK N   1      33.160  16.405   8.893  0.00  0.00     0.017 A 
HETATM   14  N   UNK N   1      34.036  17.227   9.534  0.00  0.00    -0.369 N 
HETATM   15  C   UNK N   1      35.097  16.748  10.236  0.00  0.00     0.088 A 
ATOM     16  HN  UNK N   1      33.893  18.236   9.484  1.00  0.00     0.165 HD
HETATM   17  C   UNK N   1      35.312  15.374  10.324  0.00  0.00     0.017 A 
HETATM   18  C   UNK N   1      34.431  14.505   9.682  0.00  0.00     0.003 A 
HETATM   19  C   UNK N   1      33.351  15.018   8.963  0.00  0.00     0.025 A 
ENDBRANCH   1  13
TORSDOF 5
ENDMDL
MODEL 3
REMARK VINA RESULT:      -5.7      1.559      5.052
REMARK  5 active torsions:
REMARK  status: ('A' for Active; 'I' for Inactive)
REMARK    1  A    between atoms: N_1  and  C_6 
REMARK    2  A    between atoms: C_4  and  C_5 
REMARK    3  A    between atoms: C_4  and  C_7 
REMARK    4  A    between atoms: C_4  and  C_8 
REMARK    5  A    between atoms: C_5  and  C_6 
ROOT
HETATM    1  C   UNK N   1      32.727  17.081   7.792  0.00  0.00     0.070 C 
ENDROOT
BRANCH   1   2
HETATM    2  C   UNK N   1      33.476  17.589   6.553  0.00  0.00     0.046 C 
BRANCH   2   3
HETATM    3  C   UNK N   1      33.915  16.440   5.657  0.00  0.00     0.272 C 
BRANCH   3   4
HETATM    4  N   UNK N   1      32.933  16.236   4.605  0.00  0.00     0.080 N 
HETATM    5  C   UNK N   1      32.587  17.545   4.078  0.00  0.00     0.309 C 
HETATM    6  C   UNK N   1      33.590  15.510   3.534  0.00  0.00     0.309 C 
ENDBRANCH   3   4
ENDBRANCH   2   3
ENDBRANCH   1   2
BRANCH   1   7
HETATM    7  C   UNK N   1      31.259  17.448   7.943  0.00  0.00    -0.048 A 
HETATM    8  C   UNK N   1      30.819  18.254   9.007  0.00  0.00     0.008 A 
HETATM    9  C   UNK N   1      29.472  18.587   9.147  0.00  0.00     0.001 A 
HETATM   10  C   UNK N   1      28.540  18.114   8.224  0.00  0.00     0.000 A 
HETATM   11  C   UNK N   1      28.959  17.310   7.159  0.00  0.00     0.001 A 
HETATM   12  C   UNK N   1      30.312  16.981   7.018  0.00  0.00     0.008 A 
ENDBRANCH   1   7
BRANCH   1  13
HETATM   13  C   UNK N   1      33.528  16.521   8.961  0.00  0.00     0.017 A 
HETATM   14  N   UNK N   1      34.496  17.272   9.554  0.00  0.00    -0.369 N 
HETATM   15  C   UNK N   1      35.223  16.813  10.608  0.00  0.00     0.088 A 
ATOM     16  HN  UNK N   1      34.684  18.208   9.196  1.00  0.00     0.165 HD
HETATM   17  C   UNK N   1      34.982  15.540  11.120  0.00  0.00     0.017 A 
HETATM   18  C   UNK N   1      33.994  14.747  10.537  0.00  0.00     0.003 A 
HETATM   19  C   UNK N   1      33.264  15.235   9.454  0.00  0.00     0.025 A 
ENDBRANCH   1  13
TORSDOF 5
ENDMDL
MODEL 4
REMARK VINA RESULT:      -5.5      1.508      4.729
REMARK  5 active torsions:
REMARK  status: ('A' for Active; 'I' for Inactive)
REMARK    1  A    between atoms: N_1  and  C_6 
REMARK    2  A    between atoms: C_4  and  C_5 
REMARK    3  A    between atoms: C_4  and  C_7 
REMARK    4  A    between atoms: C_4  and  C_8 
REMARK    5  A    between atoms: C_5  and  C_6 
ROOT
HETATM    1  C   UNK N   1      31.734  16.435   7.232  0.00  0.00     0.070 C 
ENDROOT
BRANCH   1   2
HETATM    2  C   UNK N   1      32.502  15.513   8.190  0.00  0.00     0.046 C 
BRANCH   2   3
HETATM    3  C   UNK N   1      33.969  15.909   8.288  0.00  0.00     0.272 C 
BRANCH   3   4
HETATM    4  N   UNK N   1      34.105  17.076   9.144  0.00  0.00     0.080 N 
HETATM    5  C   UNK N   1      35.145  16.780  10.114  0.00  0.00     0.309 C 
HETATM    6  C   UNK N   1      34.594  18.163   8.319  0.00  0.00     0.309 C 
ENDBRANCH   3   4
ENDBRANCH   2   3
ENDBRANCH   1   2
BRANCH   1   7
HETATM    7  C   UNK N   1      30.507  17.158   7.764  0.00  0.00    -0.048 A 
HETATM    8  C   UNK N   1      29.284  17.112   7.074  0.00  0.00     0.008 A 
HETATM    9  C   UNK N   1      28.159  17.780   7.561  0.00  0.00     0.001 A 
HETATM   10  C   UNK N   1      28.244  18.510   8.746  0.00  0.00     0.000 A 
HETATM   11  C   UNK N   1      29.453  18.568   9.445  0.00  0.00     0.001 A 
HETATM   12  C   UNK N   1      30.579  17.893   8.958  0.00  0.00     0.008 A 
ENDBRANCH   1   7
BRANCH   1  13
HETATM   13  C   UNK N   1      32.017  16.346   5.738  0.00  0.00     0.017 A 
HETATM   14  N   UNK N   1      31.763  15.196   5.057  0.00  0.00    -0.369 N 
HETATM   15  C   UNK N   1      31.989  15.082   3.720  0.00  0.00     0.088 A 
ATOM     16  HN  UNK N   1      31.394  14.392   5.564  1.00  0.00     0.165 HD
HETATM   17  C   UNK N   1      32.489  16.167   3.002  0.00  0.00     0.017 A 
HETATM   18  C   UNK N   1      32.755  17.361   3.671  0.00  0.00     0.003 A 
HETATM   19  C   UNK N   1      32.521  17.454   5.042  0.00  0.00     0.025 A 
ENDBRANCH   1  13
TORSDOF 5
ENDMDL
MODEL 5
REMARK VINA RESULT:      -5.4      6.704     10.083
REMARK  5 active torsions:
REMARK  status: ('A' for Active; 'I' for Inactive)
REMARK    1  A    between atoms: N_1  and  C_6 
REMARK    2  A    between atoms: C_4  and  C_5 
REMARK    3  A    between atoms: C_4  and  C_7 
REMARK    4  A    between atoms: C_4  and  C_8 
REMARK    5  A    between atoms: C_5  and  C_6 
ROOT
HETATM    1  C   UNK N   1      36.391  12.967  14.267  0.00  0.00     0.070 C 
ENDROOT
BRANCH   1   2
HETATM    2  C   UNK N   1      35.873  11.527  14.390  0.00  0.00     0.046 C 
BRANCH   2   3
HETATM    3  C   UNK N   1      34.495  11.376  13.760  0.00  0.00     0.272 C 
BRANCH   3   4
HETATM    4  N   UNK N   1      34.498  10.249  12.841  0.00  0.00     0.080 N 
HETATM    5  C   UNK N   1      34.468  10.791  11.494  0.00  0.00     0.309 C 
HETATM    6  C   UNK N   1      35.770   9.569  12.994  0.00  0.00     0.309 C 
ENDBRANCH   3   4
ENDBRANCH   2   3
ENDBRANCH   1   2
BRANCH   1   7
HETATM    7  C   UNK N   1      36.404  13.833  15.516  0.00  0.00    -0.048 A 
HETATM    8  C   UNK N   1      37.221  14.973  15.600  0.00  0.00     0.008 A 
HETATM    9  C   UNK N   1      37.235  15.765  16.748  0.00  0.00     0.001 A 
HETATM   10  C   UNK N   1      36.433  15.423  17.837  0.00  0.00     0.000 A 
HETATM   11  C   UNK N   1      35.615  14.292  17.772  0.00  0.00     0.001 A 
HETATM   12  C   UNK N   1      35.599  13.501  16.617  0.00  0.00     0.008 A 
ENDBRANCH   1   7
BRANCH   1  13
HETATM   13  C   UNK N   1      36.563  13.573  12.880  0.00  0.00     0.017 A 
HETATM   14  N   UNK N   1      37.511  13.092  12.031  0.00  0.00    -0.369 N 
HETATM   15  C   UNK N   1      37.686  13.597  10.780  0.00  0.00     0.088 A 
ATOM     16  HN  UNK N   1      38.112  12.328  12.342  1.00  0.00     0.165 HD
HETATM   17  C   UNK N   1      36.876  14.637  10.329  0.00  0.00     0.017 A 
HETATM   18  C   UNK N   1      35.893  15.150  11.173  0.00  0.00     0.003 A 
HETATM   19  C   UNK N   1      35.733  14.620  12.453  0.00  0.00     0.025 A 
ENDBRANCH   1  13
TORSDOF 5
ENDMDL
MODEL 6
REMARK VINA RESULT:      -5.4      6.727     10.867
REMARK  5 active torsions:
REMARK  status: ('A' for Active; 'I' for Inactive)
REMARK    1  A    between atoms: N_1  and  C_6 
REMARK    2  A    between atoms: C_4  and  C_5 
REMARK    3  A    between atoms: C_4  and  C_7 
REMARK    4  A    between atoms: C_4  and  C_8 
REMARK    5  A    between atoms: C_5  and  C_6 
ROOT
HETATM    1  C   UNK N   1      35.626  12.547  14.898  0.00  0.00     0.070 C 
ENDROOT
BRANCH   1   2
HETATM    2  C   UNK N   1      36.234  13.842  14.341  0.00  0.00     0.046 C 
BRANCH   2   3
HETATM    3  C   UNK N   1      35.554  14.265  13.047  0.00  0.00     0.272 C 
BRANCH   3   4
HETATM    4  N   UNK N   1      36.560  14.644  12.067  0.00  0.00     0.080 N 
HETATM    5  C   UNK N   1      36.802  13.486  11.226  0.00  0.00     0.309 C 
HETATM    6  C   UNK N   1      35.975  15.666  11.220  0.00  0.00     0.309 C 
ENDBRANCH   3   4
ENDBRANCH   2   3
ENDBRANCH   1   2
BRANCH   1   7
HETATM    7  C   UNK N   1      35.540  12.387  16.408  0.00  0.00    -0.048 A 
HETATM    8  C   UNK N   1      35.767  11.142  17.018  0.00  0.00     0.008 A 
HETATM    9  C   UNK N   1      35.686  10.995  18.404  0.00  0.00     0.001 A 
HETATM   10  C   UNK N   1      35.368  12.095  19.201  0.00  0.00     0.000 A 
HETATM   11  C   UNK N   1      35.138  13.341  18.611  0.00  0.00     0.001 A 
HETATM   12  C   UNK N   1      35.226  13.487  17.221  0.00  0.00     0.008 A 
ENDBRANCH   1   7
BRANCH   1  13
HETATM   13  C   UNK N   1      35.434  11.360  13.963  0.00  0.00     0.017 A 
HETATM   14  N   UNK N   1      36.510  10.664  13.506  0.00  0.00    -0.369 N 
HETATM   15  C   UNK N   1      36.381   9.590  12.682  0.00  0.00     0.088 A 
ATOM     16  HN  UNK N   1      37.446  10.957  13.789  1.00  0.00     0.165 HD
HETATM   17  C   UNK N   1      35.114   9.165  12.284  0.00  0.00     0.017 A 
HETATM   18  C   UNK N   1      33.991   9.855  12.738  0.00  0.00     0.003 A 
HETATM   19  C   UNK N   1      34.147  10.956  13.580  0.00  0.00     0.025 A 
ENDBRANCH   1  13
TORSDOF 5
ENDMDL
MODEL 7
REMARK VINA RESULT:      -5.3     11.979     14.882
REMARK  5 active torsions:
REMARK  status: ('A' for Active; 'I' for Inactive)
REMARK    1  A    between atoms: N_1  and  C_6 
REMARK    2  A    between atoms: C_4  and  C_5 
REMARK    3  A    between atoms: C_4  and  C_7 
REMARK    4  A    between atoms: C_4  and  C_8 
REMARK    5  A    between atoms: C_5  and  C_6 
ROOT
HETATM    1  C   UNK N   1      35.535  10.696  20.000  0.00  0.00     0.070 C 
ENDROOT
BRANCH   1   2
HETATM    2  C   UNK N   1      36.876  10.568  20.736  0.00  0.00     0.046 C 
BRANCH   2   3
HETATM    3  C   UNK N   1      37.006   9.217  21.425  0.00  0.00     0.272 C 
BRANCH   3   4
HETATM    4  N   UNK N   1      37.668   9.383  22.708  0.00  0.00     0.080 N 
HETATM    5  C   UNK N   1      38.337  10.672  22.685  0.00  0.00     0.309 C 
HETATM    6  C   UNK N   1      36.633   9.463  23.722  0.00  0.00     0.309 C 
ENDBRANCH   3   4
ENDBRANCH   2   3
ENDBRANCH   1   2
BRANCH   1   7
HETATM    7  C   UNK N   1      35.470  11.602  18.780  0.00  0.00    -0.048 A 
HETATM    8  C   UNK N   1      35.655  11.090  17.486  0.00  0.00     0.008 A 
HETATM    9  C   UNK N   1      35.599  11.923  16.368  0.00  0.00     0.001 A 
HETATM   10  C   UNK N   1      35.363  13.287  16.530  0.00  0.00     0.000 A 
HETATM   11  C   UNK N   1      35.178  13.816  17.811  0.00  0.00     0.001 A 
HETATM   12  C   UNK N   1      35.229  12.977  18.931  0.00  0.00     0.008 A 
ENDBRANCH   1   7
BRANCH   1  13
HETATM   13  C   UNK N   1      34.268  10.191  20.679  0.00  0.00     0.017 A 
HETATM   14  N   UNK N   1      33.819  10.779  21.822  0.00  0.00    -0.369 N 
HETATM   15  C   UNK N   1      32.686  10.367  22.451  0.00  0.00     0.088 A 
ATOM     16  HN  UNK N   1      34.351  11.553  22.221  1.00  0.00     0.165 HD
HETATM   17  C   UNK N   1      31.939   9.315  21.923  0.00  0.00     0.017 A 
HETATM   18  C   UNK N   1      32.371   8.694  20.752  0.00  0.00     0.003 A 
HETATM   19  C   UNK N   1      33.538   9.130  20.126  0.00  0.00     0.025 A 
ENDBRANCH   1  13
TORSDOF 5
ENDMDL
MODEL 8
REMARK VINA RESULT:      -5.3      3.372      5.302
REMARK  5 active torsions:
REMARK  status: ('A' for Active; 'I' for Inactive)
REMARK    1  A    between atoms: N_1  and  C_6 
REMARK    2  A    between atoms: C_4  and  C_5 
REMARK    3  A    between atoms: C_4  and  C_7 
REMARK    4  A    between atoms: C_4  and  C_8 
REMARK    5  A    between atoms: C_5  and  C_6 
ROOT
HETATM    1  C   UNK N   1      29.139  17.294   5.556  0.00  0.00     0.070 C 
ENDROOT
BRANCH   1   2
HETATM    2  C   UNK N   1      28.449  15.964   5.890  0.00  0.00     0.046 C 
BRANCH   2   3
HETATM    3  C   UNK N   1      28.585  14.965   4.750  0.00  0.00     0.272 C 
BRANCH   3   4
HETATM    4  N   UNK N   1      28.188  15.591   3.500  0.00  0.00     0.080 N 
HETATM    5  C   UNK N   1      29.086  15.102   2.468  0.00  0.00     0.309 C 
HETATM    6  C   UNK N   1      26.863  15.102   3.171  0.00  0.00     0.309 C 
ENDBRANCH   3   4
ENDBRANCH   2   3
ENDBRANCH   1   2
BRANCH   1   7
HETATM    7  C   UNK N   1      30.659  17.331   5.550  0.00  0.00    -0.048 A 
HETATM    8  C   UNK N   1      31.375  17.546   4.361  0.00  0.00     0.008 A 
HETATM    9  C   UNK N   1      32.770  17.576   4.356  0.00  0.00     0.001 A 
HETATM   10  C   UNK N   1      33.472  17.385   5.546  0.00  0.00     0.000 A 
HETATM   11  C   UNK N   1      32.777  17.169   6.739  0.00  0.00     0.001 A 
HETATM   12  C   UNK N   1      31.378  17.144   6.742  0.00  0.00     0.008 A 
ENDBRANCH   1   7
BRANCH   1  13
HETATM   13  C   UNK N   1      28.316  18.575   5.563  0.00  0.00     0.017 A 
HETATM   14  N   UNK N   1      28.021  19.197   6.738  0.00  0.00    -0.369 N 
HETATM   15  C   UNK N   1      27.300  20.349   6.785  0.00  0.00     0.088 A 
ATOM     16  HN  UNK N   1      28.349  18.785   7.611  1.00  0.00     0.165 HD
HETATM   17  C   UNK N   1      26.845  20.936   5.606  0.00  0.00     0.017 A 
HETATM   18  C   UNK N   1      27.133  20.326   4.386  0.00  0.00     0.003 A 
HETATM   19  C   UNK N   1      27.870  19.142   4.361  0.00  0.00     0.025 A 
ENDBRANCH   1  13
TORSDOF 5
ENDMDL
MODEL 9
REMARK VINA RESULT:      -5.3     13.643     16.235
REMARK  5 active torsions:
REMARK  status: ('A' for Active; 'I' for Inactive)
REMARK    1  A    between atoms: N_1  and  C_6 
REMARK    2  A    between atoms: C_4  and  C_5 
REMARK    3  A    between atoms: C_4  and  C_7 
REMARK    4  A    between atoms: C_4  and  C_8 
REMARK    5  A    between atoms: C_5  and  C_6 
ROOT
HETATM    1  C   UNK N   1      26.800  25.271  -4.154  0.00  0.00     0.070 C 
ENDROOT
BRANCH   1   2
HETATM    2  C   UNK N   1      25.717  24.454  -4.874  0.00  0.00     0.046 C 
BRANCH   2   3
HETATM    3  C   UNK N   1      26.318  23.552  -5.943  0.00  0.00     0.272 C 
BRANCH   3   4
HETATM    4  N   UNK N   1      26.406  24.276  -7.201  0.00  0.00     0.080 N 
HETATM    5  C   UNK N   1      27.788  24.208  -7.642  0.00  0.00     0.309 C 
HETATM    6  C   UNK N   1      25.616  23.548  -8.175  0.00  0.00     0.309 C 
ENDBRANCH   3   4
ENDBRANCH   2   3
ENDBRANCH   1   2
BRANCH   1   7
HETATM    7  C   UNK N   1      26.802  26.780  -4.341  0.00  0.00    -0.048 A 
HETATM    8  C   UNK N   1      26.369  27.637  -3.316  0.00  0.00     0.008 A 
HETATM    9  C   UNK N   1      26.368  29.022  -3.490  0.00  0.00     0.001 A 
HETATM   10  C   UNK N   1      26.795  29.570  -4.699  0.00  0.00     0.000 A 
HETATM   11  C   UNK N   1      27.228  28.732  -5.731  0.00  0.00     0.001 A 
HETATM   12  C   UNK N   1      27.233  27.344  -5.553  0.00  0.00     0.008 A 
ENDBRANCH   1   7
BRANCH   1  13
HETATM   13  C   UNK N   1      27.999  24.544  -3.561  0.00  0.00     0.017 A 
HETATM   14  N   UNK N   1      27.828  23.630  -2.567  0.00  0.00    -0.369 N 
HETATM   15  C   UNK N   1      28.871  22.951  -2.020  0.00  0.00     0.088 A 
ATOM     16  HN  UNK N   1      26.886  23.450  -2.219  1.00  0.00     0.165 HD
HETATM   17  C   UNK N   1      30.167  23.175  -2.481  0.00  0.00     0.017 A 
HETATM   18  C   UNK N   1      30.376  24.102  -3.501  0.00  0.00     0.003 A 
HETATM   19  C   UNK N   1      29.292  24.791  -4.044  0.00  0.00     0.025 A 
ENDBRANCH   1  13
TORSDOF 5
ENDMDL
