REMARK  5 active torsions:
REMARK  status: ('A' for Active; 'I' for Inactive)
REMARK    1  A    between atoms: N_1  and  C_6 
REMARK    2  A    between atoms: C_4  and  C_5 
REMARK    3  A    between atoms: C_4  and  C_7 
REMARK    4  A    between atoms: C_4  and  C_8 
REMARK    5  A    between atoms: C_5  and  C_6 
ROOT
HETATM    1  C   UNK N   1       3.510   0.208   0.063  0.00  0.00     0.070 C 
ENDROOT
BRANCH   1   2
HETATM    2  C   UNK N   1       2.254   0.981   0.489  0.00  0.00     0.046 C 
BRANCH   2   3
HETATM    3  C   UNK N   1       1.946   2.118  -0.475  0.00  0.00     0.272 C 
BRANCH   3   4
HETATM    4  N   UNK N   1       1.294   3.203   0.240  0.00  0.00     0.080 N 
HETATM    5  C   UNK N   1       2.077   4.404   0.009  0.00  0.00     0.309 C 
HETATM    6  C   UNK N   1       0.001   3.416  -0.382  0.00  0.00     0.309 C 
ENDBRANCH   3   4
ENDBRANCH   2   3
ENDBRANCH   1   2
BRANCH   1   7
HETATM    7  C   UNK N   1       3.445  -1.311   0.045  0.00  0.00    -0.048 A 
HETATM    8  C   UNK N   1       4.612  -2.085  -0.067  0.00  0.00     0.008 A 
HETATM    9  C   UNK N   1       4.551  -3.479  -0.087  0.00  0.00     0.001 A 
HETATM   10  C   UNK N   1       3.316  -4.121  -0.001  0.00  0.00     0.000 A 
HETATM   11  C   UNK N   1       2.144  -3.367   0.110  0.00  0.00     0.001 A 
HETATM   12  C   UNK N   1       2.208  -1.969   0.135  0.00  0.00     0.008 A 
ENDBRANCH   1   7
BRANCH   1  13
HETATM   13  C   UNK N   1       4.841   0.945  -0.009  0.00  0.00     0.017 A 
HETATM   14  N   UNK N   1       5.984   0.273  -0.317  0.00  0.00    -0.369 N 
HETATM   15  C   UNK N   1       7.189   0.897  -0.405  0.00  0.00     0.088 A 
ATOM     16  HN  UNK N   1       5.936  -0.732  -0.486  1.00  0.00     0.165 HD
HETATM   17  C   UNK N   1       7.281   2.270  -0.184  0.00  0.00     0.017 A 
HETATM   18  C   UNK N   1       6.128   2.988   0.130  0.00  0.00     0.003 A 
HETATM   19  C   UNK N   1       4.903   2.327   0.219  0.00  0.00     0.025 A 
ENDBRANCH   1  13
TORSDOF 5
