MODEL 1
REMARK VINA RESULT:      -7.5      0.000      0.000
REMARK  9 active torsions:
REMARK  status: ('A' for Active; 'I' for Inactive)
REMARK    1  A    between atoms: S_2  and  N_8 
REMARK    2  A    between atoms: S_2  and  C_24 
REMARK    3  A    between atoms: O_3  and  C_17 
REMARK    4  A    between atoms: N_6  and  C_15 
REMARK    5  A    between atoms: N_7  and  C_18 
REMARK    6  A    between atoms: C_9  and  C_14 
REMARK    7  A    between atoms: C_14  and  C_17 
REMARK    8  A    between atoms: C_15  and  C_16 
REMARK    9  A    between atoms: C_16  and  C_18 
ROOT
HETATM    1  S   UNK N   1      23.669  20.564   3.057  0.00  0.00    -0.086 SA
HETATM    2  N   UNK N   1      23.669  17.573   4.206  0.00  0.00    -0.345 N 
HETATM    3  C   UNK N   1      24.908  18.288   4.188  0.00  0.00     0.053 A 
HETATM    4  C   UNK N   1      22.428  18.107   3.735  0.00  0.00     0.052 A 
HETATM    5  C   UNK N   1      25.034  19.609   3.706  0.00  0.00     0.032 A 
HETATM    6  C   UNK N   1      22.309  19.411   3.202  0.00  0.00     0.032 A 
HETATM    7  C   UNK N   1      26.061  17.641   4.658  0.00  0.00     0.055 A 
HETATM    8  C   UNK N   1      27.302  18.255   4.670  0.00  0.00     0.076 A 
HETATM    9  C   UNK N   1      21.271  17.301   3.795  0.00  0.00     0.031 A 
HETATM   10  C   UNK N   1      26.294  20.230   3.718  0.00  0.00     0.023 A 
HETATM   11  C   UNK N   1      27.426  19.560   4.196  0.00  0.00     0.026 A 
HETATM   12  C   UNK N   1      21.062  19.861   2.749  0.00  0.00     0.021 A 
HETATM   13  C   UNK N   1      20.038  17.763   3.344  0.00  0.00     0.002 A 
HETATM   14  C   UNK N   1      19.933  19.045   2.817  0.00  0.00     0.002 A 
ENDROOT
BRANCH   2  15
HETATM   15  C   UNK N   1      23.683  16.188   4.650  0.00  0.00     0.131 C 
BRANCH  15  16
HETATM   16  C   UNK N   1      23.175  16.033   6.078  0.00  0.00     0.050 C 
BRANCH  16  17
HETATM   17  C   UNK N   1      22.466  14.691   6.220  0.00  0.00     0.274 C 
BRANCH  17  18
HETATM   18  N   UNK N   1      22.577  14.197   7.587  0.00  0.00     0.088 N 
HETATM   19  C   UNK N   1      22.846  12.762   7.537  0.00  0.00     0.272 C 
HETATM   20  C   UNK N   1      23.058  12.239   8.959  0.00  0.00     0.035 C 
HETATM   21  C   UNK N   1      21.827  12.541   9.825  0.00  0.00    -0.009 C 
HETATM   22  C   UNK N   1      21.455  14.014   9.732  0.00  0.00     0.035 C 
HETATM   23  C   UNK N   1      21.297  14.387   8.269  0.00  0.00     0.272 C 
BRANCH  21  24
HETATM   24  C   UNK N   1      22.101  12.213  11.280  0.00  0.00     0.031 C 
BRANCH  24  25
HETATM   25  C   UNK N   1      23.572  11.933  11.505  0.00  0.00     0.164 C 
BRANCH  25  26
HETATM   26  O   UNK N   1      23.917  12.314  12.800  0.00  0.00    -0.401 OA
HETATM   27  H   UNK N   1      24.075  11.677  13.515  0.00  0.00     0.209 HD
ENDBRANCH  25  26
ENDBRANCH  24  25
ENDBRANCH  21  24
ENDBRANCH  17  18
ENDBRANCH  16  17
ENDBRANCH  15  16
ENDBRANCH   2  15
BRANCH   8  28
HETATM   28  S   UNK N   1      28.707  17.327   5.273  0.00  0.00     0.243 S 
HETATM   29  O   UNK N   1      28.621  15.883   4.747  0.00  0.00    -0.206 OA
HETATM   30  O   UNK N   1      30.044  17.781   4.665  0.00  0.00    -0.206 OA
BRANCH  28  31
HETATM   31  N   UNK N   1      28.936  17.179   7.035  0.00  0.00    -0.215 NA
HETATM   32  C   UNK N   1      28.416  18.369   7.684  0.00  0.00     0.129 C 
HETATM   33  C   UNK N   1      30.354  17.100   7.350  0.00  0.00     0.129 C 
ENDBRANCH  28  31
ENDBRANCH   8  28
TORSDOF 9
ENDMDL
MODEL 2
REMARK VINA RESULT:      -7.4      3.249      8.420
REMARK  9 active torsions:
REMARK  status: ('A' for Active; 'I' for Inactive)
REMARK    1  A    between atoms: S_2  and  N_8 
REMARK    2  A    between atoms: S_2  and  C_24 
REMARK    3  A    between atoms: O_3  and  C_17 
REMARK    4  A    between atoms: N_6  and  C_15 
REMARK    5  A    between atoms: N_7  and  C_18 
REMARK    6  A    between atoms: C_9  and  C_14 
REMARK    7  A    between atoms: C_14  and  C_17 
REMARK    8  A    between atoms: C_15  and  C_16 
REMARK    9  A    between atoms: C_16  and  C_18 
ROOT
HETATM    1  S   UNK N   1      20.686  14.303   9.455  0.00  0.00    -0.086 SA
HETATM    2  N   UNK N   1      23.334  14.238   7.653  0.00  0.00    -0.345 N 
HETATM    3  C   UNK N   1      22.219  15.002   7.184  0.00  0.00     0.053 A 
HETATM    4  C   UNK N   1      23.340  13.493   8.874  0.00  0.00     0.052 A 
HETATM    5  C   UNK N   1      21.000  15.106   7.888  0.00  0.00     0.032 A 
HETATM    6  C   UNK N   1      22.228  13.444   9.746  0.00  0.00     0.032 A 
HETATM    7  C   UNK N   1      22.333  15.668   5.955  0.00  0.00     0.055 A 
HETATM    8  C   UNK N   1      21.301  16.422   5.423  0.00  0.00     0.076 A 
HETATM    9  C   UNK N   1      24.499  12.769   9.227  0.00  0.00     0.031 A 
HETATM   10  C   UNK N   1      19.953  15.870   7.346  0.00  0.00     0.023 A 
HETATM   11  C   UNK N   1      20.098  16.528   6.119  0.00  0.00     0.026 A 
HETATM   12  C   UNK N   1      22.304  12.683  10.920  0.00  0.00     0.021 A 
HETATM   13  C   UNK N   1      24.561  12.020  10.398  0.00  0.00     0.002 A 
HETATM   14  C   UNK N   1      23.459  11.974  11.246  0.00  0.00     0.002 A 
ENDROOT
BRANCH   2  15
HETATM   15  C   UNK N   1      24.506  14.140   6.796  0.00  0.00     0.131 C 
BRANCH  15  16
HETATM   16  C   UNK N   1      25.608  15.108   7.210  0.00  0.00     0.050 C 
BRANCH  16  17
HETATM   17  C   UNK N   1      26.532  15.359   6.024  0.00  0.00     0.274 C 
BRANCH  17  18
HETATM   18  N   UNK N   1      26.281  16.677   5.452  0.00  0.00     0.088 N 
HETATM   19  C   UNK N   1      26.508  16.604   4.011  0.00  0.00     0.272 C 
HETATM   20  C   UNK N   1      26.162  17.952   3.377  0.00  0.00     0.035 C 
HETATM   21  C   UNK N   1      27.002  19.069   4.013  0.00  0.00    -0.009 C 
HETATM   22  C   UNK N   1      26.890  19.026   5.531  0.00  0.00     0.035 C 
HETATM   23  C   UNK N   1      27.243  17.629   6.007  0.00  0.00     0.272 C 
BRANCH  21  24
HETATM   24  C   UNK N   1      26.528  20.431   3.542  0.00  0.00     0.031 C 
BRANCH  24  25
HETATM   25  C   UNK N   1      25.266  20.310   2.714  0.00  0.00     0.164 C 
BRANCH  25  26
HETATM   26  O   UNK N   1      24.176  20.714   3.482  0.00  0.00    -0.401 OA
HETATM   27  H   UNK N   1      23.259  20.496   3.254  0.00  0.00     0.209 HD
ENDBRANCH  25  26
ENDBRANCH  24  25
ENDBRANCH  21  24
ENDBRANCH  17  18
ENDBRANCH  16  17
ENDBRANCH  15  16
ENDBRANCH   2  15
BRANCH   8  28
HETATM   28  S   UNK N   1      21.552  17.213   3.838  0.00  0.00     0.243 S 
HETATM   29  O   UNK N   1      22.826  18.074   3.901  0.00  0.00    -0.206 OA
HETATM   30  O   UNK N   1      21.919  16.228   2.716  0.00  0.00    -0.206 OA
BRANCH  28  31
HETATM   31  N   UNK N   1      20.278  18.293   3.214  0.00  0.00    -0.215 NA
HETATM   32  C   UNK N   1      19.828  17.803   1.924  0.00  0.00     0.129 C 
HETATM   33  C   UNK N   1      20.814  19.630   3.005  0.00  0.00     0.129 C 
ENDBRANCH  28  31
ENDBRANCH   8  28
TORSDOF 9
ENDMDL
MODEL 3
REMARK VINA RESULT:      -7.3      3.239      5.941
REMARK  9 active torsions:
REMARK  status: ('A' for Active; 'I' for Inactive)
REMARK    1  A    between atoms: S_2  and  N_8 
REMARK    2  A    between atoms: S_2  and  C_24 
REMARK    3  A    between atoms: O_3  and  C_17 
REMARK    4  A    between atoms: N_6  and  C_15 
REMARK    5  A    between atoms: N_7  and  C_18 
REMARK    6  A    between atoms: C_9  and  C_14 
REMARK    7  A    between atoms: C_14  and  C_17 
REMARK    8  A    between atoms: C_15  and  C_16 
REMARK    9  A    between atoms: C_16  and  C_18 
ROOT
HETATM    1  S   UNK N   1      23.105  19.856   3.095  0.00  0.00    -0.086 SA
HETATM    2  N   UNK N   1      23.844  17.305   4.888  0.00  0.00    -0.345 N 
HETATM    3  C   UNK N   1      22.485  17.463   4.467  0.00  0.00     0.053 A 
HETATM    4  C   UNK N   1      24.895  18.221   4.565  0.00  0.00     0.052 A 
HETATM    5  C   UNK N   1      22.039  18.544   3.677  0.00  0.00     0.032 A 
HETATM    6  C   UNK N   1      24.685  19.382   3.786  0.00  0.00     0.032 A 
HETATM    7  C   UNK N   1      21.544  16.505   4.873  0.00  0.00     0.055 A 
HETATM    8  C   UNK N   1      20.208  16.584   4.518  0.00  0.00     0.076 A 
HETATM    9  C   UNK N   1      26.196  17.963   5.046  0.00  0.00     0.031 A 
HETATM   10  C   UNK N   1      20.683  18.623   3.320  0.00  0.00     0.023 A 
HETATM   11  C   UNK N   1      19.767  17.649   3.736  0.00  0.00     0.026 A 
HETATM   12  C   UNK N   1      25.762  20.239   3.521  0.00  0.00     0.021 A 
HETATM   13  C   UNK N   1      27.257  18.822   4.772  0.00  0.00     0.002 A 
HETATM   14  C   UNK N   1      27.039  19.965   4.009  0.00  0.00     0.002 A 
ENDROOT
BRANCH   2  15
HETATM   15  C   UNK N   1      24.164  16.194   5.770  0.00  0.00     0.131 C 
BRANCH  15  16
HETATM   16  C   UNK N   1      24.886  15.067   5.042  0.00  0.00     0.050 C 
BRANCH  16  17
HETATM   17  C   UNK N   1      24.220  13.738   5.379  0.00  0.00     0.274 C 
BRANCH  17  18
HETATM   18  N   UNK N   1      23.796  13.719   6.774  0.00  0.00     0.088 N 
HETATM   19  C   UNK N   1      24.840  13.070   7.564  0.00  0.00     0.272 C 
HETATM   20  C   UNK N   1      24.457  13.121   9.044  0.00  0.00     0.035 C 
HETATM   21  C   UNK N   1      23.097  12.445   9.264  0.00  0.00    -0.009 C 
HETATM   22  C   UNK N   1      22.055  13.016   8.312  0.00  0.00     0.035 C 
HETATM   23  C   UNK N   1      22.581  12.913   6.893  0.00  0.00     0.272 C 
BRANCH  21  24
HETATM   24  C   UNK N   1      22.612  12.666  10.684  0.00  0.00     0.031 C 
BRANCH  24  25
HETATM   25  C   UNK N   1      23.462  11.897  11.674  0.00  0.00     0.164 C 
BRANCH  25  26
HETATM   26  O   UNK N   1      22.672  11.517  12.756  0.00  0.00    -0.401 OA
HETATM   27  H   UNK N   1      21.940  12.058  13.094  0.00  0.00     0.209 HD
ENDBRANCH  25  26
ENDBRANCH  24  25
ENDBRANCH  21  24
ENDBRANCH  17  18
ENDBRANCH  16  17
ENDBRANCH  15  16
ENDBRANCH   2  15
BRANCH   8  28
HETATM   28  S   UNK N   1      19.093  15.316   5.109  0.00  0.00     0.243 S 
HETATM   29  O   UNK N   1      19.667  14.699   6.396  0.00  0.00    -0.206 OA
HETATM   30  O   UNK N   1      17.754  15.872   5.623  0.00  0.00    -0.206 OA
BRANCH  28  31
HETATM   31  N   UNK N   1      18.730  13.936   4.040  0.00  0.00    -0.215 NA
HETATM   32  C   UNK N   1      19.316  12.732   4.603  0.00  0.00     0.129 C 
HETATM   33  C   UNK N   1      19.338  14.141   2.735  0.00  0.00     0.129 C 
ENDBRANCH  28  31
ENDBRANCH   8  28
TORSDOF 9
ENDMDL
MODEL 4
REMARK VINA RESULT:      -7.2      2.771      5.689
REMARK  9 active torsions:
REMARK  status: ('A' for Active; 'I' for Inactive)
REMARK    1  A    between atoms: S_2  and  N_8 
REMARK    2  A    between atoms: S_2  and  C_24 
REMARK    3  A    between atoms: O_3  and  C_17 
REMARK    4  A    between atoms: N_6  and  C_15 
REMARK    5  A    between atoms: N_7  and  C_18 
REMARK    6  A    between atoms: C_9  and  C_14 
REMARK    7  A    between atoms: C_14  and  C_17 
REMARK    8  A    between atoms: C_15  and  C_16 
REMARK    9  A    between atoms: C_16  and  C_18 
ROOT
HETATM    1  S   UNK N   1      27.775  19.488   4.166  0.00  0.00    -0.086 SA
HETATM    2  N   UNK N   1      25.897  16.922   4.563  0.00  0.00    -0.345 N 
HETATM    3  C   UNK N   1      25.291  18.139   4.114  0.00  0.00     0.053 A 
HETATM    4  C   UNK N   1      27.291  16.780   4.853  0.00  0.00     0.052 A 
HETATM    5  C   UNK N   1      26.013  19.333   3.904  0.00  0.00     0.032 A 
HETATM    6  C   UNK N   1      28.212  17.844   4.720  0.00  0.00     0.032 A 
HETATM    7  C   UNK N   1      23.907  18.152   3.888  0.00  0.00     0.055 A 
HETATM    8  C   UNK N   1      23.237  19.287   3.461  0.00  0.00     0.076 A 
HETATM    9  C   UNK N   1      27.771  15.530   5.299  0.00  0.00     0.031 A 
HETATM   10  C   UNK N   1      25.333  20.483   3.472  0.00  0.00     0.023 A 
HETATM   11  C   UNK N   1      23.950  20.466   3.250  0.00  0.00     0.026 A 
HETATM   12  C   UNK N   1      29.561  17.632   5.035  0.00  0.00     0.021 A 
HETATM   13  C   UNK N   1      29.115  15.334   5.605  0.00  0.00     0.002 A 
HETATM   14  C   UNK N   1      30.013  16.389   5.475  0.00  0.00     0.002 A 
ENDROOT
BRANCH   2  15
HETATM   15  C   UNK N   1      25.033  15.781   4.823  0.00  0.00     0.131 C 
BRANCH  15  16
HETATM   16  C   UNK N   1      24.754  15.594   6.309  0.00  0.00     0.050 C 
BRANCH  16  17
HETATM   17  C   UNK N   1      23.387  14.947   6.490  0.00  0.00     0.274 C 
BRANCH  17  18
HETATM   18  N   UNK N   1      23.236  14.442   7.850  0.00  0.00     0.088 N 
HETATM   19  C   UNK N   1      24.175  13.339   8.038  0.00  0.00     0.272 C 
HETATM   20  C   UNK N   1      24.099  12.854   9.487  0.00  0.00     0.035 C 
HETATM   21  C   UNK N   1      22.666  12.424   9.828  0.00  0.00    -0.009 C 
HETATM   22  C   UNK N   1      21.676  13.524   9.467  0.00  0.00     0.035 C 
HETATM   23  C   UNK N   1      21.884  13.910   8.014  0.00  0.00     0.272 C 
BRANCH  21  24
HETATM   24  C   UNK N   1      22.531  12.135  11.311  0.00  0.00     0.031 C 
BRANCH  24  25
HETATM   25  C   UNK N   1      23.889  11.927  11.949  0.00  0.00     0.164 C 
BRANCH  25  26
HETATM   26  O   UNK N   1      23.841  12.351  13.274  0.00  0.00    -0.401 OA
HETATM   27  H   UNK N   1      24.508  12.104  13.934  0.00  0.00     0.209 HD
ENDBRANCH  25  26
ENDBRANCH  24  25
ENDBRANCH  21  24
ENDBRANCH  17  18
ENDBRANCH  16  17
ENDBRANCH  15  16
ENDBRANCH   2  15
BRANCH   8  28
HETATM   28  S   UNK N   1      21.467  19.194   3.222  0.00  0.00     0.243 S 
HETATM   29  O   UNK N   1      20.761  19.640   4.515  0.00  0.00    -0.206 OA
HETATM   30  O   UNK N   1      20.931  20.234   2.223  0.00  0.00    -0.206 OA
BRANCH  28  31
HETATM   31  N   UNK N   1      20.746  17.619   2.804  0.00  0.00    -0.215 NA
HETATM   32  C   UNK N   1      20.276  17.661   1.430  0.00  0.00     0.129 C 
HETATM   33  C   UNK N   1      19.589  17.358   3.647  0.00  0.00     0.129 C 
ENDBRANCH  28  31
ENDBRANCH   8  28
TORSDOF 9
ENDMDL
MODEL 5
REMARK VINA RESULT:      -7.0      3.897      7.040
REMARK  9 active torsions:
REMARK  status: ('A' for Active; 'I' for Inactive)
REMARK    1  A    between atoms: S_2  and  N_8 
REMARK    2  A    between atoms: S_2  and  C_24 
REMARK    3  A    between atoms: O_3  and  C_17 
REMARK    4  A    between atoms: N_6  and  C_15 
REMARK    5  A    between atoms: N_7  and  C_18 
REMARK    6  A    between atoms: C_9  and  C_14 
REMARK    7  A    between atoms: C_14  and  C_17 
REMARK    8  A    between atoms: C_15  and  C_16 
REMARK    9  A    between atoms: C_16  and  C_18 
ROOT
HETATM    1  S   UNK N   1      26.046  16.862   5.250  0.00  0.00    -0.086 SA
HETATM    2  N   UNK N   1      23.011  17.775   4.783  0.00  0.00    -0.345 N 
HETATM    3  C   UNK N   1      23.247  16.572   5.521  0.00  0.00     0.053 A 
HETATM    4  C   UNK N   1      24.046  18.594   4.231  0.00  0.00     0.052 A 
HETATM    5  C   UNK N   1      24.538  16.069   5.790  0.00  0.00     0.032 A 
HETATM    6  C   UNK N   1      25.419  18.288   4.370  0.00  0.00     0.032 A 
HETATM    7  C   UNK N   1      22.142  15.846   5.987  0.00  0.00     0.055 A 
HETATM    8  C   UNK N   1      22.278  14.668   6.703  0.00  0.00     0.076 A 
HETATM    9  C   UNK N   1      23.688  19.755   3.513  0.00  0.00     0.031 A 
HETATM   10  C   UNK N   1      24.674  14.873   6.514  0.00  0.00     0.023 A 
HETATM   11  C   UNK N   1      23.552  14.172   6.971  0.00  0.00     0.026 A 
HETATM   12  C   UNK N   1      26.376  19.132   3.791  0.00  0.00     0.021 A 
HETATM   13  C   UNK N   1      24.651  20.586   2.947  0.00  0.00     0.002 A 
HETATM   14  C   UNK N   1      25.999  20.273   3.084  0.00  0.00     0.002 A 
ENDROOT
BRANCH   2  15
HETATM   15  C   UNK N   1      21.633  18.146   4.498  0.00  0.00     0.131 C 
BRANCH  15  16
HETATM   16  C   UNK N   1      21.211  17.764   3.085  0.00  0.00     0.050 C 
BRANCH  16  17
HETATM   17  C   UNK N   1      20.106  16.716   3.153  0.00  0.00     0.274 C 
BRANCH  17  18
HETATM   18  N   UNK N   1      20.601  15.421   2.702  0.00  0.00     0.088 N 
HETATM   19  C   UNK N   1      21.002  15.543   1.302  0.00  0.00     0.272 C 
HETATM   20  C   UNK N   1      21.610  14.220   0.834  0.00  0.00     0.035 C 
HETATM   21  C   UNK N   1      20.604  13.076   1.023  0.00  0.00    -0.009 C 
HETATM   22  C   UNK N   1      20.065  13.067   2.448  0.00  0.00     0.035 C 
HETATM   23  C   UNK N   1      19.515  14.444   2.771  0.00  0.00     0.272 C 
BRANCH  21  24
HETATM   24  C   UNK N   1      21.260  11.735   0.757  0.00  0.00     0.031 C 
BRANCH  24  25
HETATM   25  C   UNK N   1      20.707  10.668   1.679  0.00  0.00     0.164 C 
BRANCH  25  26
HETATM   26  O   UNK N   1      21.762  10.045   2.341  0.00  0.00    -0.401 OA
HETATM   27  H   UNK N   1      22.089  10.336   3.207  0.00  0.00     0.209 HD
ENDBRANCH  25  26
ENDBRANCH  24  25
ENDBRANCH  21  24
ENDBRANCH  17  18
ENDBRANCH  16  17
ENDBRANCH  15  16
ENDBRANCH   2  15
BRANCH   8  28
HETATM   28  S   UNK N   1      20.798  13.815   7.232  0.00  0.00     0.243 S 
HETATM   29  O   UNK N   1      19.653  14.139   6.255  0.00  0.00    -0.206 OA
HETATM   30  O   UNK N   1      20.887  12.287   7.080  0.00  0.00    -0.206 OA
BRANCH  28  31
HETATM   31  N   UNK N   1      20.150  14.160   8.856  0.00  0.00    -0.215 NA
HETATM   32  C   UNK N   1      19.920  15.589   8.982  0.00  0.00     0.129 C 
HETATM   33  C   UNK N   1      21.123  13.789   9.872  0.00  0.00     0.129 C 
ENDBRANCH  28  31
ENDBRANCH   8  28
TORSDOF 9
ENDMDL
MODEL 6
REMARK VINA RESULT:      -6.9      3.137      8.511
REMARK  9 active torsions:
REMARK  status: ('A' for Active; 'I' for Inactive)
REMARK    1  A    between atoms: S_2  and  N_8 
REMARK    2  A    between atoms: S_2  and  C_24 
REMARK    3  A    between atoms: O_3  and  C_17 
REMARK    4  A    between atoms: N_6  and  C_15 
REMARK    5  A    between atoms: N_7  and  C_18 
REMARK    6  A    between atoms: C_9  and  C_14 
REMARK    7  A    between atoms: C_14  and  C_17 
REMARK    8  A    between atoms: C_15  and  C_16 
REMARK    9  A    between atoms: C_16  and  C_18 
ROOT
HETATM    1  S   UNK N   1      20.676  14.341   9.432  0.00  0.00    -0.086 SA
HETATM    2  N   UNK N   1      23.278  14.243   7.565  0.00  0.00    -0.345 N 
HETATM    3  C   UNK N   1      22.177  15.055   7.144  0.00  0.00     0.053 A 
HETATM    4  C   UNK N   1      23.288  13.464   8.764  0.00  0.00     0.052 A 
HETATM    5  C   UNK N   1      20.979  15.178   7.881  0.00  0.00     0.032 A 
HETATM    6  C   UNK N   1      22.196  13.425   9.661  0.00  0.00     0.032 A 
HETATM    7  C   UNK N   1      22.285  15.752   5.932  0.00  0.00     0.055 A 
HETATM    8  C   UNK N   1      21.266  16.554   5.446  0.00  0.00     0.076 A 
HETATM    9  C   UNK N   1      24.431  12.694   9.069  0.00  0.00     0.031 A 
HETATM   10  C   UNK N   1      19.946  15.990   7.386  0.00  0.00     0.023 A 
HETATM   11  C   UNK N   1      20.084  16.678   6.174  0.00  0.00     0.026 A 
HETATM   12  C   UNK N   1      22.274  12.628  10.811  0.00  0.00     0.021 A 
HETATM   13  C   UNK N   1      24.496  11.909  10.217  0.00  0.00     0.002 A 
HETATM   14  C   UNK N   1      23.413  11.874  11.090  0.00  0.00     0.002 A 
ENDROOT
BRANCH   2  15
HETATM   15  C   UNK N   1      24.426  14.132   6.678  0.00  0.00     0.131 C 
BRANCH  15  16
HETATM   16  C   UNK N   1      25.454  15.230   6.923  0.00  0.00     0.050 C 
BRANCH  16  17
HETATM   17  C   UNK N   1      25.668  16.019   5.636  0.00  0.00     0.274 C 
BRANCH  17  18
HETATM   18  N   UNK N   1      27.088  16.104   5.319  0.00  0.00     0.088 N 
HETATM   19  C   UNK N   1      27.782  16.688   6.464  0.00  0.00     0.272 C 
HETATM   20  C   UNK N   1      29.287  16.701   6.189  0.00  0.00     0.035 C 
HETATM   21  C   UNK N   1      29.584  17.486   4.903  0.00  0.00    -0.009 C 
HETATM   22  C   UNK N   1      28.726  16.976   3.754  0.00  0.00     0.035 C 
HETATM   23  C   UNK N   1      27.270  17.004   4.181  0.00  0.00     0.272 C 
BRANCH  21  24
HETATM   24  C   UNK N   1      31.041  17.337   4.509  0.00  0.00     0.031 C 
BRANCH  24  25
HETATM   25  C   UNK N   1      31.179  16.511   3.247  0.00  0.00     0.164 C 
BRANCH  25  26
HETATM   26  O   UNK N   1      31.894  17.239   2.300  0.00  0.00    -0.401 OA
HETATM   27  H   UNK N   1      32.626  16.864   1.785  0.00  0.00     0.209 HD
ENDBRANCH  25  26
ENDBRANCH  24  25
ENDBRANCH  21  24
ENDBRANCH  17  18
ENDBRANCH  16  17
ENDBRANCH  15  16
ENDBRANCH   2  15
BRANCH   8  28
HETATM   28  S   UNK N   1      21.505  17.381   3.879  0.00  0.00     0.243 S 
HETATM   29  O   UNK N   1      22.997  17.722   3.711  0.00  0.00    -0.206 OA
HETATM   30  O   UNK N   1      21.276  16.465   2.664  0.00  0.00    -0.206 OA
BRANCH  28  31
HETATM   31  N   UNK N   1      20.632  18.906   3.579  0.00  0.00    -0.215 NA
HETATM   32  C   UNK N   1      19.508  18.646   2.697  0.00  0.00     0.129 C 
HETATM   33  C   UNK N   1      21.502  19.855   2.900  0.00  0.00     0.129 C 
ENDBRANCH  28  31
ENDBRANCH   8  28
TORSDOF 9
ENDMDL
MODEL 7
REMARK VINA RESULT:      -6.9      4.231      8.110
REMARK  9 active torsions:
REMARK  status: ('A' for Active; 'I' for Inactive)
REMARK    1  A    between atoms: S_2  and  N_8 
REMARK    2  A    between atoms: S_2  and  C_24 
REMARK    3  A    between atoms: O_3  and  C_17 
REMARK    4  A    between atoms: N_6  and  C_15 
REMARK    5  A    between atoms: N_7  and  C_18 
REMARK    6  A    between atoms: C_9  and  C_14 
REMARK    7  A    between atoms: C_14  and  C_17 
REMARK    8  A    between atoms: C_15  and  C_16 
REMARK    9  A    between atoms: C_16  and  C_18 
ROOT
HETATM    1  S   UNK N   1      20.634  14.395   9.433  0.00  0.00    -0.086 SA
HETATM    2  N   UNK N   1      23.157  14.277   7.461  0.00  0.00    -0.345 N 
HETATM    3  C   UNK N   1      22.045  15.094   7.084  0.00  0.00     0.053 A 
HETATM    4  C   UNK N   1      23.212  13.500   8.662  0.00  0.00     0.052 A 
HETATM    5  C   UNK N   1      20.879  15.225   7.868  0.00  0.00     0.032 A 
HETATM    6  C   UNK N   1      22.157  13.471   9.603  0.00  0.00     0.032 A 
HETATM    7  C   UNK N   1      22.107  15.787   5.866  0.00  0.00     0.055 A 
HETATM    8  C   UNK N   1      21.073  16.593   5.420  0.00  0.00     0.076 A 
HETATM    9  C   UNK N   1      24.362  12.725   8.922  0.00  0.00     0.031 A 
HETATM   10  C   UNK N   1      19.831  16.043   7.413  0.00  0.00     0.023 A 
HETATM   11  C   UNK N   1      19.923  16.726   6.195  0.00  0.00     0.026 A 
HETATM   12  C   UNK N   1      22.277  12.677  10.751  0.00  0.00     0.021 A 
HETATM   13  C   UNK N   1      24.469  11.943  10.069  0.00  0.00     0.002 A 
HETATM   14  C   UNK N   1      23.422  11.917  10.985  0.00  0.00     0.002 A 
ENDROOT
BRANCH   2  15
HETATM   15  C   UNK N   1      24.268  14.156   6.529  0.00  0.00     0.131 C 
BRANCH  15  16
HETATM   16  C   UNK N   1      24.058  13.032   5.522  0.00  0.00     0.050 C 
BRANCH  16  17
HETATM   17  C   UNK N   1      24.522  13.492   4.145  0.00  0.00     0.274 C 
BRANCH  17  18
HETATM   18  N   UNK N   1      23.541  13.132   3.129  0.00  0.00     0.088 N 
HETATM   19  C   UNK N   1      23.330  14.289   2.262  0.00  0.00     0.272 C 
HETATM   20  C   UNK N   1      22.373  13.904   1.132  0.00  0.00     0.035 C 
HETATM   21  C   UNK N   1      21.045  13.397   1.711  0.00  0.00    -0.009 C 
HETATM   22  C   UNK N   1      21.292  12.304   2.742  0.00  0.00     0.035 C 
HETATM   23  C   UNK N   1      22.269  12.825   3.781  0.00  0.00     0.272 C 
BRANCH  21  24
HETATM   24  C   UNK N   1      20.166  12.823   0.616  0.00  0.00     0.031 C 
BRANCH  24  25
HETATM   25  C   UNK N   1      18.895  13.632   0.460  0.00  0.00     0.164 C 
BRANCH  25  26
HETATM   26  O   UNK N   1      18.727  14.439   1.582  0.00  0.00    -0.401 OA
HETATM   27  H   UNK N   1      19.429  15.007   1.936  0.00  0.00     0.209 HD
ENDBRANCH  25  26
ENDBRANCH  24  25
ENDBRANCH  21  24
ENDBRANCH  17  18
ENDBRANCH  16  17
ENDBRANCH  15  16
ENDBRANCH   2  15
BRANCH   8  28
HETATM   28  S   UNK N   1      21.253  17.415   3.841  0.00  0.00     0.243 S 
HETATM   29  O   UNK N   1      22.743  17.448   3.457  0.00  0.00    -0.206 OA
HETATM   30  O   UNK N   1      20.666  16.614   2.667  0.00  0.00    -0.206 OA
BRANCH  28  31
HETATM   31  N   UNK N   1      20.685  19.097   3.688  0.00  0.00    -0.215 NA
HETATM   32  C   UNK N   1      19.545  19.134   2.788  0.00  0.00     0.129 C 
HETATM   33  C   UNK N   1      21.726  19.925   3.098  0.00  0.00     0.129 C 
ENDBRANCH  28  31
ENDBRANCH   8  28
TORSDOF 9
ENDMDL
MODEL 8
REMARK VINA RESULT:      -6.8     13.840     15.925
REMARK  9 active torsions:
REMARK  status: ('A' for Active; 'I' for Inactive)
REMARK    1  A    between atoms: S_2  and  N_8 
REMARK    2  A    between atoms: S_2  and  C_24 
REMARK    3  A    between atoms: O_3  and  C_17 
REMARK    4  A    between atoms: N_6  and  C_15 
REMARK    5  A    between atoms: N_7  and  C_18 
REMARK    6  A    between atoms: C_9  and  C_14 
REMARK    7  A    between atoms: C_14  and  C_17 
REMARK    8  A    between atoms: C_15  and  C_16 
REMARK    9  A    between atoms: C_16  and  C_18 
ROOT
HETATM    1  S   UNK N   1      26.988  28.963  -3.620  0.00  0.00    -0.086 SA
HETATM    2  N   UNK N   1      29.106  26.671  -4.346  0.00  0.00    -0.345 N 
HETATM    3  C   UNK N   1      27.790  26.573  -4.899  0.00  0.00     0.053 A 
HETATM    4  C   UNK N   1      29.535  27.726  -3.480  0.00  0.00     0.052 A 
HETATM    5  C   UNK N   1      26.772  27.519  -4.652  0.00  0.00     0.032 A 
HETATM    6  C   UNK N   1      28.687  28.787  -3.088  0.00  0.00     0.032 A 
HETATM    7  C   UNK N   1      27.488  25.473  -5.716  0.00  0.00     0.055 A 
HETATM    8  C   UNK N   1      26.239  25.295  -6.286  0.00  0.00     0.076 A 
HETATM    9  C   UNK N   1      30.858  27.711  -2.989  0.00  0.00     0.031 A 
HETATM   10  C   UNK N   1      25.505  27.336  -5.230  0.00  0.00     0.023 A 
HETATM   11  C   UNK N   1      25.235  26.230  -6.044  0.00  0.00     0.026 A 
HETATM   12  C   UNK N   1      29.175  29.779  -2.227  0.00  0.00     0.021 A 
HETATM   13  C   UNK N   1      31.330  28.705  -2.136  0.00  0.00     0.002 A 
HETATM   14  C   UNK N   1      30.485  29.742  -1.752  0.00  0.00     0.002 A 
ENDROOT
BRANCH   2  15
HETATM   15  C   UNK N   1      30.042  25.589  -4.607  0.00  0.00     0.131 C 
BRANCH  15  16
HETATM   16  C   UNK N   1      29.854  24.418  -3.650  0.00  0.00     0.050 C 
BRANCH  16  17
HETATM   17  C   UNK N   1      29.605  23.145  -4.450  0.00  0.00     0.274 C 
BRANCH  17  18
HETATM   18  N   UNK N   1      30.707  22.208  -4.274  0.00  0.00     0.088 N 
HETATM   19  C   UNK N   1      31.381  22.520  -3.017  0.00  0.00     0.272 C 
HETATM   20  C   UNK N   1      32.485  21.490  -2.767  0.00  0.00     0.035 C 
HETATM   21  C   UNK N   1      33.477  21.481  -3.939  0.00  0.00    -0.009 C 
HETATM   22  C   UNK N   1      32.741  21.325  -5.263  0.00  0.00     0.035 C 
HETATM   23  C   UNK N   1      31.672  22.398  -5.357  0.00  0.00     0.272 C 
BRANCH  21  24
HETATM   24  C   UNK N   1      34.456  20.330  -3.803  0.00  0.00     0.031 C 
BRANCH  24  25
HETATM   25  C   UNK N   1      33.966  19.109  -4.553  0.00  0.00     0.164 C 
BRANCH  25  26
HETATM   26  O   UNK N   1      33.549  18.147  -3.637  0.00  0.00    -0.401 OA
HETATM   27  H   UNK N   1      34.165  17.614  -3.111  0.00  0.00     0.209 HD
ENDBRANCH  25  26
ENDBRANCH  24  25
ENDBRANCH  21  24
ENDBRANCH  17  18
ENDBRANCH  16  17
ENDBRANCH  15  16
ENDBRANCH   2  15
BRANCH   8  28
HETATM   28  S   UNK N   1      25.961  23.844  -7.295  0.00  0.00     0.243 S 
HETATM   29  O   UNK N   1      27.263  23.026  -7.371  0.00  0.00    -0.206 OA
HETATM   30  O   UNK N   1      25.012  22.822  -6.645  0.00  0.00    -0.206 OA
BRANCH  28  31
HETATM   31  N   UNK N   1      25.441  24.069  -8.985  0.00  0.00    -0.215 NA
HETATM   32  C   UNK N   1      26.058  23.048  -9.813  0.00  0.00     0.129 C 
HETATM   33  C   UNK N   1      25.895  25.359  -9.481  0.00  0.00     0.129 C 
ENDBRANCH  28  31
ENDBRANCH   8  28
TORSDOF 9
ENDMDL
MODEL 9
REMARK VINA RESULT:      -6.7      3.203      5.890
REMARK  9 active torsions:
REMARK  status: ('A' for Active; 'I' for Inactive)
REMARK    1  A    between atoms: S_2  and  N_8 
REMARK    2  A    between atoms: S_2  and  C_24 
REMARK    3  A    between atoms: O_3  and  C_17 
REMARK    4  A    between atoms: N_6  and  C_15 
REMARK    5  A    between atoms: N_7  and  C_18 
REMARK    6  A    between atoms: C_9  and  C_14 
REMARK    7  A    between atoms: C_14  and  C_17 
REMARK    8  A    between atoms: C_15  and  C_16 
REMARK    9  A    between atoms: C_16  and  C_18 
ROOT
HETATM    1  S   UNK N   1      25.051  18.223   3.596  0.00  0.00    -0.086 SA
HETATM    2  N   UNK N   1      24.900  15.936   5.835  0.00  0.00    -0.345 N 
HETATM    3  C   UNK N   1      23.671  16.466   5.328  0.00  0.00     0.053 A 
HETATM    4  C   UNK N   1      26.196  16.369   5.410  0.00  0.00     0.052 A 
HETATM    5  C   UNK N   1      23.610  17.475   4.343  0.00  0.00     0.032 A 
HETATM    6  C   UNK N   1      26.385  17.374   4.433  0.00  0.00     0.032 A 
HETATM    7  C   UNK N   1      22.465  15.971   5.847  0.00  0.00     0.055 A 
HETATM    8  C   UNK N   1      21.231  16.433   5.421  0.00  0.00     0.076 A 
HETATM    9  C   UNK N   1      27.338  15.776   5.990  0.00  0.00     0.031 A 
HETATM   10  C   UNK N   1      22.357  17.942   3.913  0.00  0.00     0.023 A 
HETATM   11  C   UNK N   1      21.170  17.427   4.446  0.00  0.00     0.026 A 
HETATM   12  C   UNK N   1      27.686  17.754   4.077  0.00  0.00     0.021 A 
HETATM   13  C   UNK N   1      28.624  16.163   5.623  0.00  0.00     0.002 A 
HETATM   14  C   UNK N   1      28.799  17.156   4.665  0.00  0.00     0.002 A 
ENDROOT
BRANCH   2  15
HETATM   15  C   UNK N   1      24.834  14.958   6.910  0.00  0.00     0.131 C 
BRANCH  15  16
HETATM   16  C   UNK N   1      24.895  13.526   6.393  0.00  0.00     0.050 C 
BRANCH  16  17
HETATM   17  C   UNK N   1      23.594  12.809   6.733  0.00  0.00     0.274 C 
BRANCH  17  18
HETATM   18  N   UNK N   1      23.418  12.727   8.178  0.00  0.00     0.088 N 
HETATM   19  C   UNK N   1      23.304  11.319   8.550  0.00  0.00     0.272 C 
HETATM   20  C   UNK N   1      23.211  11.205  10.072  0.00  0.00     0.035 C 
HETATM   21  C   UNK N   1      22.014  12.013  10.593  0.00  0.00    -0.009 C 
HETATM   22  C   UNK N   1      22.056  13.438  10.057  0.00  0.00     0.035 C 
HETATM   23  C   UNK N   1      22.166  13.388   8.545  0.00  0.00     0.272 C 
BRANCH  21  24
HETATM   24  C   UNK N   1      22.029  12.077  12.108  0.00  0.00     0.031 C 
BRANCH  24  25
HETATM   25  C   UNK N   1      23.389  11.695  12.655  0.00  0.00     0.164 C 
BRANCH  25  26
HETATM   26  O   UNK N   1      23.847  12.711  13.489  0.00  0.00    -0.401 OA
HETATM   27  H   UNK N   1      24.286  13.511  13.159  0.00  0.00     0.209 HD
ENDBRANCH  25  26
ENDBRANCH  24  25
ENDBRANCH  21  24
ENDBRANCH  17  18
ENDBRANCH  16  17
ENDBRANCH  15  16
ENDBRANCH   2  15
BRANCH   8  28
HETATM   28  S   UNK N   1      19.759  15.743   6.166  0.00  0.00     0.243 S 
HETATM   29  O   UNK N   1      18.538  16.112   5.304  0.00  0.00    -0.206 OA
HETATM   30  O   UNK N   1      19.706  14.207   6.105  0.00  0.00    -0.206 OA
BRANCH  28  31
HETATM   31  N   UNK N   1      19.335  16.234   7.826  0.00  0.00    -0.215 NA
HETATM   32  C   UNK N   1      17.939  16.632   7.863  0.00  0.00     0.129 C 
HETATM   33  C   UNK N   1      20.123  17.391   8.223  0.00  0.00     0.129 C 
ENDBRANCH  28  31
ENDBRANCH   8  28
TORSDOF 9
ENDMDL
