REMARK  6 active torsions:
REMARK  status: ('A' for Active; 'I' for Inactive)
REMARK    1  A    between atoms: S_2  and  N_8 
REMARK    2  A    between atoms: S_2  and  C_22 
REMARK    3  A    between atoms: N_5  and  C_11 
REMARK    4  A    between atoms: N_7  and  C_15 
REMARK    5  A    between atoms: C_11  and  C_14 
REMARK    6  A    between atoms: C_14  and  C_15 
ROOT
HETATM    1  S   UNK N   1       5.069  -4.703   0.500  0.00  0.00    -0.086 SA
HETATM    2  N   UNK N   1       4.718  -1.570  -0.054  0.00  0.00    -0.345 N 
HETATM    3  C   UNK N   1       6.042  -2.104  -0.027  0.00  0.00     0.053 A 
HETATM    4  C   UNK N   1       3.532  -2.345   0.144  0.00  0.00     0.052 A 
HETATM    5  C   UNK N   1       6.327  -3.464   0.204  0.00  0.00     0.032 A 
HETATM    6  C   UNK N   1       3.563  -3.737   0.386  0.00  0.00     0.032 A 
HETATM    7  C   UNK N   1       7.110  -1.231  -0.274  0.00  0.00     0.055 A 
HETATM    8  C   UNK N   1       8.425  -1.656  -0.298  0.00  0.00     0.076 A 
HETATM    9  C   UNK N   1       2.278  -1.702   0.085  0.00  0.00     0.031 A 
HETATM   10  C   UNK N   1       7.665  -3.898   0.183  0.00  0.00     0.023 A 
HETATM   11  C   UNK N   1       8.713  -3.003  -0.076  0.00  0.00     0.026 A 
HETATM   12  C   UNK N   1       2.358  -4.435   0.550  0.00  0.00     0.021 A 
HETATM   13  C   UNK N   1       1.089  -2.407   0.256  0.00  0.00     0.002 A 
HETATM   14  C   UNK N   1       1.129  -3.778   0.485  0.00  0.00     0.002 A 
ENDROOT
BRANCH   2  15
HETATM   15  C   UNK N   1       4.576  -0.171  -0.414  0.00  0.00     0.131 C 
BRANCH  15  16
HETATM   16  C   UNK N   1       4.571   0.705   0.825  0.00  0.00     0.050 C 
BRANCH  16  17
HETATM   17  C   UNK N   1       4.547   2.192   0.456  0.00  0.00     0.274 C 
BRANCH  17  18
HETATM   18  N   UNK N   1       3.639   2.535  -0.654  0.00  0.00     0.091 N 
HETATM   19  C   UNK N   1       2.372   1.790  -0.650  0.00  0.00     0.302 C 
HETATM   20  C   UNK N   1       1.541   2.107   0.595  0.00  0.00     0.302 C 
HETATM   21  N   UNK N   1       1.260   3.541   0.696  0.00  0.00     0.087 N 
HETATM   22  C   UNK N   1       2.492   4.337   0.615  0.00  0.00     0.302 C 
HETATM   23  C   UNK N   1       0.331   3.939  -0.353  0.00  0.00     0.310 C 
HETATM   24  C   UNK N   1       3.351   3.970  -0.610  0.00  0.00     0.302 C 
ENDBRANCH  17  18
ENDBRANCH  16  17
ENDBRANCH  15  16
ENDBRANCH   2  15
BRANCH   8  25
HETATM   25  S   UNK N   1       9.677  -0.460  -0.769  0.00  0.00     0.243 S 
HETATM   26  O   UNK N   1       9.052   0.946  -0.834  0.00  0.00    -0.206 OA
HETATM   27  O   UNK N   1      10.059  -0.655  -2.243  0.00  0.00    -0.206 OA
BRANCH  25  28
HETATM   28  N   UNK N   1      11.230  -0.275   0.081  0.00  0.00    -0.215 NA
HETATM   29  C   UNK N   1      11.392   1.098   0.535  0.00  0.00     0.129 C 
HETATM   30  C   UNK N   1      11.219  -1.117   1.261  0.00  0.00     0.129 C 
ENDBRANCH  25  28
ENDBRANCH   8  25
TORSDOF 6
