MODEL 1
REMARK VINA RESULT:      -6.7      0.000      0.000
REMARK  6 active torsions:
REMARK  status: ('A' for Active; 'I' for Inactive)
REMARK    1  A    between atoms: S_2  and  N_8 
REMARK    2  A    between atoms: S_2  and  C_22 
REMARK    3  A    between atoms: N_5  and  C_11 
REMARK    4  A    between atoms: N_7  and  C_15 
REMARK    5  A    between atoms: C_11  and  C_14 
REMARK    6  A    between atoms: C_14  and  C_15 
ROOT
HETATM    1  S   UNK N   1      31.064  19.786  -6.820  0.00  0.00    -0.086 SA
HETATM    2  N   UNK N   1      30.092  22.209  -4.967  0.00  0.00    -0.345 N 
HETATM    3  C   UNK N   1      29.319  21.896  -6.126  0.00  0.00     0.053 A 
HETATM    4  C   UNK N   1      31.274  21.506  -4.573  0.00  0.00     0.052 A 
HETATM    5  C   UNK N   1      29.640  20.853  -7.017  0.00  0.00     0.032 A 
HETATM    6  C   UNK N   1      31.792  20.414  -5.306  0.00  0.00     0.032 A 
HETATM    7  C   UNK N   1      28.162  22.648  -6.369  0.00  0.00     0.055 A 
HETATM    8  C   UNK N   1      27.331  22.404  -7.447  0.00  0.00     0.076 A 
HETATM    9  C   UNK N   1      31.947  21.906  -3.400  0.00  0.00     0.031 A 
HETATM   10  C   UNK N   1      28.798  20.605  -8.116  0.00  0.00     0.023 A 
HETATM   11  C   UNK N   1      27.642  21.369  -8.329  0.00  0.00     0.026 A 
HETATM   12  C   UNK N   1      32.944  19.760  -4.847  0.00  0.00     0.021 A 
HETATM   13  C   UNK N   1      33.094  21.250  -2.959  0.00  0.00     0.002 A 
HETATM   14  C   UNK N   1      33.591  20.172  -3.682  0.00  0.00     0.002 A 
ENDROOT
BRANCH   2  15
HETATM   15  C   UNK N   1      29.575  23.238  -4.084  0.00  0.00     0.131 C 
BRANCH  15  16
HETATM   16  C   UNK N   1      30.247  24.570  -4.359  0.00  0.00     0.050 C 
BRANCH  16  17
HETATM   17  C   UNK N   1      29.391  25.740  -3.862  0.00  0.00     0.274 C 
BRANCH  17  18
HETATM   18  N   UNK N   1      28.412  26.244  -4.842  0.00  0.00     0.091 N 
HETATM   19  C   UNK N   1      27.022  25.856  -4.561  0.00  0.00     0.302 C 
HETATM   20  C   UNK N   1      26.533  26.447  -3.238  0.00  0.00     0.302 C 
HETATM   21  N   UNK N   1      26.637  27.908  -3.237  0.00  0.00     0.087 N 
HETATM   22  C   UNK N   1      27.992  28.351  -3.593  0.00  0.00     0.302 C 
HETATM   23  C   UNK N   1      25.662  28.475  -4.160  0.00  0.00     0.310 C 
HETATM   24  C   UNK N   1      28.499  27.705  -4.896  0.00  0.00     0.302 C 
ENDBRANCH  17  18
ENDBRANCH  16  17
ENDBRANCH  15  16
ENDBRANCH   2  15
BRANCH   8  25
HETATM   25  S   UNK N   1      25.810  23.349  -7.555  0.00  0.00     0.243 S 
HETATM   26  O   UNK N   1      25.171  23.464  -6.158  0.00  0.00    -0.206 OA
HETATM   27  O   UNK N   1      24.733  22.527  -8.278  0.00  0.00    -0.206 OA
BRANCH  25  28
HETATM   28  N   UNK N   1      25.708  24.970  -8.283  0.00  0.00    -0.215 NA
HETATM   29  C   UNK N   1      27.015  25.609  -8.267  0.00  0.00     0.129 C 
HETATM   30  C   UNK N   1      25.316  24.833  -9.672  0.00  0.00     0.129 C 
ENDBRANCH  25  28
ENDBRANCH   8  25
TORSDOF 6
ENDMDL
MODEL 2
REMARK VINA RESULT:      -6.6     20.431     23.791
REMARK  6 active torsions:
REMARK  status: ('A' for Active; 'I' for Inactive)
REMARK    1  A    between atoms: S_2  and  N_8 
REMARK    2  A    between atoms: S_2  and  C_22 
REMARK    3  A    between atoms: N_5  and  C_11 
REMARK    4  A    between atoms: N_7  and  C_15 
REMARK    5  A    between atoms: C_11  and  C_14 
REMARK    6  A    between atoms: C_14  and  C_15 
ROOT
HETATM    1  S   UNK N   1      35.719   9.219  17.239  0.00  0.00    -0.086 SA
HETATM    2  N   UNK N   1      35.282  11.847  15.464  0.00  0.00    -0.345 N 
HETATM    3  C   UNK N   1      35.429  10.597  14.790  0.00  0.00     0.053 A 
HETATM    4  C   UNK N   1      35.309  12.005  16.886  0.00  0.00     0.052 A 
HETATM    5  C   UNK N   1      35.624   9.372  15.458  0.00  0.00     0.032 A 
HETATM    6  C   UNK N   1      35.486  10.916  17.770  0.00  0.00     0.032 A 
HETATM    7  C   UNK N   1      35.344  10.588  13.392  0.00  0.00     0.055 A 
HETATM    8  C   UNK N   1      35.445   9.427  12.650  0.00  0.00     0.076 A 
HETATM    9  C   UNK N   1      35.143  13.294  17.434  0.00  0.00     0.031 A 
HETATM   10  C   UNK N   1      35.730   8.189  14.704  0.00  0.00     0.023 A 
HETATM   11  C   UNK N   1      35.632   8.210  13.306  0.00  0.00     0.026 A 
HETATM   12  C   UNK N   1      35.481  11.144  19.153  0.00  0.00     0.021 A 
HETATM   13  C   UNK N   1      35.147  13.506  18.810  0.00  0.00     0.002 A 
HETATM   14  C   UNK N   1      35.313  12.428  19.673  0.00  0.00     0.002 A 
ENDROOT
BRANCH   2  15
HETATM   15  C   UNK N   1      34.976  13.007  14.647  0.00  0.00     0.131 C 
BRANCH  15  16
HETATM   16  C   UNK N   1      36.227  13.827  14.389  0.00  0.00     0.050 C 
BRANCH  16  17
HETATM   17  C   UNK N   1      36.133  14.581  13.058  0.00  0.00     0.274 C 
BRANCH  17  18
HETATM   18  N   UNK N   1      35.392  13.871  12.000  0.00  0.00     0.091 N 
HETATM   19  C   UNK N   1      34.382  14.691  11.315  0.00  0.00     0.302 C 
HETATM   20  C   UNK N   1      35.025  15.862  10.569  0.00  0.00     0.302 C 
HETATM   21  N   UNK N   1      36.012  15.393   9.593  0.00  0.00     0.087 N 
HETATM   22  C   UNK N   1      37.000  14.501  10.214  0.00  0.00     0.302 C 
HETATM   23  C   UNK N   1      35.338  14.715   8.494  0.00  0.00     0.310 C 
HETATM   24  C   UNK N   1      36.344  13.359  11.012  0.00  0.00     0.302 C 
ENDBRANCH  17  18
ENDBRANCH  16  17
ENDBRANCH  15  16
ENDBRANCH   2  15
BRANCH   8  25
HETATM   25  S   UNK N   1      35.174   9.544  10.880  0.00  0.00     0.243 S 
HETATM   26  O   UNK N   1      34.835   8.152  10.314  0.00  0.00    -0.206 OA
HETATM   27  O   UNK N   1      36.505   9.810  10.163  0.00  0.00    -0.206 OA
BRANCH  25  28
HETATM   28  N   UNK N   1      34.023  10.678  10.134  0.00  0.00    -0.215 NA
HETATM   29  C   UNK N   1      34.463  11.030   8.792  0.00  0.00     0.129 C 
HETATM   30  C   UNK N   1      32.738  10.020  10.003  0.00  0.00     0.129 C 
ENDBRANCH  25  28
ENDBRANCH   8  25
TORSDOF 6
ENDMDL
MODEL 3
REMARK VINA RESULT:      -6.5     14.490     15.942
REMARK  6 active torsions:
REMARK  status: ('A' for Active; 'I' for Inactive)
REMARK    1  A    between atoms: S_2  and  N_8 
REMARK    2  A    between atoms: S_2  and  C_22 
REMARK    3  A    between atoms: N_5  and  C_11 
REMARK    4  A    between atoms: N_7  and  C_15 
REMARK    5  A    between atoms: C_11  and  C_14 
REMARK    6  A    between atoms: C_14  and  C_15 
ROOT
HETATM    1  S   UNK N   1      20.786  14.431   9.469  0.00  0.00    -0.086 SA
HETATM    2  N   UNK N   1      23.296  14.175   7.500  0.00  0.00    -0.345 N 
HETATM    3  C   UNK N   1      22.227  15.040   7.117  0.00  0.00     0.053 A 
HETATM    4  C   UNK N   1      23.326  13.417   8.713  0.00  0.00     0.052 A 
HETATM    5  C   UNK N   1      21.071  15.239   7.897  0.00  0.00     0.032 A 
HETATM    6  C   UNK N   1      22.280  13.458   9.662  0.00  0.00     0.032 A 
HETATM    7  C   UNK N   1      22.350  15.749   5.915  0.00  0.00     0.055 A 
HETATM    8  C   UNK N   1      21.383  16.631   5.471  0.00  0.00     0.076 A 
HETATM    9  C   UNK N   1      24.446  12.604   8.983  0.00  0.00     0.031 A 
HETATM   10  C   UNK N   1      20.084  16.134   7.446  0.00  0.00     0.023 A 
HETATM   11  C   UNK N   1      20.239  16.837   6.243  0.00  0.00     0.026 A 
HETATM   12  C   UNK N   1      22.388  12.704  10.839  0.00  0.00     0.021 A 
HETATM   13  C   UNK N   1      24.537  11.855  10.154  0.00  0.00     0.002 A 
HETATM   14  C   UNK N   1      23.507  11.908  11.086  0.00  0.00     0.002 A 
ENDROOT
BRANCH   2  15
HETATM   15  C   UNK N   1      24.471  14.158   6.647  0.00  0.00     0.131 C 
BRANCH  15  16
HETATM   16  C   UNK N   1      25.529  15.111   7.169  0.00  0.00     0.050 C 
BRANCH  16  17
HETATM   17  C   UNK N   1      26.041  16.037   6.061  0.00  0.00     0.274 C 
BRANCH  17  18
HETATM   18  N   UNK N   1      26.570  15.340   4.874  0.00  0.00     0.091 N 
HETATM   19  C   UNK N   1      26.611  16.165   3.658  0.00  0.00     0.302 C 
HETATM   20  C   UNK N   1      27.562  17.353   3.821  0.00  0.00     0.302 C 
HETATM   21  N   UNK N   1      28.918  16.908   4.150  0.00  0.00     0.087 N 
HETATM   22  C   UNK N   1      28.921  16.012   5.314  0.00  0.00     0.302 C 
HETATM   23  C   UNK N   1      29.515  16.244   2.999  0.00  0.00     0.310 C 
HETATM   24  C   UNK N   1      27.918  14.851   5.167  0.00  0.00     0.302 C 
ENDBRANCH  17  18
ENDBRANCH  16  17
ENDBRANCH  15  16
ENDBRANCH   2  15
BRANCH   8  25
HETATM   25  S   UNK N   1      21.738  17.578   3.989  0.00  0.00     0.243 S 
HETATM   26  O   UNK N   1      21.396  16.740   2.744  0.00  0.00    -0.206 OA
HETATM   27  O   UNK N   1      23.256  17.721   3.810  0.00  0.00    -0.206 OA
BRANCH  25  28
HETATM   28  N   UNK N   1      21.091  19.208   3.684  0.00  0.00    -0.215 NA
HETATM   29  C   UNK N   1      22.060  20.001   2.943  0.00  0.00     0.129 C 
HETATM   30  C   UNK N   1      19.909  19.093   2.854  0.00  0.00     0.129 C 
ENDBRANCH  25  28
ENDBRANCH   8  25
TORSDOF 6
ENDMDL
MODEL 4
REMARK VINA RESULT:      -6.5      2.868      7.078
REMARK  6 active torsions:
REMARK  status: ('A' for Active; 'I' for Inactive)
REMARK    1  A    between atoms: S_2  and  N_8 
REMARK    2  A    between atoms: S_2  and  C_22 
REMARK    3  A    between atoms: N_5  and  C_11 
REMARK    4  A    between atoms: N_7  and  C_15 
REMARK    5  A    between atoms: C_11  and  C_14 
REMARK    6  A    between atoms: C_14  and  C_15 
ROOT
HETATM    1  S   UNK N   1      30.104  27.980  -4.713  0.00  0.00    -0.086 SA
HETATM    2  N   UNK N   1      28.176  25.569  -3.870  0.00  0.00    -0.345 N 
HETATM    3  C   UNK N   1      29.553  25.276  -4.110  0.00  0.00     0.053 A 
HETATM    4  C   UNK N   1      27.598  26.873  -3.975  0.00  0.00     0.052 A 
HETATM    5  C   UNK N   1      30.500  26.249  -4.483  0.00  0.00     0.032 A 
HETATM    6  C   UNK N   1      28.353  28.014  -4.330  0.00  0.00     0.032 A 
HETATM    7  C   UNK N   1      29.987  23.956  -3.933  0.00  0.00     0.055 A 
HETATM    8  C   UNK N   1      31.304  23.578  -4.112  0.00  0.00     0.076 A 
HETATM    9  C   UNK N   1      26.224  27.036  -3.704  0.00  0.00     0.031 A 
HETATM   10  C   UNK N   1      31.841  25.866  -4.669  0.00  0.00     0.023 A 
HETATM   11  C   UNK N   1      32.248  24.538  -4.476  0.00  0.00     0.026 A 
HETATM   12  C   UNK N   1      27.723  29.265  -4.393  0.00  0.00     0.021 A 
HETATM   13  C   UNK N   1      25.609  28.284  -3.777  0.00  0.00     0.002 A 
HETATM   14  C   UNK N   1      26.362  29.402  -4.118  0.00  0.00     0.002 A 
ENDROOT
BRANCH   2  15
HETATM   15  C   UNK N   1      27.344  24.483  -3.384  0.00  0.00     0.131 C 
BRANCH  15  16
HETATM   16  C   UNK N   1      26.209  24.201  -4.351  0.00  0.00     0.050 C 
BRANCH  16  17
HETATM   17  C   UNK N   1      26.739  23.726  -5.708  0.00  0.00     0.274 C 
BRANCH  17  18
HETATM   18  N   UNK N   1      25.907  24.113  -6.863  0.00  0.00     0.091 N 
HETATM   19  C   UNK N   1      25.902  25.555  -7.147  0.00  0.00     0.302 C 
HETATM   20  C   UNK N   1      27.296  26.053  -7.535  0.00  0.00     0.302 C 
HETATM   21  N   UNK N   1      27.813  25.331  -8.700  0.00  0.00     0.087 N 
HETATM   22  C   UNK N   1      27.763  23.877  -8.497  0.00  0.00     0.302 C 
HETATM   23  C   UNK N   1      27.057  25.702  -9.888  0.00  0.00     0.310 C 
HETATM   24  C   UNK N   1      26.371  23.393  -8.050  0.00  0.00     0.302 C 
ENDBRANCH  17  18
ENDBRANCH  16  17
ENDBRANCH  15  16
ENDBRANCH   2  15
BRANCH   8  25
HETATM   25  S   UNK N   1      31.745  21.885  -3.712  0.00  0.00     0.243 S 
HETATM   26  O   UNK N   1      30.485  21.000  -3.744  0.00  0.00    -0.206 OA
HETATM   27  O   UNK N   1      32.115  21.778  -2.226  0.00  0.00    -0.206 OA
BRANCH  25  28
HETATM   28  N   UNK N   1      33.016  20.972  -4.562  0.00  0.00    -0.215 NA
HETATM   29  C   UNK N   1      33.865  20.284  -3.602  0.00  0.00     0.129 C 
HETATM   30  C   UNK N   1      32.389  19.956  -5.384  0.00  0.00     0.129 C 
ENDBRANCH  25  28
ENDBRANCH   8  25
TORSDOF 6
ENDMDL
MODEL 5
REMARK VINA RESULT:      -6.5     15.088     16.403
REMARK  6 active torsions:
REMARK  status: ('A' for Active; 'I' for Inactive)
REMARK    1  A    between atoms: S_2  and  N_8 
REMARK    2  A    between atoms: S_2  and  C_22 
REMARK    3  A    between atoms: N_5  and  C_11 
REMARK    4  A    between atoms: N_7  and  C_15 
REMARK    5  A    between atoms: C_11  and  C_14 
REMARK    6  A    between atoms: C_14  and  C_15 
ROOT
HETATM    1  S   UNK N   1      20.681  14.099   9.470  0.00  0.00    -0.086 SA
HETATM    2  N   UNK N   1      23.389  14.248   7.770  0.00  0.00    -0.345 N 
HETATM    3  C   UNK N   1      22.249  14.957   7.283  0.00  0.00     0.053 A 
HETATM    4  C   UNK N   1      23.405  13.478   8.975  0.00  0.00     0.052 A 
HETATM    5  C   UNK N   1      21.003  14.971   7.940  0.00  0.00     0.032 A 
HETATM    6  C   UNK N   1      22.273  13.348   9.811  0.00  0.00     0.032 A 
HETATM    7  C   UNK N   1      22.390  15.701   6.104  0.00  0.00     0.055 A 
HETATM    8  C   UNK N   1      21.355  16.444   5.567  0.00  0.00     0.076 A 
HETATM    9  C   UNK N   1      24.598  12.829   9.356  0.00  0.00     0.031 A 
HETATM   10  C   UNK N   1      19.948  15.723   7.394  0.00  0.00     0.023 A 
HETATM   11  C   UNK N   1      20.121  16.466   6.217  0.00  0.00     0.026 A 
HETATM   12  C   UNK N   1      22.368  12.593  10.989  0.00  0.00     0.021 A 
HETATM   13  C   UNK N   1      24.677  12.077  10.526  0.00  0.00     0.002 A 
HETATM   14  C   UNK N   1      23.560  11.962  11.347  0.00  0.00     0.002 A 
ENDROOT
BRANCH   2  15
HETATM   15  C   UNK N   1      24.634  14.418   7.043  0.00  0.00     0.131 C 
BRANCH  15  16
HETATM   16  C   UNK N   1      24.796  13.334   5.994  0.00  0.00     0.050 C 
BRANCH  16  17
HETATM   17  C   UNK N   1      25.393  13.896   4.700  0.00  0.00     0.274 C 
BRANCH  17  18
HETATM   18  N   UNK N   1      25.296  12.996   3.536  0.00  0.00     0.091 N 
HETATM   19  C   UNK N   1      23.920  12.637   3.164  0.00  0.00     0.302 C 
HETATM   20  C   UNK N   1      23.121  13.867   2.726  0.00  0.00     0.302 C 
HETATM   21  N   UNK N   1      23.766  14.547   1.600  0.00  0.00     0.087 N 
HETATM   22  C   UNK N   1      25.172  14.855   1.893  0.00  0.00     0.302 C 
HETATM   23  C   UNK N   1      23.667  13.724   0.402  0.00  0.00     0.310 C 
HETATM   24  C   UNK N   1      25.954  13.624   2.389  0.00  0.00     0.302 C 
ENDBRANCH  17  18
ENDBRANCH  16  17
ENDBRANCH  15  16
ENDBRANCH   2  15
BRANCH   8  25
HETATM   25  S   UNK N   1      21.718  17.462   4.135  0.00  0.00     0.243 S 
HETATM   26  O   UNK N   1      23.187  17.266   3.719  0.00  0.00    -0.206 OA
HETATM   27  O   UNK N   1      21.746  18.943   4.540  0.00  0.00    -0.206 OA
BRANCH  25  28
HETATM   28  N   UNK N   1      20.765  17.421   2.632  0.00  0.00    -0.215 NA
HETATM   29  C   UNK N   1      20.209  16.092   2.428  0.00  0.00     0.129 C 
HETATM   30  C   UNK N   1      19.649  18.337   2.762  0.00  0.00     0.129 C 
ENDBRANCH  25  28
ENDBRANCH   8  25
TORSDOF 6
ENDMDL
MODEL 6
REMARK VINA RESULT:      -6.4     13.762     15.845
REMARK  6 active torsions:
REMARK  status: ('A' for Active; 'I' for Inactive)
REMARK    1  A    between atoms: S_2  and  N_8 
REMARK    2  A    between atoms: S_2  and  C_22 
REMARK    3  A    between atoms: N_5  and  C_11 
REMARK    4  A    between atoms: N_7  and  C_15 
REMARK    5  A    between atoms: C_11  and  C_14 
REMARK    6  A    between atoms: C_14  and  C_15 
ROOT
HETATM    1  S   UNK N   1      21.651  18.634   4.691  0.00  0.00    -0.086 SA
HETATM    2  N   UNK N   1      24.392  17.044   5.146  0.00  0.00    -0.345 N 
HETATM    3  C   UNK N   1      23.211  16.541   5.772  0.00  0.00     0.053 A 
HETATM    4  C   UNK N   1      24.432  18.211   4.319  0.00  0.00     0.052 A 
HETATM    5  C   UNK N   1      21.946  17.149   5.647  0.00  0.00     0.032 A 
HETATM    6  C   UNK N   1      23.284  18.987   4.040  0.00  0.00     0.032 A 
HETATM    7  C   UNK N   1      23.315  15.364   6.525  0.00  0.00     0.055 A 
HETATM    8  C   UNK N   1      22.225  14.783   7.146  0.00  0.00     0.076 A 
HETATM    9  C   UNK N   1      25.661  18.602   3.749  0.00  0.00     0.031 A 
HETATM   10  C   UNK N   1      20.837  16.560   6.280  0.00  0.00     0.023 A 
HETATM   11  C   UNK N   1      20.969  15.377   7.021  0.00  0.00     0.026 A 
HETATM   12  C   UNK N   1      23.395  20.107   3.204  0.00  0.00     0.021 A 
HETATM   13  C   UNK N   1      25.758  19.721   2.925  0.00  0.00     0.002 A 
HETATM   14  C   UNK N   1      24.621  20.473   2.649  0.00  0.00     0.002 A 
ENDROOT
BRANCH   2  15
HETATM   15  C   UNK N   1      25.599  16.249   5.275  0.00  0.00     0.131 C 
BRANCH  15  16
HETATM   16  C   UNK N   1      26.496  16.807   6.364  0.00  0.00     0.050 C 
BRANCH  16  17
HETATM   17  C   UNK N   1      27.970  16.495   6.087  0.00  0.00     0.274 C 
BRANCH  17  18
HETATM   18  N   UNK N   1      28.878  17.650   6.215  0.00  0.00     0.091 N 
HETATM   19  C   UNK N   1      28.871  18.279   7.543  0.00  0.00     0.302 C 
HETATM   20  C   UNK N   1      29.373  17.316   8.621  0.00  0.00     0.302 C 
HETATM   21  N   UNK N   1      30.724  16.838   8.318  0.00  0.00     0.087 N 
HETATM   22  C   UNK N   1      30.804  16.271   6.966  0.00  0.00     0.302 C 
HETATM   23  C   UNK N   1      31.681  17.927   8.467  0.00  0.00     0.310 C 
HETATM   24  C   UNK N   1      30.241  17.224   5.894  0.00  0.00     0.302 C 
ENDBRANCH  17  18
ENDBRANCH  16  17
ENDBRANCH  15  16
ENDBRANCH   2  15
BRANCH   8  25
HETATM   25  S   UNK N   1      22.476  13.202   7.956  0.00  0.00     0.243 S 
HETATM   26  O   UNK N   1      23.259  12.260   7.023  0.00  0.00    -0.206 OA
HETATM   27  O   UNK N   1      21.144  12.444   8.049  0.00  0.00    -0.206 OA
BRANCH  25  28
HETATM   28  N   UNK N   1      23.210  13.028   9.569  0.00  0.00    -0.215 NA
HETATM   29  C   UNK N   1      22.877  11.728  10.132  0.00  0.00     0.129 C 
HETATM   30  C   UNK N   1      24.652  13.079   9.433  0.00  0.00     0.129 C 
ENDBRANCH  25  28
ENDBRANCH   8  25
TORSDOF 6
ENDMDL
MODEL 7
REMARK VINA RESULT:      -6.4      1.502      1.909
REMARK  6 active torsions:
REMARK  status: ('A' for Active; 'I' for Inactive)
REMARK    1  A    between atoms: S_2  and  N_8 
REMARK    2  A    between atoms: S_2  and  C_22 
REMARK    3  A    between atoms: N_5  and  C_11 
REMARK    4  A    between atoms: N_7  and  C_15 
REMARK    5  A    between atoms: C_11  and  C_14 
REMARK    6  A    between atoms: C_14  and  C_15 
ROOT
HETATM    1  S   UNK N   1      30.855  19.933  -6.626  0.00  0.00    -0.086 SA
HETATM    2  N   UNK N   1      30.330  22.468  -4.742  0.00  0.00    -0.345 N 
HETATM    3  C   UNK N   1      29.438  22.246  -5.835  0.00  0.00     0.053 A 
HETATM    4  C   UNK N   1      31.443  21.627  -4.427  0.00  0.00     0.052 A 
HETATM    5  C   UNK N   1      29.561  21.167  -6.732  0.00  0.00     0.032 A 
HETATM    6  C   UNK N   1      31.766  20.476  -5.180  0.00  0.00     0.032 A 
HETATM    7  C   UNK N   1      28.367  23.134  -6.003  0.00  0.00     0.055 A 
HETATM    8  C   UNK N   1      27.434  22.989  -7.012  0.00  0.00     0.076 A 
HETATM    9  C   UNK N   1      32.247  21.947  -3.313  0.00  0.00     0.031 A 
HETATM   10  C   UNK N   1      28.614  21.019  -7.762  0.00  0.00     0.023 A 
HETATM   11  C   UNK N   1      27.547  21.918  -7.900  0.00  0.00     0.026 A 
HETATM   12  C   UNK N   1      32.860  19.687  -4.798  0.00  0.00     0.021 A 
HETATM   13  C   UNK N   1      33.335  21.158  -2.949  0.00  0.00     0.002 A 
HETATM   14  C   UNK N   1      33.640  20.022  -3.691  0.00  0.00     0.002 A 
ENDROOT
BRANCH   2  15
HETATM   15  C   UNK N   1      30.010  23.558  -3.839  0.00  0.00     0.131 C 
BRANCH  15  16
HETATM   16  C   UNK N   1      30.904  24.755  -4.104  0.00  0.00     0.050 C 
BRANCH  16  17
HETATM   17  C   UNK N   1      30.221  26.063  -3.691  0.00  0.00     0.274 C 
BRANCH  17  18
HETATM   18  N   UNK N   1      28.917  26.305  -4.334  0.00  0.00     0.091 N 
HETATM   19  C   UNK N   1      28.108  27.348  -3.688  0.00  0.00     0.302 C 
HETATM   20  C   UNK N   1      28.795  28.713  -3.761  0.00  0.00     0.302 C 
HETATM   21  N   UNK N   1      29.064  29.099  -5.149  0.00  0.00     0.087 N 
HETATM   22  C   UNK N   1      29.802  28.050  -5.865  0.00  0.00     0.302 C 
HETATM   23  C   UNK N   1      27.812  29.393  -5.833  0.00  0.00     0.310 C 
HETATM   24  C   UNK N   1      29.135  26.668  -5.736  0.00  0.00     0.302 C 
ENDBRANCH  17  18
ENDBRANCH  16  17
ENDBRANCH  15  16
ENDBRANCH   2  15
BRANCH   8  25
HETATM   25  S   UNK N   1      26.036  24.113  -7.021  0.00  0.00     0.243 S 
HETATM   26  O   UNK N   1      24.925  23.553  -7.929  0.00  0.00    -0.206 OA
HETATM   27  O   UNK N   1      26.397  25.391  -7.792  0.00  0.00    -0.206 OA
BRANCH  25  28
HETATM   28  N   UNK N   1      25.227  24.688  -5.543  0.00  0.00    -0.215 NA
HETATM   29  C   UNK N   1      25.993  24.299  -4.369  0.00  0.00     0.129 C 
HETATM   30  C   UNK N   1      25.188  26.137  -5.567  0.00  0.00     0.129 C 
ENDBRANCH  25  28
ENDBRANCH   8  25
TORSDOF 6
ENDMDL
MODEL 8
REMARK VINA RESULT:      -6.4     13.280     15.589
REMARK  6 active torsions:
REMARK  status: ('A' for Active; 'I' for Inactive)
REMARK    1  A    between atoms: S_2  and  N_8 
REMARK    2  A    between atoms: S_2  and  C_22 
REMARK    3  A    between atoms: N_5  and  C_11 
REMARK    4  A    between atoms: N_7  and  C_15 
REMARK    5  A    between atoms: C_11  and  C_14 
REMARK    6  A    between atoms: C_14  and  C_15 
ROOT
HETATM    1  S   UNK N   1      24.347  20.674   2.735  0.00  0.00    -0.086 SA
HETATM    2  N   UNK N   1      23.800  18.135   4.606  0.00  0.00    -0.345 N 
HETATM    3  C   UNK N   1      25.135  18.637   4.526  0.00  0.00     0.053 A 
HETATM    4  C   UNK N   1      22.685  18.697   3.908  0.00  0.00     0.052 A 
HETATM    5  C   UNK N   1      25.502  19.748   3.741  0.00  0.00     0.032 A 
HETATM    6  C   UNK N   1      22.803  19.823   3.063  0.00  0.00     0.032 A 
HETATM    7  C   UNK N   1      26.123  18.007   5.295  0.00  0.00     0.055 A 
HETATM    8  C   UNK N   1      27.437  18.435   5.309  0.00  0.00     0.076 A 
HETATM    9  C   UNK N   1      21.411  18.115   4.075  0.00  0.00     0.031 A 
HETATM   10  C   UNK N   1      26.839  20.183   3.752  0.00  0.00     0.023 A 
HETATM   11  C   UNK N   1      27.805  19.539   4.538  0.00  0.00     0.026 A 
HETATM   12  C   UNK N   1      21.661  20.332   2.428  0.00  0.00     0.021 A 
HETATM   13  C   UNK N   1      20.286  18.627   3.433  0.00  0.00     0.002 A 
HETATM   14  C   UNK N   1      20.411  19.741   2.610  0.00  0.00     0.002 A 
ENDROOT
BRANCH   2  15
HETATM   15  C   UNK N   1      23.555  17.053   5.542  0.00  0.00     0.131 C 
BRANCH  15  16
HETATM   16  C   UNK N   1      23.599  15.711   4.835  0.00  0.00     0.050 C 
BRANCH  16  17
HETATM   17  C   UNK N   1      22.793  14.653   5.597  0.00  0.00     0.274 C 
BRANCH  17  18
HETATM   18  N   UNK N   1      22.964  14.688   7.061  0.00  0.00     0.091 N 
HETATM   19  C   UNK N   1      21.807  14.186   7.816  0.00  0.00     0.302 C 
HETATM   20  C   UNK N   1      21.550  12.705   7.526  0.00  0.00     0.302 C 
HETATM   21  N   UNK N   1      22.725  11.890   7.842  0.00  0.00     0.087 N 
HETATM   22  C   UNK N   1      23.929  12.401   7.173  0.00  0.00     0.302 C 
HETATM   23  C   UNK N   1      22.927  11.848   9.284  0.00  0.00     0.310 C 
HETATM   24  C   UNK N   1      24.148  13.906   7.423  0.00  0.00     0.302 C 
ENDBRANCH  17  18
ENDBRANCH  16  17
ENDBRANCH  15  16
ENDBRANCH   2  15
BRANCH   8  25
HETATM   25  S   UNK N   1      28.563  17.627   6.448  0.00  0.00     0.243 S 
HETATM   26  O   UNK N   1      29.850  17.222   5.705  0.00  0.00    -0.206 OA
HETATM   27  O   UNK N   1      28.021  16.241   6.825  0.00  0.00    -0.206 OA
BRANCH  25  28
HETATM   28  N   UNK N   1      29.085  18.344   7.991  0.00  0.00    -0.215 NA
HETATM   29  C   UNK N   1      28.187  17.936   9.062  0.00  0.00     0.129 C 
HETATM   30  C   UNK N   1      30.402  17.836   8.320  0.00  0.00     0.129 C 
ENDBRANCH  25  28
ENDBRANCH   8  25
TORSDOF 6
ENDMDL
MODEL 9
REMARK VINA RESULT:      -6.3      2.235      6.546
REMARK  6 active torsions:
REMARK  status: ('A' for Active; 'I' for Inactive)
REMARK    1  A    between atoms: S_2  and  N_8 
REMARK    2  A    between atoms: S_2  and  C_22 
REMARK    3  A    between atoms: N_5  and  C_11 
REMARK    4  A    between atoms: N_7  and  C_15 
REMARK    5  A    between atoms: C_11  and  C_14 
REMARK    6  A    between atoms: C_14  and  C_15 
ROOT
HETATM    1  S   UNK N   1      27.059  29.287  -3.265  0.00  0.00    -0.086 SA
HETATM    2  N   UNK N   1      29.143  26.997  -4.077  0.00  0.00    -0.345 N 
HETATM    3  C   UNK N   1      27.809  26.900  -4.576  0.00  0.00     0.053 A 
HETATM    4  C   UNK N   1      29.616  28.057  -3.241  0.00  0.00     0.052 A 
HETATM    5  C   UNK N   1      26.802  27.843  -4.293  0.00  0.00     0.032 A 
HETATM    6  C   UNK N   1      28.790  29.126  -2.826  0.00  0.00     0.032 A 
HETATM    7  C   UNK N   1      27.497  25.823  -5.417  0.00  0.00     0.055 A 
HETATM    8  C   UNK N   1      26.243  25.656  -5.974  0.00  0.00     0.076 A 
HETATM    9  C   UNK N   1      30.962  28.045  -2.819  0.00  0.00     0.031 A 
HETATM   10  C   UNK N   1      25.525  27.674  -4.856  0.00  0.00     0.023 A 
HETATM   11  C   UNK N   1      25.243  26.591  -5.702  0.00  0.00     0.026 A 
HETATM   12  C   UNK N   1      29.329  30.141  -2.023  0.00  0.00     0.021 A 
HETATM   13  C   UNK N   1      31.482  29.057  -2.015  0.00  0.00     0.002 A 
HETATM   14  C   UNK N   1      30.664  30.110  -1.620  0.00  0.00     0.002 A 
ENDROOT
BRANCH   2  15
HETATM   15  C   UNK N   1      30.098  26.009  -4.545  0.00  0.00     0.131 C 
BRANCH  15  16
HETATM   16  C   UNK N   1      30.353  24.960  -3.478  0.00  0.00     0.050 C 
BRANCH  16  17
HETATM   17  C   UNK N   1      29.996  23.557  -3.980  0.00  0.00     0.274 C 
BRANCH  17  18
HETATM   18  N   UNK N   1      30.944  22.501  -3.578  0.00  0.00     0.091 N 
HETATM   19  C   UNK N   1      30.509  21.139  -3.915  0.00  0.00     0.302 C 
HETATM   20  C   UNK N   1      30.390  20.947  -5.428  0.00  0.00     0.302 C 
HETATM   21  N   UNK N   1      31.660  21.230  -6.101  0.00  0.00     0.087 N 
HETATM   22  C   UNK N   1      32.180  22.554  -5.733  0.00  0.00     0.302 C 
HETATM   23  C   UNK N   1      32.633  20.196  -5.777  0.00  0.00     0.310 C 
HETATM   24  C   UNK N   1      32.241  22.759  -4.207  0.00  0.00     0.302 C 
ENDBRANCH  17  18
ENDBRANCH  16  17
ENDBRANCH  15  16
ENDBRANCH   2  15
BRANCH   8  25
HETATM   25  S   UNK N   1      26.024  24.314  -7.145  0.00  0.00     0.243 S 
HETATM   26  O   UNK N   1      25.161  23.208  -6.511  0.00  0.00    -0.206 OA
HETATM   27  O   UNK N   1      27.347  23.556  -7.325  0.00  0.00    -0.206 OA
BRANCH  25  28
HETATM   28  N   UNK N   1      25.405  24.543  -8.798  0.00  0.00    -0.215 NA
HETATM   29  C   UNK N   1      25.801  25.848  -9.306  0.00  0.00     0.129 C 
HETATM   30  C   UNK N   1      26.006  23.547  -9.663  0.00  0.00     0.129 C 
ENDBRANCH  25  28
ENDBRANCH   8  25
TORSDOF 6
ENDMDL
