MODEL 1
REMARK VINA RESULT:      -7.0      0.000      0.000
REMARK  5 active torsions:
REMARK  status: ('A' for Active; 'I' for Inactive)
REMARK    1  A    between atoms: S_1  and  N_7 
REMARK    2  A    between atoms: S_1  and  C_22 
REMARK    3  A    between atoms: N_5  and  C_12 
REMARK    4  A    between atoms: C_12  and  C_13 
REMARK    5  A    between atoms: C_13  and  C_15 
ROOT
HETATM    1  S   UNK N   1      28.405  18.667   8.314  0.00  0.00    -0.089 SA
HETATM    2  C   UNK N   1      30.181  17.615   4.328  0.00  0.00    -0.012 C 
HETATM    3  C   UNK N   1      29.508  17.611   5.485  0.00  0.00    -0.017 C 
HETATM    4  C   UNK N   1      30.134  17.078   6.740  0.00  0.00    -0.007 A 
HETATM    5  C   UNK N   1      28.407  18.592   5.480  0.00  0.00    -0.008 A 
HETATM    6  C   UNK N   1      29.761  17.534   8.015  0.00  0.00     0.017 A 
HETATM    7  C   UNK N   1      31.141  16.092   6.651  0.00  0.00     0.038 A 
HETATM    8  C   UNK N   1      27.943  19.191   6.662  0.00  0.00     0.016 A 
HETATM    9  C   UNK N   1      31.804  15.608   7.784  0.00  0.00     0.075 A 
HETATM   10  C   UNK N   1      30.463  17.089   9.143  0.00  0.00     0.021 A 
HETATM   11  C   UNK N   1      27.993  19.128   4.235  0.00  0.00     0.013 A 
HETATM   12  C   UNK N   1      31.482  16.146   9.030  0.00  0.00     0.026 A 
HETATM   13  C   UNK N   1      27.130  20.326   6.572  0.00  0.00     0.020 A 
HETATM   14  C   UNK N   1      27.180  20.245   4.162  0.00  0.00     0.001 A 
HETATM   15  C   UNK N   1      26.768  20.862   5.336  0.00  0.00     0.001 A 
ENDROOT
BRANCH   2  16
HETATM   16  C   UNK N   1      31.608  17.341   4.204  0.00  0.00     0.058 C 
BRANCH  16  17
HETATM   17  C   UNK N   1      31.854  16.861   2.816  0.00  0.00     0.276 C 
BRANCH  17  18
HETATM   18  N   UNK N   1      32.652  15.668   2.930  0.00  0.00     0.092 N 
HETATM   19  C   UNK N   1      33.513  15.753   4.105  0.00  0.00     0.302 C 
HETATM   20  C   UNK N   1      34.494  14.622   3.995  0.00  0.00     0.302 C 
HETATM   21  N   UNK N   1      33.794  13.339   3.999  0.00  0.00     0.087 N 
HETATM   22  C   UNK N   1      32.649  13.289   3.072  0.00  0.00     0.302 C 
HETATM   23  C   UNK N   1      34.757  12.391   3.479  0.00  0.00     0.310 C 
HETATM   24  C   UNK N   1      31.780  14.539   3.154  0.00  0.00     0.302 C 
ENDBRANCH  17  18
ENDBRANCH  16  17
ENDBRANCH   2  16
BRANCH   9  25
HETATM   25  S   UNK N   1      32.961  14.210   7.687  0.00  0.00     0.243 S 
HETATM   26  O   UNK N   1      32.003  13.478   6.734  0.00  0.00    -0.206 OA
HETATM   27  O   UNK N   1      32.283  13.573   8.908  0.00  0.00    -0.206 OA
BRANCH  25  28
HETATM   28  N   UNK N   1      34.082  12.835   7.596  0.00  0.00    -0.215 NA
HETATM   29  C   UNK N   1      34.037  12.132   8.864  0.00  0.00     0.129 C 
HETATM   30  C   UNK N   1      35.443  13.297   7.406  0.00  0.00     0.129 C 
ENDBRANCH  25  28
ENDBRANCH   9  25
TORSDOF 5
ENDMDL
MODEL 2
REMARK VINA RESULT:      -7.0      4.346      7.666
REMARK  5 active torsions:
REMARK  status: ('A' for Active; 'I' for Inactive)
REMARK    1  A    between atoms: S_1  and  N_7 
REMARK    2  A    between atoms: S_1  and  C_22 
REMARK    3  A    between atoms: N_5  and  C_12 
REMARK    4  A    between atoms: C_12  and  C_13 
REMARK    5  A    between atoms: C_13  and  C_15 
ROOT
HETATM    1  S   UNK N   1      32.011  16.518   4.209  0.00  0.00    -0.089 SA
HETATM    2  C   UNK N   1      29.339  17.176   7.756  0.00  0.00    -0.012 C 
HETATM    3  C   UNK N   1      30.081  16.643   6.778  0.00  0.00    -0.017 C 
HETATM    4  C   UNK N   1      29.478  16.305   5.447  0.00  0.00    -0.007 A 
HETATM    5  C   UNK N   1      31.517  16.916   6.972  0.00  0.00    -0.008 A 
HETATM    6  C   UNK N   1      30.234  16.294   4.262  0.00  0.00     0.017 A 
HETATM    7  C   UNK N   1      28.102  15.996   5.364  0.00  0.00     0.038 A 
HETATM    8  C   UNK N   1      32.410  16.995   5.891  0.00  0.00     0.016 A 
HETATM    9  C   UNK N   1      27.474  15.738   4.141  0.00  0.00     0.075 A 
HETATM   10  C   UNK N   1      29.593  16.090   3.034  0.00  0.00     0.021 A 
HETATM   11  C   UNK N   1      31.948  17.363   8.247  0.00  0.00     0.013 A 
HETATM   12  C   UNK N   1      28.226  15.827   2.970  0.00  0.00     0.026 A 
HETATM   13  C   UNK N   1      33.674  17.559   6.097  0.00  0.00     0.020 A 
HETATM   14  C   UNK N   1      33.205  17.908   8.437  0.00  0.00     0.001 A 
HETATM   15  C   UNK N   1      34.062  18.030   7.351  0.00  0.00     0.001 A 
ENDROOT
BRANCH   2  16
HETATM   16  C   UNK N   1      27.985  17.688   7.575  0.00  0.00     0.058 C 
BRANCH  16  17
HETATM   17  C   UNK N   1      28.092  19.141   7.263  0.00  0.00     0.276 C 
BRANCH  17  18
HETATM   18  N   UNK N   1      27.321  19.361   6.068  0.00  0.00     0.092 N 
HETATM   19  C   UNK N   1      26.510  20.566   6.210  0.00  0.00     0.302 C 
HETATM   20  C   UNK N   1      25.545  20.566   5.060  0.00  0.00     0.302 C 
HETATM   21  N   UNK N   1      26.267  20.615   3.790  0.00  0.00     0.087 N 
HETATM   22  C   UNK N   1      27.370  19.642   3.701  0.00  0.00     0.302 C 
HETATM   23  C   UNK N   1      25.299  20.195   2.799  0.00  0.00     0.310 C 
HETATM   24  C   UNK N   1      28.221  19.611   4.967  0.00  0.00     0.302 C 
ENDBRANCH  17  18
ENDBRANCH  16  17
ENDBRANCH   2  16
BRANCH   9  25
HETATM   25  S   UNK N   1      25.755  15.157   4.056  0.00  0.00     0.243 S 
HETATM   26  O   UNK N   1      26.014  14.582   2.655  0.00  0.00    -0.206 OA
HETATM   27  O   UNK N   1      25.335  16.506   3.458  0.00  0.00    -0.206 OA
BRANCH  25  28
HETATM   28  N   UNK N   1      24.072  14.595   3.961  0.00  0.00    -0.215 NA
HETATM   29  C   UNK N   1      23.393  15.375   2.944  0.00  0.00     0.129 C 
HETATM   30  C   UNK N   1      23.383  14.828   5.216  0.00  0.00     0.129 C 
ENDBRANCH  25  28
ENDBRANCH   9  25
TORSDOF 5
ENDMDL
MODEL 3
REMARK VINA RESULT:      -6.9     12.135     15.056
REMARK  5 active torsions:
REMARK  status: ('A' for Active; 'I' for Inactive)
REMARK    1  A    between atoms: S_1  and  N_7 
REMARK    2  A    between atoms: S_1  and  C_22 
REMARK    3  A    between atoms: N_5  and  C_12 
REMARK    4  A    between atoms: C_12  and  C_13 
REMARK    5  A    between atoms: C_13  and  C_15 
ROOT
HETATM    1  S   UNK N   1      27.155  29.325  -3.453  0.00  0.00    -0.089 SA
HETATM    2  C   UNK N   1      29.904  25.853  -4.187  0.00  0.00    -0.012 C 
HETATM    3  C   UNK N   1      29.164  26.963  -4.301  0.00  0.00    -0.017 C 
HETATM    4  C   UNK N   1      27.744  26.898  -4.779  0.00  0.00    -0.007 A 
HETATM    5  C   UNK N   1      29.691  28.058  -3.465  0.00  0.00    -0.008 A 
HETATM    6  C   UNK N   1      26.782  27.850  -4.401  0.00  0.00     0.017 A 
HETATM    7  C   UNK N   1      27.343  25.845  -5.629  0.00  0.00     0.038 A 
HETATM    8  C   UNK N   1      28.858  29.067  -2.955  0.00  0.00     0.016 A 
HETATM    9  C   UNK N   1      26.017  25.699  -6.052  0.00  0.00     0.075 A 
HETATM   10  C   UNK N   1      25.446  27.672  -4.780  0.00  0.00     0.021 A 
HETATM   11  C   UNK N   1      31.009  27.939  -2.958  0.00  0.00     0.013 A 
HETATM   12  C   UNK N   1      25.063  26.603  -5.586  0.00  0.00     0.026 A 
HETATM   13  C   UNK N   1      29.339  29.886  -1.928  0.00  0.00     0.020 A 
HETATM   14  C   UNK N   1      31.474  28.765  -1.949  0.00  0.00     0.001 A 
HETATM   15  C   UNK N   1      30.626  29.725  -1.415  0.00  0.00     0.001 A 
ENDROOT
BRANCH   2  16
HETATM   16  C   UNK N   1      29.374  24.498  -4.278  0.00  0.00     0.058 C 
BRANCH  16  17
HETATM   17  C   UNK N   1      30.016  23.691  -3.203  0.00  0.00     0.276 C 
BRANCH  17  18
HETATM   18  N   UNK N   1      30.874  22.741  -3.860  0.00  0.00     0.092 N 
HETATM   19  C   UNK N   1      31.582  21.937  -2.869  0.00  0.00     0.302 C 
HETATM   20  C   UNK N   1      32.645  21.183  -3.615  0.00  0.00     0.302 C 
HETATM   21  N   UNK N   1      32.038  20.301  -4.611  0.00  0.00     0.087 N 
HETATM   22  C   UNK N   1      31.018  20.964  -5.442  0.00  0.00     0.302 C 
HETATM   23  C   UNK N   1      33.118  19.967  -5.515  0.00  0.00     0.310 C 
HETATM   24  C   UNK N   1      30.061  21.818  -4.617  0.00  0.00     0.302 C 
ENDBRANCH  17  18
ENDBRANCH  16  17
ENDBRANCH   2  16
BRANCH   9  25
HETATM   25  S   UNK N   1      25.542  24.459  -7.292  0.00  0.00     0.243 S 
HETATM   26  O   UNK N   1      25.239  23.450  -6.173  0.00  0.00    -0.206 OA
HETATM   27  O   UNK N   1      27.000  23.985  -7.367  0.00  0.00    -0.206 OA
BRANCH  25  28
HETATM   28  N   UNK N   1      25.087  23.238  -8.499  0.00  0.00    -0.215 NA
HETATM   29  C   UNK N   1      25.062  21.944  -7.844  0.00  0.00     0.129 C 
HETATM   30  C   UNK N   1      26.078  23.169  -9.556  0.00  0.00     0.129 C 
ENDBRANCH  25  28
ENDBRANCH   9  25
TORSDOF 5
ENDMDL
MODEL 4
REMARK VINA RESULT:      -6.8      6.489     10.878
REMARK  5 active torsions:
REMARK  status: ('A' for Active; 'I' for Inactive)
REMARK    1  A    between atoms: S_1  and  N_7 
REMARK    2  A    between atoms: S_1  and  C_22 
REMARK    3  A    between atoms: N_5  and  C_12 
REMARK    4  A    between atoms: C_12  and  C_13 
REMARK    5  A    between atoms: C_13  and  C_15 
ROOT
HETATM    1  S   UNK N   1      35.325   9.329  16.783  0.00  0.00    -0.089 SA
HETATM    2  C   UNK N   1      35.400  13.314  14.718  0.00  0.00    -0.012 C 
HETATM    3  C   UNK N   1      35.047  12.123  15.218  0.00  0.00    -0.017 C 
HETATM    4  C   UNK N   1      35.217  10.868  14.414  0.00  0.00    -0.007 A 
HETATM    5  C   UNK N   1      34.995  12.143  16.691  0.00  0.00    -0.008 A 
HETATM    6  C   UNK N   1      35.413   9.613  15.016  0.00  0.00     0.017 A 
HETATM    7  C   UNK N   1      35.192  10.935  13.004  0.00  0.00     0.038 A 
HETATM    8  C   UNK N   1      35.222  10.988  17.457  0.00  0.00     0.016 A 
HETATM    9  C   UNK N   1      35.411   9.807  12.205  0.00  0.00     0.075 A 
HETATM   10  C   UNK N   1      35.686   8.497  14.217  0.00  0.00     0.021 A 
HETATM   11  C   UNK N   1      34.974  13.401  17.344  0.00  0.00     0.013 A 
HETATM   12  C   UNK N   1      35.697   8.592  12.827  0.00  0.00     0.026 A 
HETATM   13  C   UNK N   1      35.471  11.122  18.827  0.00  0.00     0.020 A 
HETATM   14  C   UNK N   1      35.211  13.517  18.702  0.00  0.00     0.001 A 
HETATM   15  C   UNK N   1      35.486  12.374  19.442  0.00  0.00     0.001 A 
ENDROOT
BRANCH   2  16
HETATM   16  C   UNK N   1      36.172  13.497  13.495  0.00  0.00     0.058 C 
BRANCH  16  17
HETATM   17  C   UNK N   1      36.059  14.930  13.103  0.00  0.00     0.276 C 
BRANCH  17  18
HETATM   18  N   UNK N   1      35.924  14.954  11.670  0.00  0.00     0.092 N 
HETATM   19  C   UNK N   1      36.758  13.917  11.071  0.00  0.00     0.302 C 
HETATM   20  C   UNK N   1      36.779  14.190   9.595  0.00  0.00     0.302 C 
HETATM   21  N   UNK N   1      35.428  14.104   9.043  0.00  0.00     0.087 N 
HETATM   22  C   UNK N   1      34.425  14.853   9.820  0.00  0.00     0.302 C 
HETATM   23  C   UNK N   1      35.509  14.776   7.763  0.00  0.00     0.310 C 
HETATM   24  C   UNK N   1      34.562  14.623  11.321  0.00  0.00     0.302 C 
ENDBRANCH  17  18
ENDBRANCH  16  17
ENDBRANCH   2  16
BRANCH   9  25
HETATM   25  S   UNK N   1      35.191   9.858  10.403  0.00  0.00     0.243 S 
HETATM   26  O   UNK N   1      36.524  10.610  10.258  0.00  0.00    -0.206 OA
HETATM   27  O   UNK N   1      34.425  11.181  10.539  0.00  0.00    -0.206 OA
BRANCH  25  28
HETATM   28  N   UNK N   1      34.979   9.921   8.640  0.00  0.00    -0.215 NA
HETATM   29  C   UNK N   1      36.206  10.430   8.056  0.00  0.00     0.129 C 
HETATM   30  C   UNK N   1      33.916  10.843   8.286  0.00  0.00     0.129 C 
ENDBRANCH  25  28
ENDBRANCH   9  25
TORSDOF 5
ENDMDL
MODEL 5
REMARK VINA RESULT:      -6.8      3.042      5.615
REMARK  5 active torsions:
REMARK  status: ('A' for Active; 'I' for Inactive)
REMARK    1  A    between atoms: S_1  and  N_7 
REMARK    2  A    between atoms: S_1  and  C_22 
REMARK    3  A    between atoms: N_5  and  C_12 
REMARK    4  A    between atoms: C_12  and  C_13 
REMARK    5  A    between atoms: C_13  and  C_15 
ROOT
HETATM    1  S   UNK N   1      29.556  15.964   5.781  0.00  0.00    -0.089 SA
HETATM    2  C   UNK N   1      32.851  17.022   8.641  0.00  0.00    -0.012 C 
HETATM    3  C   UNK N   1      32.039  16.931   7.580  0.00  0.00    -0.017 C 
HETATM    4  C   UNK N   1      32.291  15.922   6.499  0.00  0.00    -0.007 A 
HETATM    5  C   UNK N   1      30.711  17.509   7.859  0.00  0.00    -0.008 A 
HETATM    6  C   UNK N   1      31.254  15.394   5.711  0.00  0.00     0.017 A 
HETATM    7  C   UNK N   1      33.607  15.470   6.261  0.00  0.00     0.038 A 
HETATM    8  C   UNK N   1      29.555  17.061   7.200  0.00  0.00     0.016 A 
HETATM    9  C   UNK N   1      33.890  14.483   5.311  0.00  0.00     0.075 A 
HETATM   10  C   UNK N   1      31.531  14.368   4.799  0.00  0.00     0.021 A 
HETATM   11  C   UNK N   1      30.569  18.344   8.994  0.00  0.00     0.013 A 
HETATM   12  C   UNK N   1      32.832  13.907   4.609  0.00  0.00     0.026 A 
HETATM   13  C   UNK N   1      28.303  17.411   7.716  0.00  0.00     0.020 A 
HETATM   14  C   UNK N   1      29.323  18.692   9.487  0.00  0.00     0.001 A 
HETATM   15  C   UNK N   1      28.186  18.201   8.860  0.00  0.00     0.001 A 
ENDROOT
BRANCH   2  16
HETATM   16  C   UNK N   1      33.881  16.045   8.974  0.00  0.00     0.058 C 
BRANCH  16  17
HETATM   17  C   UNK N   1      34.836  16.702   9.910  0.00  0.00     0.276 C 
BRANCH  17  18
HETATM   18  N   UNK N   1      35.474  15.646  10.652  0.00  0.00     0.092 N 
HETATM   19  C   UNK N   1      34.468  14.759  11.226  0.00  0.00     0.302 C 
HETATM   20  C   UNK N   1      35.191  13.871  12.198  0.00  0.00     0.302 C 
HETATM   21  N   UNK N   1      36.201  13.073  11.504  0.00  0.00     0.087 N 
HETATM   22  C   UNK N   1      37.054  13.862  10.598  0.00  0.00     0.302 C 
HETATM   23  C   UNK N   1      37.081  12.600  12.552  0.00  0.00     0.310 C 
HETATM   24  C   UNK N   1      36.251  14.836   9.743  0.00  0.00     0.302 C 
ENDBRANCH  17  18
ENDBRANCH  16  17
ENDBRANCH   2  16
BRANCH   9  25
HETATM   25  S   UNK N   1      35.597  14.041   4.875  0.00  0.00     0.243 S 
HETATM   26  O   UNK N   1      35.651  13.063   6.060  0.00  0.00    -0.206 OA
HETATM   27  O   UNK N   1      36.113  15.186   5.757  0.00  0.00    -0.206 OA
BRANCH  25  28
HETATM   28  N   UNK N   1      37.271  13.611   4.462  0.00  0.00    -0.215 NA
HETATM   29  C   UNK N   1      37.447  12.192   4.710  0.00  0.00     0.129 C 
HETATM   30  C   UNK N   1      38.207  14.318   5.315  0.00  0.00     0.129 C 
ENDBRANCH  25  28
ENDBRANCH   9  25
TORSDOF 5
ENDMDL
MODEL 6
REMARK VINA RESULT:      -6.7      4.839      6.832
REMARK  5 active torsions:
REMARK  status: ('A' for Active; 'I' for Inactive)
REMARK    1  A    between atoms: S_1  and  N_7 
REMARK    2  A    between atoms: S_1  and  C_22 
REMARK    3  A    between atoms: N_5  and  C_12 
REMARK    4  A    between atoms: C_12  and  C_13 
REMARK    5  A    between atoms: C_13  and  C_15 
ROOT
HETATM    1  S   UNK N   1      23.790  20.780   2.734  0.00  0.00    -0.089 SA
HETATM    2  C   UNK N   1      23.242  17.001   5.094  0.00  0.00    -0.012 C 
HETATM    3  C   UNK N   1      23.416  18.272   4.710  0.00  0.00    -0.017 C 
HETATM    4  C   UNK N   1      24.792  18.843   4.533  0.00  0.00    -0.007 A 
HETATM    5  C   UNK N   1      22.222  18.804   4.028  0.00  0.00    -0.008 A 
HETATM    6  C   UNK N   1      25.058  19.894   3.639  0.00  0.00     0.017 A 
HETATM    7  C   UNK N   1      25.868  18.309   5.275  0.00  0.00     0.038 A 
HETATM    8  C   UNK N   1      22.311  19.821   3.064  0.00  0.00     0.016 A 
HETATM    9  C   UNK N   1      27.182  18.758   5.102  0.00  0.00     0.075 A 
HETATM   10  C   UNK N   1      26.379  20.305   3.427  0.00  0.00     0.021 A 
HETATM   11  C   UNK N   1      21.002  18.096   4.163  0.00  0.00     0.013 A 
HETATM   12  C   UNK N   1      27.433  19.737   4.140  0.00  0.00     0.026 A 
HETATM   13  C   UNK N   1      21.211  20.065   2.235  0.00  0.00     0.020 A 
HETATM   14  C   UNK N   1      19.919  18.356   3.342  0.00  0.00     0.001 A 
HETATM   15  C   UNK N   1      20.033  19.328   2.357  0.00  0.00     0.001 A 
ENDROOT
BRANCH   2  16
HETATM   16  C   UNK N   1      24.305  16.005   5.151  0.00  0.00     0.058 C 
BRANCH  16  17
HETATM   17  C   UNK N   1      24.098  15.063   4.016  0.00  0.00     0.276 C 
BRANCH  17  18
HETATM   18  N   UNK N   1      25.406  14.737   3.510  0.00  0.00     0.092 N 
HETATM   19  C   UNK N   1      25.854  15.766   2.578  0.00  0.00     0.302 C 
HETATM   20  C   UNK N   1      27.074  15.218   1.895  0.00  0.00     0.302 C 
HETATM   21  N   UNK N   1      28.129  14.957   2.872  0.00  0.00     0.087 N 
HETATM   22  C   UNK N   1      27.666  14.210   4.055  0.00  0.00     0.302 C 
HETATM   23  C   UNK N   1      29.052  14.073   2.192  0.00  0.00     0.310 C 
HETATM   24  C   UNK N   1      26.349  14.749   4.604  0.00  0.00     0.302 C 
ENDBRANCH  17  18
ENDBRANCH  16  17
ENDBRANCH   2  16
BRANCH   9  25
HETATM   25  S   UNK N   1      28.530  18.206   6.187  0.00  0.00     0.243 S 
HETATM   26  O   UNK N   1      27.593  17.172   6.831  0.00  0.00    -0.206 OA
HETATM   27  O   UNK N   1      28.124  19.265   7.221  0.00  0.00    -0.206 OA
BRANCH  25  28
HETATM   28  N   UNK N   1      29.841  17.668   7.259  0.00  0.00    -0.215 NA
HETATM   29  C   UNK N   1      30.328  16.392   6.769  0.00  0.00     0.129 C 
HETATM   30  C   UNK N   1      29.345  17.453   8.605  0.00  0.00     0.129 C 
ENDBRANCH  25  28
ENDBRANCH   9  25
TORSDOF 5
ENDMDL
MODEL 7
REMARK VINA RESULT:      -6.7      2.831      5.553
REMARK  5 active torsions:
REMARK  status: ('A' for Active; 'I' for Inactive)
REMARK    1  A    between atoms: S_1  and  N_7 
REMARK    2  A    between atoms: S_1  and  C_22 
REMARK    3  A    between atoms: N_5  and  C_12 
REMARK    4  A    between atoms: C_12  and  C_13 
REMARK    5  A    between atoms: C_13  and  C_15 
ROOT
HETATM    1  S   UNK N   1      28.424  16.304   5.730  0.00  0.00    -0.089 SA
HETATM    2  C   UNK N   1      32.490  16.686   7.594  0.00  0.00    -0.012 C 
HETATM    3  C   UNK N   1      31.405  16.814   6.819  0.00  0.00    -0.017 C 
HETATM    4  C   UNK N   1      31.228  15.965   5.595  0.00  0.00    -0.007 A 
HETATM    5  C   UNK N   1      30.283  17.433   7.548  0.00  0.00    -0.008 A 
HETATM    6  C   UNK N   1      29.958  15.636   5.090  0.00  0.00     0.017 A 
HETATM    7  C   UNK N   1      32.365  15.464   4.924  0.00  0.00     0.038 A 
HETATM    8  C   UNK N   1      28.946  17.171   7.211  0.00  0.00     0.016 A 
HETATM    9  C   UNK N   1      32.256  14.615   3.817  0.00  0.00     0.075 A 
HETATM   10  C   UNK N   1      29.851  14.742   4.017  0.00  0.00     0.021 A 
HETATM   11  C   UNK N   1      30.562  18.094   8.770  0.00  0.00     0.013 A 
HETATM   12  C   UNK N   1      30.985  14.227   3.393  0.00  0.00     0.026 A 
HETATM   13  C   UNK N   1      27.938  17.524   8.115  0.00  0.00     0.020 A 
HETATM   14  C   UNK N   1      29.553  18.448   9.649  0.00  0.00     0.001 A 
HETATM   15  C   UNK N   1      28.238  18.138   9.331  0.00  0.00     0.001 A 
ENDROOT
BRANCH   2  16
HETATM   16  C   UNK N   1      33.458  15.601   7.483  0.00  0.00     0.058 C 
BRANCH  16  17
HETATM   17  C   UNK N   1      34.801  16.164   7.799  0.00  0.00     0.276 C 
BRANCH  17  18
HETATM   18  N   UNK N   1      35.194  15.600   9.064  0.00  0.00     0.092 N 
HETATM   19  C   UNK N   1      34.964  16.564  10.135  0.00  0.00     0.302 C 
HETATM   20  C   UNK N   1      35.650  16.016  11.353  0.00  0.00     0.302 C 
HETATM   21  N   UNK N   1      35.069  14.728  11.728  0.00  0.00     0.087 N 
HETATM   22  C   UNK N   1      34.927  13.794  10.596  0.00  0.00     0.302 C 
HETATM   23  C   UNK N   1      36.047  14.124  12.609  0.00  0.00     0.310 C 
HETATM   24  C   UNK N   1      34.348  14.466   9.357  0.00  0.00     0.302 C 
ENDBRANCH  17  18
ENDBRANCH  16  17
ENDBRANCH   2  16
BRANCH   9  25
HETATM   25  S   UNK N   1      33.709  14.127   2.843  0.00  0.00     0.243 S 
HETATM   26  O   UNK N   1      34.631  14.550   3.998  0.00  0.00    -0.206 OA
HETATM   27  O   UNK N   1      33.770  15.536   2.238  0.00  0.00    -0.206 OA
BRANCH  25  28
HETATM   28  N   UNK N   1      35.137  13.662   1.893  0.00  0.00    -0.215 NA
HETATM   29  C   UNK N   1      34.679  12.998   0.687  0.00  0.00     0.129 C 
HETATM   30  C   UNK N   1      35.952  12.712   2.626  0.00  0.00     0.129 C 
ENDBRANCH  25  28
ENDBRANCH   9  25
TORSDOF 5
ENDMDL
MODEL 8
REMARK VINA RESULT:      -6.4      3.921      6.339
REMARK  5 active torsions:
REMARK  status: ('A' for Active; 'I' for Inactive)
REMARK    1  A    between atoms: S_1  and  N_7 
REMARK    2  A    between atoms: S_1  and  C_22 
REMARK    3  A    between atoms: N_5  and  C_12 
REMARK    4  A    between atoms: C_12  and  C_13 
REMARK    5  A    between atoms: C_13  and  C_15 
ROOT
HETATM    1  S   UNK N   1      33.754  17.750   8.097  0.00  0.00    -0.089 SA
HETATM    2  C   UNK N   1      32.872  13.357   8.360  0.00  0.00    -0.012 C 
HETATM    3  C   UNK N   1      32.904  14.682   8.544  0.00  0.00    -0.017 C 
HETATM    4  C   UNK N   1      33.866  15.304   9.512  0.00  0.00    -0.007 A 
HETATM    5  C   UNK N   1      32.321  15.406   7.399  0.00  0.00    -0.008 A 
HETATM    6  C   UNK N   1      34.344  16.617   9.354  0.00  0.00     0.017 A 
HETATM    7  C   UNK N   1      34.326  14.555  10.617  0.00  0.00     0.038 A 
HETATM    8  C   UNK N   1      32.722  16.709   7.064  0.00  0.00     0.016 A 
HETATM    9  C   UNK N   1      35.273  15.062  11.512  0.00  0.00     0.075 A 
HETATM   10  C   UNK N   1      35.332  17.103  10.219  0.00  0.00     0.021 A 
HETATM   11  C   UNK N   1      31.535  14.675   6.474  0.00  0.00     0.013 A 
HETATM   12  C   UNK N   1      35.802  16.331  11.280  0.00  0.00     0.026 A 
HETATM   13  C   UNK N   1      32.379  17.221   5.809  0.00  0.00     0.020 A 
HETATM   14  C   UNK N   1      31.193  15.200   5.240  0.00  0.00     0.001 A 
HETATM   15  C   UNK N   1      31.639  16.468   4.896  0.00  0.00     0.001 A 
ENDROOT
BRANCH   2  16
HETATM   16  C   UNK N   1      33.877  12.431   8.869  0.00  0.00     0.058 C 
BRANCH  16  17
HETATM   17  C   UNK N   1      34.578  11.839   7.695  0.00  0.00     0.276 C 
BRANCH  17  18
HETATM   18  N   UNK N   1      35.984  11.864   8.003  0.00  0.00     0.092 N 
HETATM   19  C   UNK N   1      36.499  13.224   7.883  0.00  0.00     0.302 C 
HETATM   20  C   UNK N   1      37.996  13.118   7.940  0.00  0.00     0.302 C 
HETATM   21  N   UNK N   1      38.417  12.551   9.220  0.00  0.00     0.087 N 
HETATM   22  C   UNK N   1      37.673  11.337   9.601  0.00  0.00     0.302 C 
HETATM   23  C   UNK N   1      39.781  12.116   9.000  0.00  0.00     0.310 C 
HETATM   24  C   UNK N   1      36.171  11.485   9.384  0.00  0.00     0.302 C 
ENDBRANCH  17  18
ENDBRANCH  16  17
ENDBRANCH   2  16
BRANCH   9  25
HETATM   25  S   UNK N   1      35.720  14.174  13.033  0.00  0.00     0.243 S 
HETATM   26  O   UNK N   1      36.837  13.435  12.278  0.00  0.00    -0.206 OA
HETATM   27  O   UNK N   1      34.711  13.073  12.678  0.00  0.00    -0.206 OA
BRANCH  25  28
HETATM   28  N   UNK N   1      36.155  13.293  14.513  0.00  0.00    -0.215 NA
HETATM   29  C   UNK N   1      34.929  12.910  15.187  0.00  0.00     0.129 C 
HETATM   30  C   UNK N   1      36.897  14.149  15.418  0.00  0.00     0.129 C 
ENDBRANCH  25  28
ENDBRANCH   9  25
TORSDOF 5
ENDMDL
MODEL 9
REMARK VINA RESULT:      -6.4      7.552     10.108
REMARK  5 active torsions:
REMARK  status: ('A' for Active; 'I' for Inactive)
REMARK    1  A    between atoms: S_1  and  N_7 
REMARK    2  A    between atoms: S_1  and  C_22 
REMARK    3  A    between atoms: N_5  and  C_12 
REMARK    4  A    between atoms: C_12  and  C_13 
REMARK    5  A    between atoms: C_13  and  C_15 
ROOT
HETATM    1  S   UNK N   1      24.197  20.156   3.433  0.00  0.00    -0.089 SA
HETATM    2  C   UNK N   1      25.306  16.053   4.876  0.00  0.00    -0.012 C 
HETATM    3  C   UNK N   1      24.967  17.115   4.135  0.00  0.00    -0.017 C 
HETATM    4  C   UNK N   1      23.528  17.444   3.870  0.00  0.00    -0.007 A 
HETATM    5  C   UNK N   1      26.052  18.113   4.085  0.00  0.00    -0.008 A 
HETATM    6  C   UNK N   1      23.093  18.758   3.623  0.00  0.00     0.017 A 
HETATM    7  C   UNK N   1      22.565  16.412   3.877  0.00  0.00     0.038 A 
HETATM    8  C   UNK N   1      25.792  19.481   3.899  0.00  0.00     0.016 A 
HETATM    9  C   UNK N   1      21.201  16.671   3.702  0.00  0.00     0.075 A 
HETATM   10  C   UNK N   1      21.724  19.022   3.502  0.00  0.00     0.021 A 
HETATM   11  C   UNK N   1      27.349  17.714   4.491  0.00  0.00     0.013 A 
HETATM   12  C   UNK N   1      20.785  17.994   3.553  0.00  0.00     0.026 A 
HETATM   13  C   UNK N   1      26.806  20.405   4.172  0.00  0.00     0.020 A 
HETATM   14  C   UNK N   1      28.346  18.640   4.746  0.00  0.00     0.001 A 
HETATM   15  C   UNK N   1      28.064  19.993   4.610  0.00  0.00     0.001 A 
ENDROOT
BRANCH   2  16
HETATM   16  C   UNK N   1      24.366  15.271   5.671  0.00  0.00     0.058 C 
BRANCH  16  17
HETATM   17  C   UNK N   1      25.098  14.081   6.189  0.00  0.00     0.276 C 
BRANCH  17  18
HETATM   18  N   UNK N   1      24.295  13.537   7.252  0.00  0.00     0.092 N 
HETATM   19  C   UNK N   1      25.020  13.609   8.516  0.00  0.00     0.302 C 
HETATM   20  C   UNK N   1      24.245  12.780   9.499  0.00  0.00     0.302 C 
HETATM   21  N   UNK N   1      22.902  13.329   9.679  0.00  0.00     0.087 N 
HETATM   22  C   UNK N   1      22.214  13.633   8.411  0.00  0.00     0.302 C 
HETATM   23  C   UNK N   1      22.142  12.255  10.285  0.00  0.00     0.310 C 
HETATM   24  C   UNK N   1      23.118  14.357   7.419  0.00  0.00     0.302 C 
ENDBRANCH  17  18
ENDBRANCH  16  17
ENDBRANCH   2  16
BRANCH   9  25
HETATM   25  S   UNK N   1      19.991  15.329   3.523  0.00  0.00     0.243 S 
HETATM   26  O   UNK N   1      19.155  15.924   4.668  0.00  0.00    -0.206 OA
HETATM   27  O   UNK N   1      20.797  14.477   4.513  0.00  0.00    -0.206 OA
BRANCH  25  28
HETATM   28  N   UNK N   1      18.808  14.013   3.361  0.00  0.00    -0.215 NA
HETATM   29  C   UNK N   1      18.947  13.137   4.510  0.00  0.00     0.129 C 
HETATM   30  C   UNK N   1      19.083  13.221   2.178  0.00  0.00     0.129 C 
ENDBRANCH  25  28
ENDBRANCH   9  25
TORSDOF 5
ENDMDL
