REMARK  5 active torsions:
REMARK  status: ('A' for Active; 'I' for Inactive)
REMARK    1  A    between atoms: S_1  and  N_7 
REMARK    2  A    between atoms: S_1  and  C_22 
REMARK    3  A    between atoms: N_5  and  C_12 
REMARK    4  A    between atoms: C_12  and  C_13 
REMARK    5  A    between atoms: C_13  and  C_15 
ROOT
HETATM    1  S   UNK N   1       2.594  -4.378  -0.187  0.00  0.00    -0.089 SA
HETATM    2  C   UNK N   1       2.815   0.091   0.175  0.00  0.00    -0.012 C 
HETATM    3  C   UNK N   1       2.859  -1.175  -0.259  0.00  0.00    -0.017 C 
HETATM    4  C   UNK N   1       4.110  -1.992  -0.129  0.00  0.00    -0.007 A 
HETATM    5  C   UNK N   1       1.511  -1.764  -0.361  0.00  0.00    -0.008 A 
HETATM    6  C   UNK N   1       4.082  -3.393  -0.022  0.00  0.00     0.017 A 
HETATM    7  C   UNK N   1       5.365  -1.345  -0.101  0.00  0.00     0.038 A 
HETATM    8  C   UNK N   1       1.293  -3.144  -0.224  0.00  0.00     0.016 A 
HETATM    9  C   UNK N   1       6.558  -2.052   0.084  0.00  0.00     0.075 A 
HETATM   10  C   UNK N   1       5.271  -4.093   0.218  0.00  0.00     0.021 A 
HETATM   11  C   UNK N   1       0.395  -0.891  -0.337  0.00  0.00     0.013 A 
HETATM   12  C   UNK N   1       6.495  -3.431   0.283  0.00  0.00     0.026 A 
HETATM   13  C   UNK N   1      -0.011  -3.606  -0.016  0.00  0.00     0.020 A 
HETATM   14  C   UNK N   1      -0.891  -1.364  -0.142  0.00  0.00     0.001 A 
HETATM   15  C   UNK N   1      -1.091  -2.725   0.045  0.00  0.00     0.001 A 
ENDROOT
BRANCH   2  16
HETATM   16  C   UNK N   1       3.844   0.715   0.998  0.00  0.00     0.058 C 
BRANCH  16  17
HETATM   17  C   UNK N   1       3.689   2.191   0.868  0.00  0.00     0.276 C 
BRANCH  17  18
HETATM   18  N   UNK N   1       5.015   2.731   0.721  0.00  0.00     0.092 N 
HETATM   19  C   UNK N   1       5.687   2.107  -0.414  0.00  0.00     0.302 C 
HETATM   20  C   UNK N   1       7.131   2.509  -0.326  0.00  0.00     0.302 C 
HETATM   21  N   UNK N   1       7.261   3.962  -0.425  0.00  0.00     0.087 N 
HETATM   22  C   UNK N   1       6.335   4.698   0.454  0.00  0.00     0.302 C 
HETATM   23  C   UNK N   1       8.587   4.249   0.081  0.00  0.00     0.310 C 
HETATM   24  C   UNK N   1       4.918   4.137   0.405  0.00  0.00     0.302 C 
ENDBRANCH  17  18
ENDBRANCH  16  17
ENDBRANCH   2  16
BRANCH   9  25
HETATM   25  S   UNK N   1       8.178  -1.245  -0.069  0.00  0.00     0.243 S 
HETATM   26  O   UNK N   1       7.625  -0.335  -1.177  0.00  0.00    -0.206 OA
HETATM   27  O   UNK N   1       8.599  -2.299  -1.102  0.00  0.00    -0.206 OA
BRANCH  25  28
HETATM   28  N   UNK N   1       9.763  -0.458  -0.232  0.00  0.00    -0.215 NA
HETATM   29  C   UNK N   1      10.718  -1.197   0.572  0.00  0.00     0.129 C 
HETATM   30  C   UNK N   1       9.717   0.896   0.286  0.00  0.00     0.129 C 
ENDBRANCH  25  28
ENDBRANCH   9  25
TORSDOF 5
