MODEL 1
REMARK VINA RESULT:      -7.3      0.000      0.000
REMARK  6 active torsions:
REMARK  status: ('A' for Active; 'I' for Inactive)
REMARK    1  A    between atoms: O_3  and  C_13 
REMARK    2  A    between atoms: N_4  and  C_10 
REMARK    3  A    between atoms: N_5  and  C_11 
REMARK    4  A    between atoms: C_10  and  C_12 
REMARK    5  A    between atoms: C_11  and  C_13 
REMARK    6  A    between atoms: C_12  and  C_14 
ROOT
HETATM    1 Cl   UNK N   1      28.622  17.784   5.219  0.00  0.00    -0.084 Cl
HETATM    2  S   UNK N   1      23.387  20.507   2.892  0.00  0.00    -0.089 SA
HETATM    3  C   UNK N   1      23.533  16.701   5.440  0.00  0.00    -0.012 C 
HETATM    4  C   UNK N   1      23.445  17.758   4.600  0.00  0.00    -0.017 C 
HETATM    5  C   UNK N   1      24.730  18.462   4.312  0.00  0.00    -0.007 A 
HETATM    6  C   UNK N   1      22.159  18.172   3.951  0.00  0.00    -0.008 A 
HETATM    7  C   UNK N   1      24.809  19.647   3.554  0.00  0.00     0.017 A 
HETATM    8  C   UNK N   1      22.054  19.339   3.157  0.00  0.00     0.016 A 
HETATM    9  C   UNK N   1      25.930  17.911   4.818  0.00  0.00     0.037 A 
HETATM   10  C   UNK N   1      21.012  17.366   4.096  0.00  0.00     0.013 A 
HETATM   11  C   UNK N   1      26.058  20.243   3.325  0.00  0.00     0.021 A 
HETATM   12  C   UNK N   1      20.835  19.659   2.547  0.00  0.00     0.020 A 
HETATM   13  C   UNK N   1      27.163  18.509   4.578  0.00  0.00     0.035 A 
HETATM   14  C   UNK N   1      19.805  17.695   3.480  0.00  0.00     0.001 A 
HETATM   15  C   UNK N   1      27.229  19.677   3.828  0.00  0.00     0.025 A 
HETATM   16  C   UNK N   1      19.718  18.843   2.701  0.00  0.00     0.001 A 
ENDROOT
BRANCH   3  17
HETATM   17  C   UNK N   1      22.469  15.792   5.969  0.00  0.00     0.058 C 
BRANCH  17  18
HETATM   18  C   UNK N   1      23.065  14.425   6.323  0.00  0.00     0.276 C 
BRANCH  18  19
HETATM   19  N   UNK N   1      23.443  14.311   7.733  0.00  0.00     0.092 N 
HETATM   20  C   UNK N   1      22.450  13.428   8.357  0.00  0.00     0.302 C 
HETATM   21  C   UNK N   1      22.869  13.058   9.783  0.00  0.00     0.302 C 
HETATM   22  N   UNK N   1      24.170  12.393   9.744  0.00  0.00     0.093 N 
HETATM   23  C   UNK N   1      25.144  13.342   9.223  0.00  0.00     0.302 C 
HETATM   24  C   UNK N   1      24.763  13.668   7.786  0.00  0.00     0.302 C 
BRANCH  22  25
HETATM   25  C   UNK N   1      24.557  12.047  11.100  0.00  0.00     0.298 C 
BRANCH  25  26
HETATM   26  C   UNK N   1      23.326  12.016  11.991  0.00  0.00     0.194 C 
BRANCH  26  27
HETATM   27  O   UNK N   1      23.693  12.228  13.321  0.00  0.00    -0.399 OA
HETATM   28  H   UNK N   1      24.182  13.029  13.567  0.00  0.00     0.209 HD
ENDBRANCH  26  27
ENDBRANCH  25  26
ENDBRANCH  22  25
ENDBRANCH  18  19
ENDBRANCH  17  18
ENDBRANCH   3  17
TORSDOF 6
ENDMDL
MODEL 2
REMARK VINA RESULT:      -7.2     12.608     17.137
REMARK  6 active torsions:
REMARK  status: ('A' for Active; 'I' for Inactive)
REMARK    1  A    between atoms: O_3  and  C_13 
REMARK    2  A    between atoms: N_4  and  C_10 
REMARK    3  A    between atoms: N_5  and  C_11 
REMARK    4  A    between atoms: C_10  and  C_12 
REMARK    5  A    between atoms: C_11  and  C_13 
REMARK    6  A    between atoms: C_12  and  C_14 
ROOT
HETATM    1 Cl   UNK N   1      36.329   7.216  12.141  0.00  0.00    -0.084 Cl
HETATM    2  S   UNK N   1      35.222   9.071  18.105  0.00  0.00    -0.089 SA
HETATM    3  C   UNK N   1      35.281  11.784  14.412  0.00  0.00    -0.012 C 
HETATM    4  C   UNK N   1      35.357  11.045  15.543  0.00  0.00    -0.017 C 
HETATM    5  C   UNK N   1      35.574   9.582  15.344  0.00  0.00    -0.007 A 
HETATM    6  C   UNK N   1      35.283  11.652  16.912  0.00  0.00    -0.008 A 
HETATM    7  C   UNK N   1      35.563   8.649  16.400  0.00  0.00     0.017 A 
HETATM    8  C   UNK N   1      35.258  10.863  18.088  0.00  0.00     0.016 A 
HETATM    9  C   UNK N   1      35.811   9.106  14.035  0.00  0.00     0.037 A 
HETATM   10  C   UNK N   1      35.272  13.054  17.056  0.00  0.00     0.013 A 
HETATM   11  C   UNK N   1      35.782   7.291  16.129  0.00  0.00     0.021 A 
HETATM   12  C   UNK N   1      35.223  11.485  19.342  0.00  0.00     0.020 A 
HETATM   13  C   UNK N   1      36.032   7.757  13.780  0.00  0.00     0.035 A 
HETATM   14  C   UNK N   1      35.241  13.659  18.312  0.00  0.00     0.001 A 
HETATM   15  C   UNK N   1      36.020   6.845  14.829  0.00  0.00     0.025 A 
HETATM   16  C   UNK N   1      35.219  12.872  19.457  0.00  0.00     0.001 A 
ENDROOT
BRANCH   3  17
HETATM   17  C   UNK N   1      35.045  13.249  14.224  0.00  0.00     0.058 C 
BRANCH  17  18
HETATM   18  C   UNK N   1      35.899  13.783  13.068  0.00  0.00     0.276 C 
BRANCH  18  19
HETATM   19  N   UNK N   1      35.116  14.501  12.060  0.00  0.00     0.092 N 
HETATM   20  C   UNK N   1      35.895  15.691  11.702  0.00  0.00     0.302 C 
HETATM   21  C   UNK N   1      35.279  16.404  10.494  0.00  0.00     0.302 C 
HETATM   22  N   UNK N   1      35.235  15.479   9.363  0.00  0.00     0.093 N 
HETATM   23  C   UNK N   1      34.362  14.371   9.721  0.00  0.00     0.302 C 
HETATM   24  C   UNK N   1      35.001  13.626  10.886  0.00  0.00     0.302 C 
BRANCH  22  25
HETATM   25  C   UNK N   1      34.649  16.165   8.224  0.00  0.00     0.298 C 
BRANCH  25  26
HETATM   26  C   UNK N   1      34.433  17.631   8.566  0.00  0.00     0.194 C 
BRANCH  26  27
HETATM   27  O   UNK N   1      34.669  18.423   7.441  0.00  0.00    -0.399 OA
HETATM   28  H   UNK N   1      34.633  18.030   6.555  0.00  0.00     0.209 HD
ENDBRANCH  26  27
ENDBRANCH  25  26
ENDBRANCH  22  25
ENDBRANCH  18  19
ENDBRANCH  17  18
ENDBRANCH   3  17
TORSDOF 6
ENDMDL
MODEL 3
REMARK VINA RESULT:      -7.1     12.050     16.438
REMARK  6 active torsions:
REMARK  status: ('A' for Active; 'I' for Inactive)
REMARK    1  A    between atoms: O_3  and  C_13 
REMARK    2  A    between atoms: N_4  and  C_10 
REMARK    3  A    between atoms: N_5  and  C_11 
REMARK    4  A    between atoms: C_10  and  C_12 
REMARK    5  A    between atoms: C_11  and  C_13 
REMARK    6  A    between atoms: C_12  and  C_14 
ROOT
HETATM    1 Cl   UNK N   1      34.942  15.301  18.820  0.00  0.00    -0.084 Cl
HETATM    2  S   UNK N   1      35.849   9.351  16.820  0.00  0.00    -0.089 SA
HETATM    3  C   UNK N   1      35.451  13.053  14.149  0.00  0.00    -0.012 C 
HETATM    4  C   UNK N   1      35.469  11.919  14.887  0.00  0.00    -0.017 C 
HETATM    5  C   UNK N   1      35.426  12.111  16.367  0.00  0.00    -0.007 A 
HETATM    6  C   UNK N   1      35.477  10.553  14.270  0.00  0.00    -0.008 A 
HETATM    7  C   UNK N   1      35.553  11.052  17.287  0.00  0.00     0.017 A 
HETATM    8  C   UNK N   1      35.601   9.374  15.046  0.00  0.00     0.016 A 
HETATM    9  C   UNK N   1      35.242  13.418  16.874  0.00  0.00     0.037 A 
HETATM   10  C   UNK N   1      35.321  10.414  12.877  0.00  0.00     0.013 A 
HETATM   11  C   UNK N   1      35.495  11.317  18.663  0.00  0.00     0.021 A 
HETATM   12  C   UNK N   1      35.568   8.122  14.419  0.00  0.00     0.020 A 
HETATM   13  C   UNK N   1      35.180  13.666  18.241  0.00  0.00     0.035 A 
HETATM   14  C   UNK N   1      35.287   9.161  12.267  0.00  0.00     0.001 A 
HETATM   15  C   UNK N   1      35.306  12.614  19.140  0.00  0.00     0.025 A 
HETATM   16  C   UNK N   1      35.408   8.012  13.041  0.00  0.00     0.001 A 
ENDROOT
BRANCH   3  17
HETATM   17  C   UNK N   1      35.510  13.247  12.667  0.00  0.00     0.058 C 
BRANCH  17  18
HETATM   18  C   UNK N   1      35.952  14.678  12.335  0.00  0.00     0.276 C 
BRANCH  18  19
HETATM   19  N   UNK N   1      35.674  15.056  10.948  0.00  0.00     0.092 N 
HETATM   20  C   UNK N   1      34.486  14.297  10.543  0.00  0.00     0.302 C 
HETATM   21  C   UNK N   1      33.969  14.776   9.183  0.00  0.00     0.302 C 
HETATM   22  N   UNK N   1      33.644  16.199   9.268  0.00  0.00     0.093 N 
HETATM   23  C   UNK N   1      34.872  16.924   9.561  0.00  0.00     0.302 C 
HETATM   24  C   UNK N   1      35.358  16.491  10.938  0.00  0.00     0.302 C 
BRANCH  22  25
HETATM   25  C   UNK N   1      33.155  16.642   7.974  0.00  0.00     0.298 C 
BRANCH  25  26
HETATM   26  C   UNK N   1      34.319  16.772   7.004  0.00  0.00     0.194 C 
BRANCH  26  27
HETATM   27  O   UNK N   1      34.208  17.961   6.282  0.00  0.00    -0.399 OA
HETATM   28  H   UNK N   1      34.801  18.704   6.477  0.00  0.00     0.209 HD
ENDBRANCH  26  27
ENDBRANCH  25  26
ENDBRANCH  22  25
ENDBRANCH  18  19
ENDBRANCH  17  18
ENDBRANCH   3  17
TORSDOF 6
ENDMDL
MODEL 4
REMARK VINA RESULT:      -6.9      7.513      9.657
REMARK  6 active torsions:
REMARK  status: ('A' for Active; 'I' for Inactive)
REMARK    1  A    between atoms: O_3  and  C_13 
REMARK    2  A    between atoms: N_4  and  C_10 
REMARK    3  A    between atoms: N_5  and  C_11 
REMARK    4  A    between atoms: C_10  and  C_12 
REMARK    5  A    between atoms: C_11  and  C_13 
REMARK    6  A    between atoms: C_12  and  C_14 
ROOT
HETATM    1 Cl   UNK N   1      32.367  13.366   2.447  0.00  0.00    -0.084 Cl
HETATM    2  S   UNK N   1      27.971  16.264   5.983  0.00  0.00    -0.089 SA
HETATM    3  C   UNK N   1      32.503  16.855   6.312  0.00  0.00    -0.012 C 
HETATM    4  C   UNK N   1      31.168  16.638   6.326  0.00  0.00    -0.017 C 
HETATM    5  C   UNK N   1      30.653  15.715   5.270  0.00  0.00    -0.007 A 
HETATM    6  C   UNK N   1      30.261  17.234   7.360  0.00  0.00    -0.008 A 
HETATM    7  C   UNK N   1      29.281  15.467   5.064  0.00  0.00     0.017 A 
HETATM    8  C   UNK N   1      28.854  17.087   7.307  0.00  0.00     0.016 A 
HETATM    9  C   UNK N   1      31.585  15.052   4.440  0.00  0.00     0.037 A 
HETATM   10  C   UNK N   1      30.812  17.939   8.449  0.00  0.00     0.013 A 
HETATM   11  C   UNK N   1      28.881  14.581   4.053  0.00  0.00     0.021 A 
HETATM   12  C   UNK N   1      28.058  17.637   8.320  0.00  0.00     0.020 A 
HETATM   13  C   UNK N   1      31.175  14.171   3.445  0.00  0.00     0.035 A 
HETATM   14  C   UNK N   1      30.008  18.478   9.452  0.00  0.00     0.001 A 
HETATM   15  C   UNK N   1      29.819  13.932   3.251  0.00  0.00     0.025 A 
HETATM   16  C   UNK N   1      28.627  18.324   9.388  0.00  0.00     0.001 A 
ENDROOT
BRANCH   3  17
HETATM   17  C   UNK N   1      33.353  17.725   7.182  0.00  0.00     0.058 C 
BRANCH  17  18
HETATM   18  C   UNK N   1      34.542  16.929   7.732  0.00  0.00     0.276 C 
BRANCH  18  19
HETATM   19  N   UNK N   1      34.291  16.367   9.061  0.00  0.00     0.092 N 
HETATM   20  C   UNK N   1      34.494  14.919   8.942  0.00  0.00     0.302 C 
HETATM   21  C   UNK N   1      34.475  14.250  10.321  0.00  0.00     0.302 C 
HETATM   22  N   UNK N   1      35.528  14.833  11.151  0.00  0.00     0.093 N 
HETATM   23  C   UNK N   1      35.226  16.245  11.334  0.00  0.00     0.302 C 
HETATM   24  C   UNK N   1      35.300  16.924   9.972  0.00  0.00     0.302 C 
BRANCH  22  25
HETATM   25  C   UNK N   1      35.501  14.192  12.454  0.00  0.00     0.298 C 
BRANCH  25  26
HETATM   26  C   UNK N   1      35.093  12.736  12.300  0.00  0.00     0.194 C 
BRANCH  26  27
HETATM   27  O   UNK N   1      34.253  12.361  13.349  0.00  0.00    -0.399 OA
HETATM   28  H   UNK N   1      33.483  11.797  13.176  0.00  0.00     0.209 HD
ENDBRANCH  26  27
ENDBRANCH  25  26
ENDBRANCH  22  25
ENDBRANCH  18  19
ENDBRANCH  17  18
ENDBRANCH   3  17
TORSDOF 6
ENDMDL
MODEL 5
REMARK VINA RESULT:      -6.9      5.253      7.370
REMARK  6 active torsions:
REMARK  status: ('A' for Active; 'I' for Inactive)
REMARK    1  A    between atoms: O_3  and  C_13 
REMARK    2  A    between atoms: N_4  and  C_10 
REMARK    3  A    between atoms: N_5  and  C_11 
REMARK    4  A    between atoms: C_10  and  C_12 
REMARK    5  A    between atoms: C_11  and  C_13 
REMARK    6  A    between atoms: C_12  and  C_14 
ROOT
HETATM    1 Cl   UNK N   1      24.716  12.778   8.584  0.00  0.00    -0.084 Cl
HETATM    2  S   UNK N   1      24.064  17.186   4.070  0.00  0.00    -0.089 SA
HETATM    3  C   UNK N   1      27.804  16.485   6.623  0.00  0.00    -0.012 C 
HETATM    4  C   UNK N   1      26.692  16.800   5.919  0.00  0.00    -0.017 C 
HETATM    5  C   UNK N   1      25.522  15.894   6.121  0.00  0.00    -0.007 A 
HETATM    6  C   UNK N   1      26.610  18.006   5.033  0.00  0.00    -0.008 A 
HETATM    7  C   UNK N   1      24.326  16.003   5.385  0.00  0.00     0.017 A 
HETATM    8  C   UNK N   1      25.481  18.271   4.220  0.00  0.00     0.016 A 
HETATM    9  C   UNK N   1      25.614  14.882   7.103  0.00  0.00     0.037 A 
HETATM   10  C   UNK N   1      27.667  18.939   5.021  0.00  0.00     0.013 A 
HETATM   11  C   UNK N   1      23.271  15.115   5.641  0.00  0.00     0.021 A 
HETATM   12  C   UNK N   1      25.445  19.433   3.437  0.00  0.00     0.020 A 
HETATM   13  C   UNK N   1      24.558  14.011   7.351  0.00  0.00     0.035 A 
HETATM   14  C   UNK N   1      27.615  20.092   4.240  0.00  0.00     0.001 A 
HETATM   15  C   UNK N   1      23.381  14.128   6.620  0.00  0.00     0.025 A 
HETATM   16  C   UNK N   1      26.499  20.340   3.448  0.00  0.00     0.001 A 
ENDROOT
BRANCH   3  17
HETATM   17  C   UNK N   1      29.150  17.136   6.651  0.00  0.00     0.058 C 
BRANCH  17  18
HETATM   18  C   UNK N   1      30.207  16.200   6.052  0.00  0.00     0.276 C 
BRANCH  18  19
HETATM   19  N   UNK N   1      31.558  16.466   6.550  0.00  0.00     0.092 N 
HETATM   20  C   UNK N   1      31.399  17.282   7.759  0.00  0.00     0.302 C 
HETATM   21  C   UNK N   1      32.735  17.437   8.492  0.00  0.00     0.302 C 
HETATM   22  N   UNK N   1      33.244  16.114   8.848  0.00  0.00     0.093 N 
HETATM   23  C   UNK N   1      33.492  15.381   7.616  0.00  0.00     0.302 C 
HETATM   24  C   UNK N   1      32.157  15.175   6.913  0.00  0.00     0.302 C 
BRANCH  22  25
HETATM   25  C   UNK N   1      34.509  16.273   9.542  0.00  0.00     0.298 C 
BRANCH  25  26
HETATM   26  C   UNK N   1      34.531  15.388  10.778  0.00  0.00     0.194 C 
BRANCH  26  27
HETATM   27  O   UNK N   1      33.231  15.013  11.119  0.00  0.00    -0.399 OA
HETATM   28  H   UNK N   1      32.886  14.150  10.840  0.00  0.00     0.209 HD
ENDBRANCH  26  27
ENDBRANCH  25  26
ENDBRANCH  22  25
ENDBRANCH  18  19
ENDBRANCH  17  18
ENDBRANCH   3  17
TORSDOF 6
ENDMDL
MODEL 6
REMARK VINA RESULT:      -6.8     14.314     18.226
REMARK  6 active torsions:
REMARK  status: ('A' for Active; 'I' for Inactive)
REMARK    1  A    between atoms: O_3  and  C_13 
REMARK    2  A    between atoms: N_4  and  C_10 
REMARK    3  A    between atoms: N_5  and  C_11 
REMARK    4  A    between atoms: C_10  and  C_12 
REMARK    5  A    between atoms: C_11  and  C_13 
REMARK    6  A    between atoms: C_12  and  C_14 
ROOT
HETATM    1 Cl   UNK N   1      35.696   4.719  17.296  0.00  0.00    -0.084 Cl
HETATM    2  S   UNK N   1      35.135  10.276  20.302  0.00  0.00    -0.089 SA
HETATM    3  C   UNK N   1      34.898   9.634  15.771  0.00  0.00    -0.012 C 
HETATM    4  C   UNK N   1      35.064   9.890  17.089  0.00  0.00    -0.017 C 
HETATM    5  C   UNK N   1      35.249   8.692  17.961  0.00  0.00    -0.007 A 
HETATM    6  C   UNK N   1      35.117  11.282  17.643  0.00  0.00    -0.008 A 
HETATM    7  C   UNK N   1      35.321   8.763  19.366  0.00  0.00     0.017 A 
HETATM    8  C   UNK N   1      35.187  11.540  19.034  0.00  0.00     0.016 A 
HETATM    9  C   UNK N   1      35.365   7.423  17.349  0.00  0.00     0.037 A 
HETATM   10  C   UNK N   1      35.133  12.384  16.765  0.00  0.00     0.013 A 
HETATM   11  C   UNK N   1      35.501   7.589  20.112  0.00  0.00     0.021 A 
HETATM   12  C   UNK N   1      35.268  12.861  19.493  0.00  0.00     0.020 A 
HETATM   13  C   UNK N   1      35.550   6.267  18.100  0.00  0.00     0.035 A 
HETATM   14  C   UNK N   1      35.218  13.693  17.236  0.00  0.00     0.001 A 
HETATM   15  C   UNK N   1      35.621   6.349  19.486  0.00  0.00     0.025 A 
HETATM   16  C   UNK N   1      35.288  13.931  18.604  0.00  0.00     0.001 A 
ENDROOT
BRANCH   3  17
HETATM   17  C   UNK N   1      34.661  10.566  14.625  0.00  0.00     0.058 C 
BRANCH  17  18
HETATM   18  C   UNK N   1      35.889  10.605  13.708  0.00  0.00     0.276 C 
BRANCH  18  19
HETATM   19  N   UNK N   1      36.268  11.964  13.315  0.00  0.00     0.092 N 
HETATM   20  C   UNK N   1      37.004  11.838  12.052  0.00  0.00     0.302 C 
HETATM   21  C   UNK N   1      37.259  13.215  11.430  0.00  0.00     0.302 C 
HETATM   22  N   UNK N   1      35.978  13.880  11.195  0.00  0.00     0.093 N 
HETATM   23  C   UNK N   1      35.334  14.084  12.484  0.00  0.00     0.302 C 
HETATM   24  C   UNK N   1      35.028  12.716  13.080  0.00  0.00     0.302 C 
BRANCH  22  25
HETATM   25  C   UNK N   1      36.232  15.183  10.606  0.00  0.00     0.298 C 
BRANCH  25  26
HETATM   26  C   UNK N   1      35.365  16.230  11.286  0.00  0.00     0.194 C 
BRANCH  26  27
HETATM   27  O   UNK N   1      34.932  17.172  10.352  0.00  0.00    -0.399 OA
HETATM   28  H   UNK N   1      34.987  18.119  10.556  0.00  0.00     0.209 HD
ENDBRANCH  26  27
ENDBRANCH  25  26
ENDBRANCH  22  25
ENDBRANCH  18  19
ENDBRANCH  17  18
ENDBRANCH   3  17
TORSDOF 6
ENDMDL
MODEL 7
REMARK VINA RESULT:      -6.8      6.266      8.002
REMARK  6 active torsions:
REMARK  status: ('A' for Active; 'I' for Inactive)
REMARK    1  A    between atoms: O_3  and  C_13 
REMARK    2  A    between atoms: N_4  and  C_10 
REMARK    3  A    between atoms: N_5  and  C_11 
REMARK    4  A    between atoms: C_10  and  C_12 
REMARK    5  A    between atoms: C_11  and  C_13 
REMARK    6  A    between atoms: C_12  and  C_14 
ROOT
HETATM    1 Cl   UNK N   1      27.984  12.616   2.336  0.00  0.00    -0.084 Cl
HETATM    2  S   UNK N   1      25.591  18.395   3.389  0.00  0.00    -0.089 SA
HETATM    3  C   UNK N   1      29.271  16.594   5.441  0.00  0.00    -0.012 C 
HETATM    4  C   UNK N   1      28.133  17.129   4.942  0.00  0.00    -0.017 C 
HETATM    5  C   UNK N   1      27.442  16.316   3.897  0.00  0.00    -0.007 A 
HETATM    6  C   UNK N   1      27.564  18.425   5.436  0.00  0.00    -0.008 A 
HETATM    7  C   UNK N   1      26.312  16.770   3.189  0.00  0.00     0.017 A 
HETATM    8  C   UNK N   1      26.431  19.029   4.839  0.00  0.00     0.016 A 
HETATM    9  C   UNK N   1      27.939  15.025   3.608  0.00  0.00     0.037 A 
HETATM   10  C   UNK N   1      28.140  19.061   6.554  0.00  0.00     0.013 A 
HETATM   11  C   UNK N   1      25.718  15.941   2.226  0.00  0.00     0.021 A 
HETATM   12  C   UNK N   1      25.922  20.224   5.364  0.00  0.00     0.020 A 
HETATM   13  C   UNK N   1      27.337  14.211   2.655  0.00  0.00     0.035 A 
HETATM   14  C   UNK N   1      27.620  20.248   7.068  0.00  0.00     0.001 A 
HETATM   15  C   UNK N   1      26.221  14.668   1.962  0.00  0.00     0.025 A 
HETATM   16  C   UNK N   1      26.506  20.829   6.472  0.00  0.00     0.001 A 
ENDROOT
BRANCH   3  17
HETATM   17  C   UNK N   1      30.228  17.127   6.460  0.00  0.00     0.058 C 
BRANCH  17  18
HETATM   18  C   UNK N   1      31.668  17.020   5.945  0.00  0.00     0.276 C 
BRANCH  18  19
HETATM   19  N   UNK N   1      32.519  16.180   6.791  0.00  0.00     0.092 N 
HETATM   20  C   UNK N   1      33.740  16.953   7.046  0.00  0.00     0.302 C 
HETATM   21  C   UNK N   1      34.611  16.264   8.103  0.00  0.00     0.302 C 
HETATM   22  N   UNK N   1      33.843  16.125   9.339  0.00  0.00     0.093 N 
HETATM   23  C   UNK N   1      32.704  15.262   9.067  0.00  0.00     0.302 C 
HETATM   24  C   UNK N   1      31.807  15.968   8.059  0.00  0.00     0.302 C 
BRANCH  22  25
HETATM   25  C   UNK N   1      34.678  15.472  10.333  0.00  0.00     0.298 C 
BRANCH  25  26
HETATM   26  C   UNK N   1      35.588  16.497  10.990  0.00  0.00     0.194 C 
BRANCH  26  27
HETATM   27  O   UNK N   1      36.921  16.104  10.862  0.00  0.00    -0.399 OA
HETATM   28  H   UNK N   1      37.161  15.399  10.241  0.00  0.00     0.209 HD
ENDBRANCH  26  27
ENDBRANCH  25  26
ENDBRANCH  22  25
ENDBRANCH  18  19
ENDBRANCH  17  18
ENDBRANCH   3  17
TORSDOF 6
ENDMDL
MODEL 8
REMARK VINA RESULT:      -6.7     13.913     15.072
REMARK  6 active torsions:
REMARK  status: ('A' for Active; 'I' for Inactive)
REMARK    1  A    between atoms: O_3  and  C_13 
REMARK    2  A    between atoms: N_4  and  C_10 
REMARK    3  A    between atoms: N_5  and  C_11 
REMARK    4  A    between atoms: C_10  and  C_12 
REMARK    5  A    between atoms: C_11  and  C_13 
REMARK    6  A    between atoms: C_12  and  C_14 
ROOT
HETATM    1 Cl   UNK N   1      29.034  19.470  -8.194  0.00  0.00    -0.084 Cl
HETATM    2  S   UNK N   1      25.842  24.950  -8.081  0.00  0.00    -0.089 SA
HETATM    3  C   UNK N   1      28.691  23.430  -4.829  0.00  0.00    -0.012 C 
HETATM    4  C   UNK N   1      27.763  23.873  -5.709  0.00  0.00    -0.017 C 
HETATM    5  C   UNK N   1      27.585  23.039  -6.935  0.00  0.00    -0.007 A 
HETATM    6  C   UNK N   1      26.923  25.089  -5.455  0.00  0.00    -0.008 A 
HETATM    7  C   UNK N   1      26.749  23.410  -8.006  0.00  0.00     0.017 A 
HETATM    8  C   UNK N   1      26.029  25.605  -6.424  0.00  0.00     0.016 A 
HETATM    9  C   UNK N   1      28.283  21.813  -7.024  0.00  0.00     0.037 A 
HETATM   10  C   UNK N   1      26.986  25.733  -4.203  0.00  0.00     0.013 A 
HETATM   11  C   UNK N   1      26.633  22.566  -9.120  0.00  0.00     0.021 A 
HETATM   12  C   UNK N   1      25.244  26.725  -6.120  0.00  0.00     0.020 A 
HETATM   13  C   UNK N   1      28.155  20.983  -8.132  0.00  0.00     0.035 A 
HETATM   14  C   UNK N   1      26.196  26.845  -3.913  0.00  0.00     0.001 A 
HETATM   15  C   UNK N   1      27.326  21.358  -9.184  0.00  0.00     0.025 A 
HETATM   16  C   UNK N   1      25.321  27.340  -4.873  0.00  0.00     0.001 A 
ENDROOT
BRANCH   3  17
HETATM   17  C   UNK N   1      29.152  24.012  -3.531  0.00  0.00     0.058 C 
BRANCH  17  18
HETATM   18  C   UNK N   1      30.454  23.339  -3.079  0.00  0.00     0.276 C 
BRANCH  18  19
HETATM   19  N   UNK N   1      31.042  22.479  -4.108  0.00  0.00     0.092 N 
HETATM   20  C   UNK N   1      32.492  22.700  -4.052  0.00  0.00     0.302 C 
HETATM   21  C   UNK N   1      33.232  21.689  -4.934  0.00  0.00     0.302 C 
HETATM   22  N   UNK N   1      32.917  20.335  -4.479  0.00  0.00     0.093 N 
HETATM   23  C   UNK N   1      31.489  20.122  -4.656  0.00  0.00     0.302 C 
HETATM   24  C   UNK N   1      30.750  21.088  -3.739  0.00  0.00     0.302 C 
BRANCH  22  25
HETATM   25  C   UNK N   1      33.624  19.386  -5.320  0.00  0.00     0.298 C 
BRANCH  25  26
HETATM   26  C   UNK N   1      34.479  18.473  -4.456  0.00  0.00     0.194 C 
BRANCH  26  27
HETATM   27  O   UNK N   1      33.686  17.847  -3.494  0.00  0.00    -0.399 OA
HETATM   28  H   UNK N   1      32.739  18.048  -3.440  0.00  0.00     0.209 HD
ENDBRANCH  26  27
ENDBRANCH  25  26
ENDBRANCH  22  25
ENDBRANCH  18  19
ENDBRANCH  17  18
ENDBRANCH   3  17
TORSDOF 6
ENDMDL
MODEL 9
REMARK VINA RESULT:      -6.5     13.899     15.163
REMARK  6 active torsions:
REMARK  status: ('A' for Active; 'I' for Inactive)
REMARK    1  A    between atoms: O_3  and  C_13 
REMARK    2  A    between atoms: N_4  and  C_10 
REMARK    3  A    between atoms: N_5  and  C_11 
REMARK    4  A    between atoms: C_10  and  C_12 
REMARK    5  A    between atoms: C_11  and  C_13 
REMARK    6  A    between atoms: C_12  and  C_14 
ROOT
HETATM    1 Cl   UNK N   1      32.764  29.609  -1.848  0.00  0.00    -0.084 Cl
HETATM    2  S   UNK N   1      26.642  29.508  -3.506  0.00  0.00    -0.089 SA
HETATM    3  C   UNK N   1      29.585  26.014  -3.873  0.00  0.00    -0.012 C 
HETATM    4  C   UNK N   1      28.707  27.043  -3.883  0.00  0.00    -0.017 C 
HETATM    5  C   UNK N   1      29.200  28.319  -3.284  0.00  0.00    -0.007 A 
HETATM    6  C   UNK N   1      27.345  26.938  -4.501  0.00  0.00    -0.008 A 
HETATM    7  C   UNK N   1      28.385  29.454  -3.106  0.00  0.00     0.017 A 
HETATM    8  C   UNK N   1      26.394  27.984  -4.416  0.00  0.00     0.016 A 
HETATM    9  C   UNK N   1      30.552  28.397  -2.880  0.00  0.00     0.037 A 
HETATM   10  C   UNK N   1      26.993  25.782  -5.226  0.00  0.00     0.013 A 
HETATM   11  C   UNK N   1      28.928  30.617  -2.540  0.00  0.00     0.021 A 
HETATM   12  C   UNK N   1      25.149  27.845  -5.042  0.00  0.00     0.020 A 
HETATM   13  C   UNK N   1      31.080  29.558  -2.325  0.00  0.00     0.035 A 
HETATM   14  C   UNK N   1      25.751  25.659  -5.847  0.00  0.00     0.001 A 
HETATM   15  C   UNK N   1      30.267  30.673  -2.156  0.00  0.00     0.025 A 
HETATM   16  C   UNK N   1      24.828  26.694  -5.757  0.00  0.00     0.001 A 
ENDROOT
BRANCH   3  17
HETATM   17  C   UNK N   1      29.434  24.605  -4.351  0.00  0.00     0.058 C 
BRANCH  17  18
HETATM   18  C   UNK N   1      29.346  23.645  -3.158  0.00  0.00     0.276 C 
BRANCH  18  19
HETATM   19  N   UNK N   1      29.995  22.357  -3.410  0.00  0.00     0.092 N 
HETATM   20  C   UNK N   1      30.000  22.174  -4.866  0.00  0.00     0.302 C 
HETATM   21  C   UNK N   1      30.852  20.964  -5.261  0.00  0.00     0.302 C 
HETATM   22  N   UNK N   1      32.219  21.163  -4.781  0.00  0.00     0.093 N 
HETATM   23  C   UNK N   1      32.180  21.228  -3.328  0.00  0.00     0.302 C 
HETATM   24  C   UNK N   1      31.381  22.462  -2.932  0.00  0.00     0.302 C 
BRANCH  22  25
HETATM   25  C   UNK N   1      33.018  20.011  -5.162  0.00  0.00     0.298 C 
BRANCH  25  26
HETATM   26  C   UNK N   1      33.868  19.566  -3.983  0.00  0.00     0.194 C 
BRANCH  26  27
HETATM   27  O   UNK N   1      33.622  18.223  -3.697  0.00  0.00    -0.399 OA
HETATM   28  H   UNK N   1      33.167  17.977  -2.876  0.00  0.00     0.209 HD
ENDBRANCH  26  27
ENDBRANCH  25  26
ENDBRANCH  22  25
ENDBRANCH  18  19
ENDBRANCH  17  18
ENDBRANCH   3  17
TORSDOF 6
ENDMDL
