REMARK  8 active torsions:
REMARK  status: ('A' for Active; 'I' for Inactive)
REMARK    1  A    between atoms: N_2  and  C_4 
REMARK    2  A    between atoms: N_2  and  C_5 
REMARK    3  A    between atoms: N_2  and  C_6 
REMARK       I    between atoms: N_3  and  C_16 
REMARK    4  A    between atoms: C_4  and  C_7 
REMARK    5  A    between atoms: C_7  and  C_9 
REMARK    6  A    between atoms: C_9  and  C_14 
REMARK    7  A    between atoms: C_9  and  C_15 
REMARK    8  A    between atoms: C_9  and  C_16 
ROOT
HETATM    1  C   UNK N   1       5.584  -0.185  -0.370  0.00  0.00     0.096 C 
ENDROOT
BRANCH   1   2
HETATM    2  C   UNK N   1       4.269  -0.133  -1.216  0.00  0.00     0.057 C 
BRANCH   2   3
HETATM    3  C   UNK N   1       2.958  -0.097  -0.395  0.00  0.00     0.240 C 
BRANCH   3   4
HETATM    4  N   UNK N   1       1.745   0.314  -1.130  0.00  0.00    -0.064 N 
HETATM    5  C   UNK N   1       1.766  -0.344  -2.441  0.00  0.00     0.273 C 
BRANCH   4   6
HETATM    6  C   UNK N   1       1.758   1.795  -1.319  0.00  0.00     0.182 C 
HETATM    7  C   UNK N   1       0.663   2.323  -2.242  0.00  0.00     0.040 C 
HETATM    8  C   UNK N   1       1.736   2.596  -0.020  0.00  0.00     0.040 C 
ENDBRANCH   4   6
BRANCH   4   9
HETATM    9  C   UNK N   1       0.571  -0.226  -0.387  0.00  0.00     0.182 C 
HETATM   10  C   UNK N   1       0.484   0.189   1.081  0.00  0.00     0.040 C 
HETATM   11  C   UNK N   1      -0.776  -0.002  -1.069  0.00  0.00     0.040 C 
ENDBRANCH   4   9
ENDBRANCH   3   4
ENDBRANCH   2   3
ENDBRANCH   1   2
BRANCH   1  12
HETATM   12  C   UNK N   1       5.756   1.135   0.410  0.00  0.00    -0.036 A 
HETATM   13  C   UNK N   1       4.826   2.184   0.272  0.00  0.00     0.009 A 
HETATM   14  C   UNK N   1       5.046   3.434   0.852  0.00  0.00     0.001 A 
HETATM   15  C   UNK N   1       6.218   3.671   1.566  0.00  0.00     0.000 A 
HETATM   16  C   UNK N   1       7.155   2.646   1.722  0.00  0.00     0.001 A 
HETATM   17  C   UNK N   1       6.928   1.386   1.152  0.00  0.00     0.009 A 
ENDBRANCH   1  12
BRANCH   1  18
HETATM   18  C   UNK N   1       5.554  -1.473   0.495  0.00  0.00    -0.036 A 
HETATM   19  C   UNK N   1       6.548  -2.467   0.353  0.00  0.00     0.009 A 
HETATM   20  C   UNK N   1       6.462  -3.684   1.034  0.00  0.00     0.001 A 
HETATM   21  C   UNK N   1       5.364  -3.948   1.852  0.00  0.00     0.000 A 
HETATM   22  C   UNK N   1       4.373  -2.979   2.017  0.00  0.00     0.001 A 
HETATM   23  C   UNK N   1       4.473  -1.749   1.356  0.00  0.00     0.009 A 
ENDBRANCH   1  18
BRANCH   1  24
HETATM   24  C   UNK N   1       6.765  -0.250  -1.350  0.00  0.00     0.233 C 
HETATM   25  O   UNK N   1       7.915  -0.295  -0.919  0.00  0.00    -0.272 OA
HETATM   26  N   UNK N   1       6.572  -0.269  -2.681  0.00  0.00    -0.369 N 
HETATM   27  H   UNK N   1       6.489  -0.153  -3.656  0.00  0.00     0.159 HD
HETATM   28  H   UNK N   1       6.167  -1.167  -2.681  0.00  0.00     0.159 HD
ENDBRANCH   1  24
TORSDOF 8
