MODEL 1
REMARK VINA RESULT:      -6.3      0.000      0.000
REMARK  8 active torsions:
REMARK  status: ('A' for Active; 'I' for Inactive)
REMARK    1  A    between atoms: N_2  and  C_4 
REMARK    2  A    between atoms: N_2  and  C_5 
REMARK    3  A    between atoms: N_2  and  C_6 
REMARK       I    between atoms: N_3  and  C_16 
REMARK    4  A    between atoms: C_4  and  C_7 
REMARK    5  A    between atoms: C_7  and  C_9 
REMARK    6  A    between atoms: C_9  and  C_14 
REMARK    7  A    between atoms: C_9  and  C_15 
REMARK    8  A    between atoms: C_9  and  C_16 
ROOT
HETATM    1  C   UNK N   1      29.598  23.694  -3.789  0.00  0.00     0.096 C 
ENDROOT
BRANCH   1   2
HETATM    2  C   UNK N   1      28.157  24.281  -3.959  0.00  0.00     0.057 C 
BRANCH   2   3
HETATM    3  C   UNK N   1      27.989  25.290  -5.120  0.00  0.00     0.240 C 
BRANCH   3   4
HETATM    4  N   UNK N   1      26.982  26.350  -4.915  0.00  0.00    -0.064 N 
HETATM    5  C   UNK N   1      26.773  26.504  -3.471  0.00  0.00     0.273 C 
BRANCH   4   6
HETATM    6  C   UNK N   1      25.698  25.945  -5.561  0.00  0.00     0.182 C 
HETATM    7  C   UNK N   1      24.700  27.084  -5.752  0.00  0.00     0.040 C 
HETATM    8  C   UNK N   1      25.865  25.208  -6.887  0.00  0.00     0.040 C 
ENDBRANCH   4   6
BRANCH   4   9
HETATM    9  C   UNK N   1      27.572  27.626  -5.411  0.00  0.00     0.182 C 
HETATM   10  C   UNK N   1      27.912  28.649  -4.328  0.00  0.00     0.040 C 
HETATM   11  C   UNK N   1      28.760  27.457  -6.354  0.00  0.00     0.040 C 
ENDBRANCH   4   9
ENDBRANCH   3   4
ENDBRANCH   2   3
ENDBRANCH   1   2
BRANCH   1  12
HETATM   12  C   UNK N   1      29.765  22.452  -4.689  0.00  0.00    -0.036 A 
HETATM   13  C   UNK N   1      30.687  21.439  -4.360  0.00  0.00     0.009 A 
HETATM   14  C   UNK N   1      30.957  20.387  -5.236  0.00  0.00     0.001 A 
HETATM   15  C   UNK N   1      30.326  20.338  -6.477  0.00  0.00     0.000 A 
HETATM   16  C   UNK N   1      29.404  21.329  -6.826  0.00  0.00     0.001 A 
HETATM   17  C   UNK N   1      29.121  22.378  -5.940  0.00  0.00     0.009 A 
ENDBRANCH   1  12
BRANCH   1  18
HETATM   18  C   UNK N   1      30.619  24.837  -4.031  0.00  0.00    -0.036 A 
HETATM   19  C   UNK N   1      30.502  26.072  -3.354  0.00  0.00     0.009 A 
HETATM   20  C   UNK N   1      31.339  27.149  -3.657  0.00  0.00     0.001 A 
HETATM   21  C   UNK N   1      32.295  27.027  -4.664  0.00  0.00     0.000 A 
HETATM   22  C   UNK N   1      32.437  25.815  -5.341  0.00  0.00     0.001 A 
HETATM   23  C   UNK N   1      31.617  24.727  -5.020  0.00  0.00     0.009 A 
ENDBRANCH   1  18
BRANCH   1  24
HETATM   24  C   UNK N   1      29.726  23.187  -2.345  0.00  0.00     0.233 C 
HETATM   25  O   UNK N   1      30.839  23.019  -1.852  0.00  0.00    -0.272 OA
HETATM   26  N   UNK N   1      28.640  22.927  -1.594  0.00  0.00    -0.369 N 
HETATM   27  H   UNK N   1      27.884  22.600  -1.053  0.00  0.00     0.159 HD
HETATM   28  H   UNK N   1      28.372  23.872  -1.528  0.00  0.00     0.159 HD
ENDBRANCH   1  24
TORSDOF 8
ENDMDL
MODEL 2
REMARK VINA RESULT:      -6.2      2.964      5.531
REMARK  8 active torsions:
REMARK  status: ('A' for Active; 'I' for Inactive)
REMARK    1  A    between atoms: N_2  and  C_4 
REMARK    2  A    between atoms: N_2  and  C_5 
REMARK    3  A    between atoms: N_2  and  C_6 
REMARK       I    between atoms: N_3  and  C_16 
REMARK    4  A    between atoms: C_4  and  C_7 
REMARK    5  A    between atoms: C_7  and  C_9 
REMARK    6  A    between atoms: C_9  and  C_14 
REMARK    7  A    between atoms: C_9  and  C_15 
REMARK    8  A    between atoms: C_9  and  C_16 
ROOT
HETATM    1  C   UNK N   1      26.388  22.903  -7.604  0.00  0.00     0.096 C 
ENDROOT
BRANCH   1   2
HETATM    2  C   UNK N   1      26.019  23.574  -6.239  0.00  0.00     0.057 C 
BRANCH   2   3
HETATM    3  C   UNK N   1      26.296  25.094  -6.156  0.00  0.00     0.240 C 
BRANCH   3   4
HETATM    4  N   UNK N   1      26.616  25.621  -4.815  0.00  0.00    -0.064 N 
HETATM    5  C   UNK N   1      26.553  24.506  -3.864  0.00  0.00     0.273 C 
BRANCH   4   6
HETATM    6  C   UNK N   1      25.608  26.654  -4.434  0.00  0.00     0.182 C 
HETATM    7  C   UNK N   1      26.168  27.809  -3.608  0.00  0.00     0.040 C 
HETATM    8  C   UNK N   1      24.819  27.227  -5.609  0.00  0.00     0.040 C 
ENDBRANCH   4   6
BRANCH   4   9
HETATM    9  C   UNK N   1      28.031  26.090  -4.847  0.00  0.00     0.182 C 
HETATM   10  C   UNK N   1      29.011  25.256  -4.023  0.00  0.00     0.040 C 
HETATM   11  C   UNK N   1      28.597  26.319  -6.246  0.00  0.00     0.040 C 
ENDBRANCH   4   9
ENDBRANCH   3   4
ENDBRANCH   2   3
ENDBRANCH   1   2
BRANCH   1  12
HETATM   12  C   UNK N   1      26.475  23.978  -8.708  0.00  0.00    -0.036 A 
HETATM   13  C   UNK N   1      27.709  24.305  -9.304  0.00  0.00     0.009 A 
HETATM   14  C   UNK N   1      27.828  25.374 -10.193  0.00  0.00     0.001 A 
HETATM   15  C   UNK N   1      26.716  26.158 -10.488  0.00  0.00     0.000 A 
HETATM   16  C   UNK N   1      25.479  25.852  -9.914  0.00  0.00     0.001 A 
HETATM   17  C   UNK N   1      25.355  24.770  -9.032  0.00  0.00     0.009 A 
ENDBRANCH   1  12
BRANCH   1  18
HETATM   18  C   UNK N   1      27.669  22.053  -7.396  0.00  0.00    -0.036 A 
HETATM   19  C   UNK N   1      27.865  20.848  -8.108  0.00  0.00     0.009 A 
HETATM   20  C   UNK N   1      28.952  20.012  -7.837  0.00  0.00     0.001 A 
HETATM   21  C   UNK N   1      29.854  20.348  -6.829  0.00  0.00     0.000 A 
HETATM   22  C   UNK N   1      29.689  21.538  -6.118  0.00  0.00     0.001 A 
HETATM   23  C   UNK N   1      28.615  22.388  -6.407  0.00  0.00     0.009 A 
ENDBRANCH   1  18
BRANCH   1  24
HETATM   24  C   UNK N   1      25.221  21.987  -8.002  0.00  0.00     0.233 C 
HETATM   25  O   UNK N   1      25.083  21.647  -9.175  0.00  0.00    -0.272 OA
HETATM   26  N   UNK N   1      24.341  21.535  -7.090  0.00  0.00    -0.369 N 
HETATM   27  H   UNK N   1      23.602  21.287  -6.487  0.00  0.00     0.159 HD
HETATM   28  H   UNK N   1      24.999  20.958  -6.637  0.00  0.00     0.159 HD
ENDBRANCH   1  24
TORSDOF 8
ENDMDL
MODEL 3
REMARK VINA RESULT:      -6.0     20.647     23.492
REMARK  8 active torsions:
REMARK  status: ('A' for Active; 'I' for Inactive)
REMARK    1  A    between atoms: N_2  and  C_4 
REMARK    2  A    between atoms: N_2  and  C_5 
REMARK    3  A    between atoms: N_2  and  C_6 
REMARK       I    between atoms: N_3  and  C_16 
REMARK    4  A    between atoms: C_4  and  C_7 
REMARK    5  A    between atoms: C_7  and  C_9 
REMARK    6  A    between atoms: C_9  and  C_14 
REMARK    7  A    between atoms: C_9  and  C_15 
REMARK    8  A    between atoms: C_9  and  C_16 
ROOT
HETATM    1  C   UNK N   1      36.272  12.465  14.715  0.00  0.00     0.096 C 
ENDROOT
BRANCH   1   2
HETATM    2  C   UNK N   1      36.871  13.051  13.393  0.00  0.00     0.057 C 
BRANCH   2   3
HETATM    3  C   UNK N   1      35.842  13.680  12.425  0.00  0.00     0.240 C 
BRANCH   3   4
HETATM    4  N   UNK N   1      36.119  13.509  10.985  0.00  0.00    -0.064 N 
HETATM    5  C   UNK N   1      34.972  12.820  10.383  0.00  0.00     0.273 C 
BRANCH   4   6
HETATM    6  C   UNK N   1      37.344  12.674  10.812  0.00  0.00     0.182 C 
HETATM    7  C   UNK N   1      37.104  11.337  10.117  0.00  0.00     0.040 C 
HETATM    8  C   UNK N   1      38.500  13.390  10.117  0.00  0.00     0.040 C 
ENDBRANCH   4   6
BRANCH   4   9
HETATM    9  C   UNK N   1      36.180  14.870  10.379  0.00  0.00     0.182 C 
HETATM   10  C   UNK N   1      35.399  15.037   9.077  0.00  0.00     0.040 C 
HETATM   11  C   UNK N   1      35.843  16.011  11.335  0.00  0.00     0.040 C 
ENDBRANCH   4   9
ENDBRANCH   3   4
ENDBRANCH   2   3
ENDBRANCH   1   2
BRANCH   1  12
HETATM   12  C   UNK N   1      37.045  11.192  15.120  0.00  0.00    -0.036 A 
HETATM   13  C   UNK N   1      38.143  10.740  14.362  0.00  0.00     0.009 A 
HETATM   14  C   UNK N   1      38.757   9.515  14.627  0.00  0.00     0.001 A 
HETATM   15  C   UNK N   1      38.269   8.701  15.645  0.00  0.00     0.000 A 
HETATM   16  C   UNK N   1      37.183   9.127  16.415  0.00  0.00     0.001 A 
HETATM   17  C   UNK N   1      36.576  10.364  16.159  0.00  0.00     0.009 A 
ENDBRANCH   1  12
BRANCH   1  18
HETATM   18  C   UNK N   1      36.243  13.595  15.777  0.00  0.00    -0.036 A 
HETATM   19  C   UNK N   1      37.092  14.719  15.667  0.00  0.00     0.009 A 
HETATM   20  C   UNK N   1      37.164  15.678  16.680  0.00  0.00     0.001 A 
HETATM   21  C   UNK N   1      36.410  15.522  17.842  0.00  0.00     0.000 A 
HETATM   22  C   UNK N   1      35.555  14.426  17.972  0.00  0.00     0.001 A 
HETATM   23  C   UNK N   1      35.463  13.479  16.945  0.00  0.00     0.009 A 
ENDBRANCH   1  18
BRANCH   1  24
HETATM   24  C   UNK N   1      34.838  12.005  14.411  0.00  0.00     0.233 C 
HETATM   25  O   UNK N   1      33.890  12.555  14.966  0.00  0.00    -0.272 OA
HETATM   26  N   UNK N   1      34.589  11.013  13.537  0.00  0.00    -0.369 N 
HETATM   27  H   UNK N   1      34.365  10.211  13.011  0.00  0.00     0.159 HD
HETATM   28  H   UNK N   1      34.881  11.534  12.754  0.00  0.00     0.159 HD
ENDBRANCH   1  24
TORSDOF 8
ENDMDL
MODEL 4
REMARK VINA RESULT:      -6.0      2.440      4.646
REMARK  8 active torsions:
REMARK  status: ('A' for Active; 'I' for Inactive)
REMARK    1  A    between atoms: N_2  and  C_4 
REMARK    2  A    between atoms: N_2  and  C_5 
REMARK    3  A    between atoms: N_2  and  C_6 
REMARK       I    between atoms: N_3  and  C_16 
REMARK    4  A    between atoms: C_4  and  C_7 
REMARK    5  A    between atoms: C_7  and  C_9 
REMARK    6  A    between atoms: C_9  and  C_14 
REMARK    7  A    between atoms: C_9  and  C_15 
REMARK    8  A    between atoms: C_9  and  C_16 
ROOT
HETATM    1  C   UNK N   1      28.214  23.564  -6.077  0.00  0.00     0.096 C 
ENDROOT
BRANCH   1   2
HETATM    2  C   UNK N   1      27.334  24.619  -5.329  0.00  0.00     0.057 C 
BRANCH   2   3
HETATM    3  C   UNK N   1      27.018  25.902  -6.133  0.00  0.00     0.240 C 
BRANCH   3   4
HETATM    4  N   UNK N   1      27.251  27.180  -5.431  0.00  0.00    -0.064 N 
HETATM    5  C   UNK N   1      28.042  26.897  -4.228  0.00  0.00     0.273 C 
BRANCH   4   6
HETATM    6  C   UNK N   1      25.940  27.773  -5.032  0.00  0.00     0.182 C 
HETATM    7  C   UNK N   1      24.727  27.127  -5.696  0.00  0.00     0.040 C 
HETATM    8  C   UNK N   1      25.706  27.829  -3.525  0.00  0.00     0.040 C 
ENDBRANCH   4   6
BRANCH   4   9
HETATM    9  C   UNK N   1      28.093  28.029  -6.321  0.00  0.00     0.182 C 
HETATM   10  C   UNK N   1      27.913  27.780  -7.817  0.00  0.00     0.040 C 
HETATM   11  C   UNK N   1      28.021  29.526  -6.032  0.00  0.00     0.040 C 
ENDBRANCH   4   9
ENDBRANCH   3   4
ENDBRANCH   2   3
ENDBRANCH   1   2
BRANCH   1  12
HETATM   12  C   UNK N   1      29.200  22.909  -5.087  0.00  0.00    -0.036 A 
HETATM   13  C   UNK N   1      29.928  21.758  -5.444  0.00  0.00     0.009 A 
HETATM   14  C   UNK N   1      30.708  21.070  -4.513  0.00  0.00     0.001 A 
HETATM   15  C   UNK N   1      30.757  21.507  -3.192  0.00  0.00     0.000 A 
HETATM   16  C   UNK N   1      30.047  22.650  -2.812  0.00  0.00     0.001 A 
HETATM   17  C   UNK N   1      29.276  23.349  -3.749  0.00  0.00     0.009 A 
ENDBRANCH   1  12
BRANCH   1  18
HETATM   18  C   UNK N   1      27.269  22.585  -6.824  0.00  0.00    -0.036 A 
HETATM   19  C   UNK N   1      27.780  21.641  -7.742  0.00  0.00     0.009 A 
HETATM   20  C   UNK N   1      26.930  20.842  -8.512  0.00  0.00     0.001 A 
HETATM   21  C   UNK N   1      25.548  20.989  -8.403  0.00  0.00     0.000 A 
HETATM   22  C   UNK N   1      25.017  21.908  -7.495  0.00  0.00     0.001 A 
HETATM   23  C   UNK N   1      25.869  22.689  -6.704  0.00  0.00     0.009 A 
ENDBRANCH   1  18
BRANCH   1  24
HETATM   24  C   UNK N   1      29.081  24.319  -7.095  0.00  0.00     0.233 C 
HETATM   25  O   UNK N   1      30.072  24.939  -6.713  0.00  0.00    -0.272 OA
HETATM   26  N   UNK N   1      28.789  24.313  -8.408  0.00  0.00    -0.369 N 
HETATM   27  H   UNK N   1      28.544  24.447  -9.353  0.00  0.00     0.159 HD
HETATM   28  H   UNK N   1      29.001  23.358  -8.523  0.00  0.00     0.159 HD
ENDBRANCH   1  24
TORSDOF 8
ENDMDL
MODEL 5
REMARK VINA RESULT:      -5.9     10.944     13.862
REMARK  8 active torsions:
REMARK  status: ('A' for Active; 'I' for Inactive)
REMARK    1  A    between atoms: N_2  and  C_4 
REMARK    2  A    between atoms: N_2  and  C_5 
REMARK    3  A    between atoms: N_2  and  C_6 
REMARK       I    between atoms: N_3  and  C_16 
REMARK    4  A    between atoms: C_4  and  C_7 
REMARK    5  A    between atoms: C_7  and  C_9 
REMARK    6  A    between atoms: C_9  and  C_14 
REMARK    7  A    between atoms: C_9  and  C_15 
REMARK    8  A    between atoms: C_9  and  C_16 
ROOT
HETATM    1  C   UNK N   1      27.866  16.715   5.420  0.00  0.00     0.096 C 
ENDROOT
BRANCH   1   2
HETATM    2  C   UNK N   1      29.095  16.279   6.285  0.00  0.00     0.057 C 
BRANCH   2   3
HETATM    3  C   UNK N   1      30.273  17.282   6.308  0.00  0.00     0.240 C 
BRANCH   3   4
HETATM    4  N   UNK N   1      31.590  16.725   6.676  0.00  0.00    -0.064 N 
HETATM    5  C   UNK N   1      31.440  15.274   6.830  0.00  0.00     0.273 C 
BRANCH   4   6
HETATM    6  C   UNK N   1      32.034  17.317   7.973  0.00  0.00     0.182 C 
HETATM    7  C   UNK N   1      33.324  18.129   7.887  0.00  0.00     0.040 C 
HETATM    8  C   UNK N   1      30.972  18.154   8.680  0.00  0.00     0.040 C 
ENDBRANCH   4   6
BRANCH   4   9
HETATM    9  C   UNK N   1      32.506  16.951   5.522  0.00  0.00     0.182 C 
HETATM   10  C   UNK N   1      33.201  15.699   4.989  0.00  0.00     0.040 C 
HETATM   11  C   UNK N   1      31.896  17.737   4.365  0.00  0.00     0.040 C 
ENDBRANCH   4   9
ENDBRANCH   3   4
ENDBRANCH   2   3
ENDBRANCH   1   2
BRANCH   1  12
HETATM   12  C   UNK N   1      27.759  18.254   5.402  0.00  0.00    -0.036 A 
HETATM   13  C   UNK N   1      27.659  18.987   6.601  0.00  0.00     0.009 A 
HETATM   14  C   UNK N   1      27.412  20.361   6.597  0.00  0.00     0.001 A 
HETATM   15  C   UNK N   1      27.235  21.030   5.389  0.00  0.00     0.000 A 
HETATM   16  C   UNK N   1      27.335  20.328   4.185  0.00  0.00     0.001 A 
HETATM   17  C   UNK N   1      27.597  18.951   4.188  0.00  0.00     0.009 A 
ENDBRANCH   1  12
BRANCH   1  18
HETATM   18  C   UNK N   1      27.987  16.037   4.030  0.00  0.00    -0.036 A 
HETATM   19  C   UNK N   1      26.846  15.823   3.225  0.00  0.00     0.009 A 
HETATM   20  C   UNK N   1      26.923  15.103   2.030  0.00  0.00     0.001 A 
HETATM   21  C   UNK N   1      28.140  14.555   1.625  0.00  0.00     0.000 A 
HETATM   22  C   UNK N   1      29.285  14.760   2.397  0.00  0.00     0.001 A 
HETATM   23  C   UNK N   1      29.212  15.505   3.581  0.00  0.00     0.009 A 
ENDBRANCH   1  18
BRANCH   1  24
HETATM   24  C   UNK N   1      26.598  16.215   6.129  0.00  0.00     0.233 C 
HETATM   25  O   UNK N   1      26.671  15.279   6.922  0.00  0.00    -0.272 OA
HETATM   26  N   UNK N   1      25.401  16.786   5.910  0.00  0.00    -0.369 N 
HETATM   27  H   UNK N   1      24.488  17.082   5.685  0.00  0.00     0.159 HD
HETATM   28  H   UNK N   1      25.644  17.633   6.350  0.00  0.00     0.159 HD
ENDBRANCH   1  24
TORSDOF 8
ENDMDL
MODEL 6
REMARK VINA RESULT:      -5.8      2.182      5.580
REMARK  8 active torsions:
REMARK  status: ('A' for Active; 'I' for Inactive)
REMARK    1  A    between atoms: N_2  and  C_4 
REMARK    2  A    between atoms: N_2  and  C_5 
REMARK    3  A    between atoms: N_2  and  C_6 
REMARK       I    between atoms: N_3  and  C_16 
REMARK    4  A    between atoms: C_4  and  C_7 
REMARK    5  A    between atoms: C_7  and  C_9 
REMARK    6  A    between atoms: C_9  and  C_14 
REMARK    7  A    between atoms: C_9  and  C_15 
REMARK    8  A    between atoms: C_9  and  C_16 
ROOT
HETATM    1  C   UNK N   1      27.534  24.637  -4.843  0.00  0.00     0.096 C 
ENDROOT
BRANCH   1   2
HETATM    2  C   UNK N   1      28.965  25.220  -5.091  0.00  0.00     0.057 C 
BRANCH   2   3
HETATM    3  C   UNK N   1      29.019  26.467  -6.005  0.00  0.00     0.240 C 
BRANCH   3   4
HETATM    4  N   UNK N   1      29.896  27.565  -5.550  0.00  0.00    -0.064 N 
HETATM    5  C   UNK N   1      31.200  27.400  -6.201  0.00  0.00     0.273 C 
BRANCH   4   6
HETATM    6  C   UNK N   1      30.066  27.482  -4.069  0.00  0.00     0.182 C 
HETATM    7  C   UNK N   1      31.504  27.253  -3.612  0.00  0.00     0.040 C 
HETATM    8  C   UNK N   1      29.488  28.667  -3.301  0.00  0.00     0.040 C 
ENDBRANCH   4   6
BRANCH   4   9
HETATM    9  C   UNK N   1      29.311  28.839  -6.057  0.00  0.00     0.182 C 
HETATM   10  C   UNK N   1      30.278  29.736  -6.828  0.00  0.00     0.040 C 
HETATM   11  C   UNK N   1      28.013  28.679  -6.844  0.00  0.00     0.040 C 
ENDBRANCH   4   9
ENDBRANCH   3   4
ENDBRANCH   2   3
ENDBRANCH   1   2
BRANCH   1  12
HETATM   12  C   UNK N   1      26.514  25.788  -4.723  0.00  0.00    -0.036 A 
HETATM   13  C   UNK N   1      25.608  26.064  -5.766  0.00  0.00     0.009 A 
HETATM   14  C   UNK N   1      24.784  27.190  -5.737  0.00  0.00     0.001 A 
HETATM   15  C   UNK N   1      24.866  28.082  -4.670  0.00  0.00     0.000 A 
HETATM   16  C   UNK N   1      25.752  27.829  -3.620  0.00  0.00     0.001 A 
HETATM   17  C   UNK N   1      26.570  26.691  -3.642  0.00  0.00     0.009 A 
ENDBRANCH   1  12
BRANCH   1  18
HETATM   18  C   UNK N   1      27.236  23.593  -5.952  0.00  0.00    -0.036 A 
HETATM   19  C   UNK N   1      25.911  23.194  -6.238  0.00  0.00     0.009 A 
HETATM   20  C   UNK N   1      25.641  22.166  -7.144  0.00  0.00     0.001 A 
HETATM   21  C   UNK N   1      26.691  21.492  -7.766  0.00  0.00     0.000 A 
HETATM   22  C   UNK N   1      28.009  21.873  -7.509  0.00  0.00     0.001 A 
HETATM   23  C   UNK N   1      28.279  22.921  -6.621  0.00  0.00     0.009 A 
ENDBRANCH   1  18
BRANCH   1  24
HETATM   24  C   UNK N   1      27.546  23.943  -3.473  0.00  0.00     0.233 C 
HETATM   25  O   UNK N   1      26.487  23.722  -2.890  0.00  0.00    -0.272 OA
HETATM   26  N   UNK N   1      28.696  23.558  -2.891  0.00  0.00    -0.369 N 
HETATM   27  H   UNK N   1      29.512  23.378  -2.369  0.00  0.00     0.159 HD
HETATM   28  H   UNK N   1      28.880  22.854  -3.555  0.00  0.00     0.159 HD
ENDBRANCH   1  24
TORSDOF 8
ENDMDL
MODEL 7
REMARK VINA RESULT:      -5.7      1.617      3.055
REMARK  8 active torsions:
REMARK  status: ('A' for Active; 'I' for Inactive)
REMARK    1  A    between atoms: N_2  and  C_4 
REMARK    2  A    between atoms: N_2  and  C_5 
REMARK    3  A    between atoms: N_2  and  C_6 
REMARK       I    between atoms: N_3  and  C_16 
REMARK    4  A    between atoms: C_4  and  C_7 
REMARK    5  A    between atoms: C_7  and  C_9 
REMARK    6  A    between atoms: C_9  and  C_14 
REMARK    7  A    between atoms: C_9  and  C_15 
REMARK    8  A    between atoms: C_9  and  C_16 
ROOT
HETATM    1  C   UNK N   1      30.346  22.967  -3.732  0.00  0.00     0.096 C 
ENDROOT
BRANCH   1   2
HETATM    2  C   UNK N   1      29.143  22.678  -4.690  0.00  0.00     0.057 C 
BRANCH   2   3
HETATM    3  C   UNK N   1      28.421  23.932  -5.238  0.00  0.00     0.240 C 
BRANCH   3   4
HETATM    4  N   UNK N   1      28.002  23.871  -6.652  0.00  0.00    -0.064 N 
HETATM    5  C   UNK N   1      28.492  22.608  -7.215  0.00  0.00     0.273 C 
BRANCH   4   6
HETATM    6  C   UNK N   1      28.607  25.014  -7.399  0.00  0.00     0.182 C 
HETATM    7  C   UNK N   1      28.862  26.257  -6.551  0.00  0.00     0.040 C 
HETATM    8  C   UNK N   1      29.884  24.664  -8.159  0.00  0.00     0.040 C 
ENDBRANCH   4   6
BRANCH   4   9
HETATM    9  C   UNK N   1      26.512  23.811  -6.672  0.00  0.00     0.182 C 
HETATM   10  C   UNK N   1      25.827  24.274  -5.387  0.00  0.00     0.040 C 
HETATM   11  C   UNK N   1      25.861  24.482  -7.877  0.00  0.00     0.040 C 
ENDBRANCH   4   9
ENDBRANCH   3   4
ENDBRANCH   2   3
ENDBRANCH   1   2
BRANCH   1  12
HETATM   12  C   UNK N   1      31.345  21.792  -3.780  0.00  0.00    -0.036 A 
HETATM   13  C   UNK N   1      32.522  21.811  -3.006  0.00  0.00     0.009 A 
HETATM   14  C   UNK N   1      33.505  20.830  -3.150  0.00  0.00     0.001 A 
HETATM   15  C   UNK N   1      33.341  19.818  -4.092  0.00  0.00     0.000 A 
HETATM   16  C   UNK N   1      32.181  19.773  -4.869  0.00  0.00     0.001 A 
HETATM   17  C   UNK N   1      31.187  20.749  -4.715  0.00  0.00     0.009 A 
ENDBRANCH   1  12
BRANCH   1  18
HETATM   18  C   UNK N   1      30.932  24.357  -4.095  0.00  0.00    -0.036 A 
HETATM   19  C   UNK N   1      31.944  24.487  -5.072  0.00  0.00     0.009 A 
HETATM   20  C   UNK N   1      32.567  25.714  -5.316  0.00  0.00     0.001 A 
HETATM   21  C   UNK N   1      32.212  26.835  -4.568  0.00  0.00     0.000 A 
HETATM   22  C   UNK N   1      31.208  26.737  -3.603  0.00  0.00     0.001 A 
HETATM   23  C   UNK N   1      30.565  25.513  -3.378  0.00  0.00     0.009 A 
ENDBRANCH   1  18
BRANCH   1  24
HETATM   24  C   UNK N   1      29.801  22.996  -2.296  0.00  0.00     0.233 C 
HETATM   25  O   UNK N   1      30.581  23.003  -1.347  0.00  0.00    -0.272 OA
HETATM   26  N   UNK N   1      28.479  23.024  -2.048  0.00  0.00    -0.369 N 
HETATM   27  H   UNK N   1      27.528  22.913  -1.815  0.00  0.00     0.159 HD
HETATM   28  H   UNK N   1      28.360  23.934  -2.405  0.00  0.00     0.159 HD
ENDBRANCH   1  24
TORSDOF 8
ENDMDL
MODEL 8
REMARK VINA RESULT:      -5.7     10.854     13.232
REMARK  8 active torsions:
REMARK  status: ('A' for Active; 'I' for Inactive)
REMARK    1  A    between atoms: N_2  and  C_4 
REMARK    2  A    between atoms: N_2  and  C_5 
REMARK    3  A    between atoms: N_2  and  C_6 
REMARK       I    between atoms: N_3  and  C_16 
REMARK    4  A    between atoms: C_4  and  C_7 
REMARK    5  A    between atoms: C_7  and  C_9 
REMARK    6  A    between atoms: C_9  and  C_14 
REMARK    7  A    between atoms: C_9  and  C_15 
REMARK    8  A    between atoms: C_9  and  C_16 
ROOT
HETATM    1  C   UNK N   1      28.487  17.620   6.677  0.00  0.00     0.096 C 
ENDROOT
BRANCH   1   2
HETATM    2  C   UNK N   1      27.418  16.479   6.641  0.00  0.00     0.057 C 
BRANCH   2   3
HETATM    3  C   UNK N   1      27.430  15.605   5.364  0.00  0.00     0.240 C 
BRANCH   3   4
HETATM    4  N   UNK N   1      26.127  15.422   4.693  0.00  0.00    -0.064 N 
HETATM    5  C   UNK N   1      25.708  14.030   4.890  0.00  0.00     0.273 C 
BRANCH   4   6
HETATM    6  C   UNK N   1      26.281  15.691   3.232  0.00  0.00     0.182 C 
HETATM    7  C   UNK N   1      27.728  15.760   2.751  0.00  0.00     0.040 C 
HETATM    8  C   UNK N   1      25.508  14.731   2.331  0.00  0.00     0.040 C 
ENDBRANCH   4   6
BRANCH   4   9
HETATM    9  C   UNK N   1      25.138  16.283   5.401  0.00  0.00     0.182 C 
HETATM   10  C   UNK N   1      24.549  17.419   4.566  0.00  0.00     0.040 C 
HETATM   11  C   UNK N   1      24.016  15.523   6.104  0.00  0.00     0.040 C 
ENDBRANCH   4   9
ENDBRANCH   3   4
ENDBRANCH   2   3
ENDBRANCH   1   2
BRANCH   1  12
HETATM   12  C   UNK N   1      29.841  17.085   6.165  0.00  0.00    -0.036 A 
HETATM   13  C   UNK N   1      30.538  16.085   6.872  0.00  0.00     0.009 A 
HETATM   14  C   UNK N   1      31.827  15.698   6.505  0.00  0.00     0.001 A 
HETATM   15  C   UNK N   1      32.461  16.323   5.433  0.00  0.00     0.000 A 
HETATM   16  C   UNK N   1      31.790  17.314   4.713  0.00  0.00     0.001 A 
HETATM   17  C   UNK N   1      30.489  17.693   5.071  0.00  0.00     0.009 A 
ENDBRANCH   1  12
BRANCH   1  18
HETATM   18  C   UNK N   1      27.919  18.843   5.909  0.00  0.00    -0.036 A 
HETATM   19  C   UNK N   1      27.319  19.920   6.599  0.00  0.00     0.009 A 
HETATM   20  C   UNK N   1      26.693  20.964   5.913  0.00  0.00     0.001 A 
HETATM   21  C   UNK N   1      26.626  20.941   4.521  0.00  0.00     0.000 A 
HETATM   22  C   UNK N   1      27.219  19.894   3.815  0.00  0.00     0.001 A 
HETATM   23  C   UNK N   1      27.870  18.861   4.500  0.00  0.00     0.009 A 
ENDBRANCH   1  18
BRANCH   1  24
HETATM   24  C   UNK N   1      28.715  17.997   8.149  0.00  0.00     0.233 C 
HETATM   25  O   UNK N   1      29.692  18.673   8.462  0.00  0.00    -0.272 OA
HETATM   26  N   UNK N   1      27.859  17.612   9.112  0.00  0.00    -0.369 N 
HETATM   27  H   UNK N   1      27.338  17.245   9.864  0.00  0.00     0.159 HD
HETATM   28  H   UNK N   1      27.128  18.188   8.792  0.00  0.00     0.159 HD
ENDBRANCH   1  24
TORSDOF 8
ENDMDL
MODEL 9
REMARK VINA RESULT:      -5.6     13.065     16.448
REMARK  8 active torsions:
REMARK  status: ('A' for Active; 'I' for Inactive)
REMARK    1  A    between atoms: N_2  and  C_4 
REMARK    2  A    between atoms: N_2  and  C_5 
REMARK    3  A    between atoms: N_2  and  C_6 
REMARK       I    between atoms: N_3  and  C_16 
REMARK    4  A    between atoms: C_4  and  C_7 
REMARK    5  A    between atoms: C_7  and  C_9 
REMARK    6  A    between atoms: C_9  and  C_14 
REMARK    7  A    between atoms: C_9  and  C_15 
REMARK    8  A    between atoms: C_9  and  C_16 
ROOT
HETATM    1  C   UNK N   1      32.620  16.642   7.108  0.00  0.00     0.096 C 
ENDROOT
BRANCH   1   2
HETATM    2  C   UNK N   1      33.179  15.440   7.940  0.00  0.00     0.057 C 
BRANCH   2   3
HETATM    3  C   UNK N   1      34.666  15.557   8.350  0.00  0.00     0.240 C 
BRANCH   3   4
HETATM    4  N   UNK N   1      35.181  14.489   9.230  0.00  0.00    -0.064 N 
HETATM    5  C   UNK N   1      34.105  13.513   9.433  0.00  0.00     0.273 C 
BRANCH   4   6
HETATM    6  C   UNK N   1      35.572  15.077  10.546  0.00  0.00     0.182 C 
HETATM    7  C   UNK N   1      35.376  16.587  10.646  0.00  0.00     0.040 C 
HETATM    8  C   UNK N   1      34.913  14.414  11.752  0.00  0.00     0.040 C 
ENDBRANCH   4   6
BRANCH   4   9
HETATM    9  C   UNK N   1      36.272  13.792   8.491  0.00  0.00     0.182 C 
HETATM   10  C   UNK N   1      36.385  14.150   7.010  0.00  0.00     0.040 C 
HETATM   11  C   UNK N   1      37.646  13.874   9.151  0.00  0.00     0.040 C 
ENDBRANCH   4   9
ENDBRANCH   3   4
ENDBRANCH   2   3
ENDBRANCH   1   2
BRANCH   1  12
HETATM   12  C   UNK N   1      32.741  16.334   5.601  0.00  0.00    -0.036 A 
HETATM   13  C   UNK N   1      33.268  15.107   5.152  0.00  0.00     0.009 A 
HETATM   14  C   UNK N   1      33.522  14.874   3.800  0.00  0.00     0.001 A 
HETATM   15  C   UNK N   1      33.275  15.876   2.865  0.00  0.00     0.000 A 
HETATM   16  C   UNK N   1      32.747  17.101   3.282  0.00  0.00     0.001 A 
HETATM   17  C   UNK N   1      32.478  17.330   4.639  0.00  0.00     0.009 A 
ENDBRANCH   1  12
BRANCH   1  18
HETATM   18  C   UNK N   1      31.187  16.957   7.612  0.00  0.00    -0.036 A 
HETATM   19  C   UNK N   1      30.207  17.478   6.738  0.00  0.00     0.009 A 
HETATM   20  C   UNK N   1      28.955  17.883   7.208  0.00  0.00     0.001 A 
HETATM   21  C   UNK N   1      28.663  17.804   8.569  0.00  0.00     0.000 A 
HETATM   22  C   UNK N   1      29.610  17.284   9.453  0.00  0.00     0.001 A 
HETATM   23  C   UNK N   1      30.855  16.853   8.978  0.00  0.00     0.009 A 
ENDBRANCH   1  18
BRANCH   1  24
HETATM   24  C   UNK N   1      33.534  17.849   7.364  0.00  0.00     0.233 C 
HETATM   25  O   UNK N   1      34.487  18.063   6.618  0.00  0.00    -0.272 OA
HETATM   26  N   UNK N   1      33.311  18.693   8.387  0.00  0.00    -0.369 N 
HETATM   27  H   UNK N   1      33.268  19.259   9.193  0.00  0.00     0.159 HD
HETATM   28  H   UNK N   1      32.481  19.056   8.000  0.00  0.00     0.159 HD
ENDBRANCH   1  24
TORSDOF 8
ENDMDL
