REMARK  3 active torsions:
REMARK  status: ('A' for Active; 'I' for Inactive)
REMARK    1  A    between atoms: N_1  and  C_2 
REMARK    2  A    between atoms: N_1  and  C_4 
REMARK    3  A    between atoms: C_2  and  C_3 
ROOT
HETATM    1  C   UNK N   1       3.103   2.770   0.000  0.00  0.00     0.210 C 
HETATM    2  C   UNK N   1       4.454   3.362  -0.001  0.00  0.00    -0.098 C 
HETATM    3  C   UNK N   1       5.592   3.760   0.000  0.00  0.00     0.014 C 
ENDROOT
BRANCH   1   4
HETATM    4  N   UNK N   1       3.156   1.303  -0.000  0.00  0.00    -0.403 N 
HETATM    5  C   UNK N   1       4.457   0.632  -0.000  0.00  0.00     0.144 C 
BRANCH   4   6
HETATM    6  C   UNK N   1       1.867   0.589   0.000  0.00  0.00     0.156 C 
BRANCH   6   7
HETATM    7  C   UNK N   1       1.883  -0.932   0.000  0.00  0.00    -0.041 A 
HETATM    8  C   UNK N   1       3.064  -1.693  -0.000  0.00  0.00     0.009 A 
HETATM    9  C   UNK N   1       3.027  -3.086  -0.000  0.00  0.00     0.001 A 
HETATM   10  C   UNK N   1       1.799  -3.744  -0.000  0.00  0.00     0.000 A 
HETATM   11  C   UNK N   1       0.613  -3.005  -0.000  0.00  0.00     0.001 A 
HETATM   12  C   UNK N   1       0.656  -1.605   0.000  0.00  0.00     0.009 A 
ENDBRANCH   6   7
ENDBRANCH   4   6
ENDBRANCH   1   4
TORSDOF 3
