MODEL 1
REMARK VINA RESULT:      -4.9      0.000      0.000
REMARK  3 active torsions:
REMARK  status: ('A' for Active; 'I' for Inactive)
REMARK    1  A    between atoms: N_1  and  C_2 
REMARK    2  A    between atoms: N_1  and  C_4 
REMARK    3  A    between atoms: C_2  and  C_3 
ROOT
HETATM    1  C   UNK N   1      29.208  23.147  -2.393  0.00  0.00     0.210 C 
HETATM    2  C   UNK N   1      29.983  22.087  -3.065  0.00  0.00    -0.098 C 
HETATM    3  C   UNK N   1      30.587  21.256  -3.695  0.00  0.00     0.014 C 
ENDROOT
BRANCH   1   4
HETATM    4  N   UNK N   1      28.543  24.028  -3.361  0.00  0.00    -0.403 N 
HETATM    5  C   UNK N   1      29.350  24.743  -4.352  0.00  0.00     0.144 C 
BRANCH   4   6
HETATM    6  C   UNK N   1      27.076  24.134  -3.269  0.00  0.00     0.156 C 
BRANCH   6   7
HETATM    7  C   UNK N   1      26.399  25.345  -3.893  0.00  0.00    -0.041 A 
HETATM    8  C   UNK N   1      26.369  26.612  -3.286  0.00  0.00     0.009 A 
HETATM    9  C   UNK N   1      25.735  27.692  -3.898  0.00  0.00     0.001 A 
HETATM   10  C   UNK N   1      25.116  27.519  -5.134  0.00  0.00     0.000 A 
HETATM   11  C   UNK N   1      25.135  26.267  -5.754  0.00  0.00     0.001 A 
HETATM   12  C   UNK N   1      25.774  25.185  -5.135  0.00  0.00     0.009 A 
ENDBRANCH   6   7
ENDBRANCH   4   6
ENDBRANCH   1   4
TORSDOF 3
ENDMDL
MODEL 2
REMARK VINA RESULT:      -4.9     22.114     24.961
REMARK  3 active torsions:
REMARK  status: ('A' for Active; 'I' for Inactive)
REMARK    1  A    between atoms: N_1  and  C_2 
REMARK    2  A    between atoms: N_1  and  C_4 
REMARK    3  A    between atoms: C_2  and  C_3 
ROOT
HETATM    1  C   UNK N   1      36.486  13.485  13.314  0.00  0.00     0.210 C 
HETATM    2  C   UNK N   1      36.068  14.594  12.436  0.00  0.00    -0.098 C 
HETATM    3  C   UNK N   1      35.697  15.545  11.794  0.00  0.00     0.014 C 
ENDROOT
BRANCH   1   4
HETATM    4  N   UNK N   1      36.228  13.788  14.727  0.00  0.00    -0.403 N 
HETATM    5  C   UNK N   1      37.096  14.736  15.428  0.00  0.00     0.144 C 
BRANCH   4   6
HETATM    6  C   UNK N   1      35.087  13.102  15.359  0.00  0.00     0.156 C 
BRANCH   6   7
HETATM    7  C   UNK N   1      35.230  12.640  16.801  0.00  0.00    -0.041 A 
HETATM    8  C   UNK N   1      35.050  13.489  17.906  0.00  0.00     0.009 A 
HETATM    9  C   UNK N   1      35.192  13.018  19.210  0.00  0.00     0.001 A 
HETATM   10  C   UNK N   1      35.518  11.682  19.430  0.00  0.00     0.000 A 
HETATM   11  C   UNK N   1      35.700  10.821  18.344  0.00  0.00     0.001 A 
HETATM   12  C   UNK N   1      35.557  11.300  17.035  0.00  0.00     0.009 A 
ENDBRANCH   6   7
ENDBRANCH   4   6
ENDBRANCH   1   4
TORSDOF 3
ENDMDL
MODEL 3
REMARK VINA RESULT:      -4.7      0.907      2.139
REMARK  3 active torsions:
REMARK  status: ('A' for Active; 'I' for Inactive)
REMARK    1  A    between atoms: N_1  and  C_2 
REMARK    2  A    between atoms: N_1  and  C_4 
REMARK    3  A    between atoms: C_2  and  C_3 
ROOT
HETATM    1  C   UNK N   1      29.183  24.656  -4.434  0.00  0.00     0.210 C 
HETATM    2  C   UNK N   1      30.084  25.713  -3.939  0.00  0.00    -0.098 C 
HETATM    3  C   UNK N   1      30.793  26.557  -3.449  0.00  0.00     0.014 C 
ENDROOT
BRANCH   1   4
HETATM    4  N   UNK N   1      28.492  23.976  -3.331  0.00  0.00    -0.403 N 
HETATM    5  C   UNK N   1      29.275  23.232  -2.343  0.00  0.00     0.144 C 
BRANCH   4   6
HETATM    6  C   UNK N   1      27.023  24.091  -3.293  0.00  0.00     0.156 C 
BRANCH   6   7
HETATM    7  C   UNK N   1      26.378  25.325  -3.905  0.00  0.00    -0.041 A 
HETATM    8  C   UNK N   1      26.392  26.589  -3.292  0.00  0.00     0.009 A 
HETATM    9  C   UNK N   1      25.787  27.691  -3.892  0.00  0.00     0.001 A 
HETATM   10  C   UNK N   1      25.153  27.544  -5.125  0.00  0.00     0.000 A 
HETATM   11  C   UNK N   1      25.129  26.295  -5.751  0.00  0.00     0.001 A 
HETATM   12  C   UNK N   1      25.739  25.191  -5.142  0.00  0.00     0.009 A 
ENDBRANCH   6   7
ENDBRANCH   4   6
ENDBRANCH   1   4
TORSDOF 3
ENDMDL
MODEL 4
REMARK VINA RESULT:      -4.7     17.045     18.862
REMARK  3 active torsions:
REMARK  status: ('A' for Active; 'I' for Inactive)
REMARK    1  A    between atoms: N_1  and  C_2 
REMARK    2  A    between atoms: N_1  and  C_4 
REMARK    3  A    between atoms: C_2  and  C_3 
ROOT
HETATM    1  C   UNK N   1      20.953  16.362   7.715  0.00  0.00     0.210 C 
HETATM    2  C   UNK N   1      20.047  17.252   8.464  0.00  0.00    -0.098 C 
HETATM    3  C   UNK N   1      19.257  17.905   9.099  0.00  0.00     0.014 C 
ENDROOT
BRANCH   1   4
HETATM    4  N   UNK N   1      20.541  14.957   7.822  0.00  0.00    -0.403 N 
HETATM    5  C   UNK N   1      20.499  14.128   6.616  0.00  0.00     0.144 C 
BRANCH   4   6
HETATM    6  C   UNK N   1      20.188  14.466   9.166  0.00  0.00     0.156 C 
BRANCH   6   7
HETATM    7  C   UNK N   1      21.182  13.573   9.893  0.00  0.00    -0.041 A 
HETATM    8  C   UNK N   1      22.558  13.554   9.607  0.00  0.00     0.009 A 
HETATM    9  C   UNK N   1      23.429  12.718  10.301  0.00  0.00     0.001 A 
HETATM   10  C   UNK N   1      22.935  11.882  11.300  0.00  0.00     0.000 A 
HETATM   11  C   UNK N   1      21.570  11.886  11.600  0.00  0.00     0.001 A 
HETATM   12  C   UNK N   1      20.698  12.729  10.899  0.00  0.00     0.009 A 
ENDBRANCH   6   7
ENDBRANCH   4   6
ENDBRANCH   1   4
TORSDOF 3
ENDMDL
MODEL 5
REMARK VINA RESULT:      -4.6     10.648     13.390
REMARK  3 active torsions:
REMARK  status: ('A' for Active; 'I' for Inactive)
REMARK    1  A    between atoms: N_1  and  C_2 
REMARK    2  A    between atoms: N_1  and  C_4 
REMARK    3  A    between atoms: C_2  and  C_3 
ROOT
HETATM    1  C   UNK N   1      27.954  19.509   4.735  0.00  0.00     0.210 C 
HETATM    2  C   UNK N   1      27.563  20.692   5.523  0.00  0.00    -0.098 C 
HETATM    3  C   UNK N   1      27.183  21.606   6.212  0.00  0.00     0.014 C 
ENDROOT
BRANCH   1   4
HETATM    4  N   UNK N   1      27.207  18.314   5.148  0.00  0.00    -0.403 N 
HETATM    5  C   UNK N   1      25.767  18.244   4.894  0.00  0.00     0.144 C 
BRANCH   4   6
HETATM    6  C   UNK N   1      27.975  17.242   5.806  0.00  0.00     0.156 C 
BRANCH   6   7
HETATM    7  C   UNK N   1      28.824  17.599   7.017  0.00  0.00    -0.041 A 
HETATM    8  C   UNK N   1      30.209  17.372   7.085  0.00  0.00     0.009 A 
HETATM    9  C   UNK N   1      30.943  17.716   8.218  0.00  0.00     0.001 A 
HETATM   10  C   UNK N   1      30.299  18.298   9.308  0.00  0.00     0.000 A 
HETATM   11  C   UNK N   1      28.923  18.532   9.260  0.00  0.00     0.001 A 
HETATM   12  C   UNK N   1      28.189  18.183   8.118  0.00  0.00     0.009 A 
ENDBRANCH   6   7
ENDBRANCH   4   6
ENDBRANCH   1   4
TORSDOF 3
ENDMDL
MODEL 6
REMARK VINA RESULT:      -4.5     24.243     26.159
REMARK  3 active torsions:
REMARK  status: ('A' for Active; 'I' for Inactive)
REMARK    1  A    between atoms: N_1  and  C_2 
REMARK    2  A    between atoms: N_1  and  C_4 
REMARK    3  A    between atoms: C_2  and  C_3 
ROOT
HETATM    1  C   UNK N   1      35.715   9.373  14.055  0.00  0.00     0.210 C 
HETATM    2  C   UNK N   1      35.904   8.317  15.068  0.00  0.00    -0.098 C 
HETATM    3  C   UNK N   1      36.026   7.513  15.958  0.00  0.00     0.014 C 
ENDROOT
BRANCH   1   4
HETATM    4  N   UNK N   1      35.123  10.582  14.640  0.00  0.00    -0.403 N 
HETATM    5  C   UNK N   1      33.679  10.796  14.537  0.00  0.00     0.144 C 
BRANCH   4   6
HETATM    6  C   UNK N   1      36.044  11.520  15.305  0.00  0.00     0.156 C 
BRANCH   6   7
HETATM    7  C   UNK N   1      35.734  11.949  16.731  0.00  0.00    -0.041 A 
HETATM    8  C   UNK N   1      35.396  13.265  17.087  0.00  0.00     0.009 A 
HETATM    9  C   UNK N   1      35.120  13.609  18.409  0.00  0.00     0.001 A 
HETATM   10  C   UNK N   1      35.179  12.634  19.403  0.00  0.00     0.000 A 
HETATM   11  C   UNK N   1      35.514  11.319  19.069  0.00  0.00     0.001 A 
HETATM   12  C   UNK N   1      35.791  10.979  17.739  0.00  0.00     0.009 A 
ENDBRANCH   6   7
ENDBRANCH   4   6
ENDBRANCH   1   4
TORSDOF 3
ENDMDL
MODEL 7
REMARK VINA RESULT:      -4.5     22.987     25.379
REMARK  3 active torsions:
REMARK  status: ('A' for Active; 'I' for Inactive)
REMARK    1  A    between atoms: N_1  and  C_2 
REMARK    2  A    between atoms: N_1  and  C_4 
REMARK    3  A    between atoms: C_2  and  C_3 
ROOT
HETATM    1  C   UNK N   1      34.690  11.851  13.280  0.00  0.00     0.210 C 
HETATM    2  C   UNK N   1      34.769  10.379  13.220  0.00  0.00    -0.098 C 
HETATM    3  C   UNK N   1      34.905   9.181  13.229  0.00  0.00     0.014 C 
ENDROOT
BRANCH   1   4
HETATM    4  N   UNK N   1      35.699  12.409  14.189  0.00  0.00    -0.403 N 
HETATM    5  C   UNK N   1      37.116  12.140  13.940  0.00  0.00     0.144 C 
BRANCH   4   6
HETATM    6  C   UNK N   1      35.206  13.222  15.314  0.00  0.00     0.156 C 
BRANCH   6   7
HETATM    7  C   UNK N   1      35.288  12.639  16.717  0.00  0.00    -0.041 A 
HETATM    8  C   UNK N   1      35.491  11.273  16.977  0.00  0.00     0.009 A 
HETATM    9  C   UNK N   1      35.559  10.787  18.281  0.00  0.00     0.001 A 
HETATM   10  C   UNK N   1      35.424  11.666  19.353  0.00  0.00     0.000 A 
HETATM   11  C   UNK N   1      35.221  13.028  19.116  0.00  0.00     0.001 A 
HETATM   12  C   UNK N   1      35.154  13.512  17.803  0.00  0.00     0.009 A 
ENDBRANCH   6   7
ENDBRANCH   4   6
ENDBRANCH   1   4
TORSDOF 3
ENDMDL
MODEL 8
REMARK VINA RESULT:      -4.5     12.316     14.060
REMARK  3 active torsions:
REMARK  status: ('A' for Active; 'I' for Inactive)
REMARK    1  A    between atoms: N_1  and  C_2 
REMARK    2  A    between atoms: N_1  and  C_4 
REMARK    3  A    between atoms: C_2  and  C_3 
ROOT
HETATM    1  C   UNK N   1      33.762  16.414   5.841  0.00  0.00     0.210 C 
HETATM    2  C   UNK N   1      33.073  17.123   4.746  0.00  0.00    -0.098 C 
HETATM    3  C   UNK N   1      32.470  17.755   3.915  0.00  0.00     0.014 C 
ENDROOT
BRANCH   1   4
HETATM    4  N   UNK N   1      33.412  16.976   7.152  0.00  0.00    -0.403 N 
HETATM    5  C   UNK N   1      34.199  18.086   7.690  0.00  0.00     0.144 C 
BRANCH   4   6
HETATM    6  C   UNK N   1      32.266  16.370   7.853  0.00  0.00     0.156 C 
BRANCH   6   7
HETATM    7  C   UNK N   1      30.950  17.133   7.882  0.00  0.00    -0.041 A 
HETATM    8  C   UNK N   1      30.588  18.011   8.917  0.00  0.00     0.009 A 
HETATM    9  C   UNK N   1      29.371  18.688   8.899  0.00  0.00     0.001 A 
HETATM   10  C   UNK N   1      28.490  18.496   7.837  0.00  0.00     0.000 A 
HETATM   11  C   UNK N   1      28.831  17.627   6.798  0.00  0.00     0.001 A 
HETATM   12  C   UNK N   1      30.057  16.949   6.821  0.00  0.00     0.009 A 
ENDBRANCH   6   7
ENDBRANCH   4   6
ENDBRANCH   1   4
TORSDOF 3
ENDMDL
MODEL 9
REMARK VINA RESULT:      -4.5     11.630     13.817
REMARK  3 active torsions:
REMARK  status: ('A' for Active; 'I' for Inactive)
REMARK    1  A    between atoms: N_1  and  C_2 
REMARK    2  A    between atoms: N_1  and  C_4 
REMARK    3  A    between atoms: C_2  and  C_3 
ROOT
HETATM    1  C   UNK N   1      28.165  17.814   7.745  0.00  0.00     0.210 C 
HETATM    2  C   UNK N   1      27.917  18.973   6.867  0.00  0.00    -0.098 C 
HETATM    3  C   UNK N   1      27.802  19.947   6.165  0.00  0.00     0.014 C 
ENDROOT
BRANCH   1   4
HETATM    4  N   UNK N   1      29.547  17.796   8.239  0.00  0.00    -0.403 N 
HETATM    5  C   UNK N   1      29.982  18.817   9.193  0.00  0.00     0.144 C 
BRANCH   4   6
HETATM    6  C   UNK N   1      30.423  16.726   7.729  0.00  0.00     0.156 C 
BRANCH   6   7
HETATM    7  C   UNK N   1      31.374  17.053   6.588  0.00  0.00    -0.041 A 
HETATM    8  C   UNK N   1      32.760  17.208   6.757  0.00  0.00     0.009 A 
HETATM    9  C   UNK N   1      33.591  17.507   5.679  0.00  0.00     0.001 A 
HETATM   10  C   UNK N   1      33.044  17.658   4.407  0.00  0.00     0.000 A 
HETATM   11  C   UNK N   1      31.668  17.509   4.218  0.00  0.00     0.001 A 
HETATM   12  C   UNK N   1      30.837  17.207   5.305  0.00  0.00     0.009 A 
ENDBRANCH   6   7
ENDBRANCH   4   6
ENDBRANCH   1   4
TORSDOF 3
ENDMDL
