MODEL 1
REMARK VINA RESULT:      -7.2      0.000      0.000
REMARK  3 active torsions:
REMARK  status: ('A' for Active; 'I' for Inactive)
REMARK    1  A    between atoms: S_2  and  C_11 
REMARK    2  A    between atoms: C_9  and  C_10 
REMARK    3  A    between atoms: C_12  and  C_17 
ROOT
HETATM    1 Cl   UNK N   1      28.503  12.881   1.233  0.00  0.00    -0.083 Cl
HETATM    2  N   UNK N   1      26.890  16.024   3.097  0.00  0.00    -0.363 N 
ATOM      3  HN  UNK N   1      25.982  16.489   3.110  1.00  0.00     0.165 HD
HETATM    4  C   UNK N   1      29.154  15.837   3.904  0.00  0.00     0.003 A 
HETATM    5  C   UNK N   1      27.896  16.523   3.874  0.00  0.00     0.055 A 
HETATM    6  C   UNK N   1      29.327  14.729   3.066  0.00  0.00     0.040 A 
HETATM    7  C   UNK N   1      28.283  14.279   2.263  0.00  0.00     0.050 A 
HETATM    8  C   UNK N   1      27.054  14.929   2.310  0.00  0.00     0.112 A 
ENDROOT
BRANCH   4   9
HETATM    9  C   UNK N   1      30.272  16.211   4.821  0.00  0.00    -0.024 A 
HETATM   10  C   UNK N   1      31.275  17.105   4.405  0.00  0.00     0.014 A 
HETATM   11  C   UNK N   1      32.387  17.359   5.202  0.00  0.00     0.024 A 
HETATM   12  C   UNK N   1      32.492  16.753   6.449  0.00  0.00     0.058 A 
HETATM   13  C   UNK N   1      31.459  15.930   6.918  0.00  0.00     0.024 A 
HETATM   14  C   UNK N   1      30.341  15.678   6.116  0.00  0.00     0.014 A 
BRANCH  12  15
HETATM   15  S   UNK N   1      34.045  16.816   7.327  0.00  0.00     0.171 S 
HETATM   16  O   UNK N   1      34.465  18.211   6.850  0.00  0.00    -0.223 OA
HETATM   17  O   UNK N   1      35.144  16.061   6.566  0.00  0.00    -0.223 OA
HETATM   18  C   UNK N   1      34.473  17.025   9.079  0.00  0.00     0.167 C 
ENDBRANCH  12  15
ENDBRANCH   4   9
BRANCH   5  19
HETATM   19  C   UNK N   1      27.649  17.809   4.588  0.00  0.00     0.007 A 
HETATM   20  C   UNK N   1      27.800  19.034   3.930  0.00  0.00     0.017 A 
HETATM   21  C   UNK N   1      27.528  20.227   4.607  0.00  0.00     0.025 A 
HETATM   22  C   UNK N   1      27.140  20.184   5.950  0.00  0.00     0.005 A 
HETATM   23  N   UNK N   1      27.064  18.994   6.596  0.00  0.00    -0.369 N 
HETATM   24  C   UNK N   1      26.810  21.438   6.675  0.00  0.00     0.068 C 
HETATM   25  C   UNK N   1      27.319  17.826   5.954  0.00  0.00     0.101 A 
ATOM     26  HN  UNK N   1      26.810  18.976   7.584  1.00  0.00     0.165 HD
ENDBRANCH   5  19
TORSDOF 3
ENDMDL
MODEL 2
REMARK VINA RESULT:      -6.8      3.341      5.839
REMARK  3 active torsions:
REMARK  status: ('A' for Active; 'I' for Inactive)
REMARK    1  A    between atoms: S_2  and  C_11 
REMARK    2  A    between atoms: C_9  and  C_10 
REMARK    3  A    between atoms: C_12  and  C_17 
ROOT
HETATM    1 Cl   UNK N   1      26.497  19.576   5.737  0.00  0.00    -0.083 Cl
HETATM    2  N   UNK N   1      29.394  18.395   8.221  0.00  0.00    -0.363 N 
ATOM      3  HN  UNK N   1      29.596  18.486   9.217  1.00  0.00     0.165 HD
HETATM    4  C   UNK N   1      29.970  17.540   6.041  0.00  0.00     0.003 A 
HETATM    5  C   UNK N   1      30.280  17.721   7.429  0.00  0.00     0.055 A 
HETATM    6  C   UNK N   1      28.809  18.138   5.536  0.00  0.00     0.040 A 
HETATM    7  C   UNK N   1      27.955  18.848   6.375  0.00  0.00     0.050 A 
HETATM    8  C   UNK N   1      28.254  18.946   7.731  0.00  0.00     0.112 A 
ENDROOT
BRANCH   4   9
HETATM    9  C   UNK N   1      30.793  16.703   5.118  0.00  0.00    -0.024 A 
HETATM   10  C   UNK N   1      30.626  15.307   5.073  0.00  0.00     0.014 A 
HETATM   11  C   UNK N   1      31.474  14.506   4.313  0.00  0.00     0.024 A 
HETATM   12  C   UNK N   1      32.477  15.096   3.552  0.00  0.00     0.058 A 
HETATM   13  C   UNK N   1      32.600  16.491   3.515  0.00  0.00     0.024 A 
HETATM   14  C   UNK N   1      31.746  17.294   4.277  0.00  0.00     0.014 A 
BRANCH  12  15
HETATM   15  S   UNK N   1      33.755  14.072   2.841  0.00  0.00     0.171 S 
HETATM   16  O   UNK N   1      34.829  14.366   3.896  0.00  0.00    -0.223 OA
HETATM   17  O   UNK N   1      34.473  14.797   1.693  0.00  0.00    -0.223 OA
HETATM   18  C   UNK N   1      33.999  12.275   2.749  0.00  0.00     0.167 C 
ENDBRANCH  12  15
ENDBRANCH   4   9
BRANCH   5  19
HETATM   19  C   UNK N   1      31.565  17.280   8.044  0.00  0.00     0.007 A 
HETATM   20  C   UNK N   1      32.737  18.021   7.861  0.00  0.00     0.017 A 
HETATM   21  C   UNK N   1      33.924  17.610   8.477  0.00  0.00     0.025 A 
HETATM   22  C   UNK N   1      33.933  16.440   9.242  0.00  0.00     0.005 A 
HETATM   23  N   UNK N   1      32.807  15.694   9.356  0.00  0.00    -0.369 N 
HETATM   24  C   UNK N   1      35.175  16.009   9.935  0.00  0.00     0.068 C 
HETATM   25  C   UNK N   1      31.645  16.080   8.770  0.00  0.00     0.101 A 
ATOM     26  HN  UNK N   1      32.833  14.826   9.891  1.00  0.00     0.165 HD
ENDBRANCH   5  19
TORSDOF 3
ENDMDL
MODEL 3
REMARK VINA RESULT:      -6.7      3.400      5.659
REMARK  3 active torsions:
REMARK  status: ('A' for Active; 'I' for Inactive)
REMARK    1  A    between atoms: S_2  and  C_11 
REMARK    2  A    between atoms: C_9  and  C_10 
REMARK    3  A    between atoms: C_12  and  C_17 
ROOT
HETATM    1 Cl   UNK N   1      27.404  19.234   6.747  0.00  0.00    -0.083 Cl
HETATM    2  N   UNK N   1      29.711  17.450   4.017  0.00  0.00    -0.363 N 
ATOM      3  HN  UNK N   1      29.689  17.315   3.006  1.00  0.00     0.165 HD
HETATM    4  C   UNK N   1      30.814  17.158   6.141  0.00  0.00     0.003 A 
HETATM    5  C   UNK N   1      30.748  16.919   4.730  0.00  0.00     0.055 A 
HETATM    6  C   UNK N   1      29.761  17.856   6.746  0.00  0.00     0.040 A 
HETATM    7  C   UNK N   1      28.705  18.347   5.984  0.00  0.00     0.050 A 
HETATM    8  C   UNK N   1      28.709  18.153   4.606  0.00  0.00     0.112 A 
ENDROOT
BRANCH   4   9
HETATM    9  C   UNK N   1      31.970  16.747   6.992  0.00  0.00    -0.024 A 
HETATM   10  C   UNK N   1      31.861  15.661   7.878  0.00  0.00     0.014 A 
HETATM   11  C   UNK N   1      32.888  15.351   8.765  0.00  0.00     0.024 A 
HETATM   12  C   UNK N   1      34.059  16.101   8.750  0.00  0.00     0.058 A 
HETATM   13  C   UNK N   1      34.221  17.130   7.812  0.00  0.00     0.024 A 
HETATM   14  C   UNK N   1      33.188  17.437   6.920  0.00  0.00     0.014 A 
BRANCH  12  15
HETATM   15  S   UNK N   1      35.232  15.922  10.084  0.00  0.00     0.171 S 
HETATM   16  O   UNK N   1      34.296  15.188  11.050  0.00  0.00    -0.223 OA
HETATM   17  O   UNK N   1      35.326  17.209  10.916  0.00  0.00    -0.223 OA
HETATM   18  C   UNK N   1      36.691  14.868  10.320  0.00  0.00     0.167 C 
ENDBRANCH  12  15
ENDBRANCH   4   9
BRANCH   5  19
HETATM   19  C   UNK N   1      31.715  16.047   4.003  0.00  0.00     0.007 A 
HETATM   20  C   UNK N   1      31.710  14.661   4.190  0.00  0.00     0.017 A 
HETATM   21  C   UNK N   1      32.601  13.857   3.471  0.00  0.00     0.025 A 
HETATM   22  C   UNK N   1      33.514  14.454   2.596  0.00  0.00     0.005 A 
HETATM   23  N   UNK N   1      33.555  15.804   2.474  0.00  0.00    -0.369 N 
HETATM   24  C   UNK N   1      34.442  13.615   1.795  0.00  0.00     0.068 C 
HETATM   25  C   UNK N   1      32.695  16.599   3.160  0.00  0.00     0.101 A 
ATOM     26  HN  UNK N   1      34.246  16.231   1.856  1.00  0.00     0.165 HD
ENDBRANCH   5  19
TORSDOF 3
ENDMDL
MODEL 4
REMARK VINA RESULT:      -6.7      7.028     11.002
REMARK  3 active torsions:
REMARK  status: ('A' for Active; 'I' for Inactive)
REMARK    1  A    between atoms: S_2  and  C_11 
REMARK    2  A    between atoms: C_9  and  C_10 
REMARK    3  A    between atoms: C_12  and  C_17 
ROOT
HETATM    1 Cl   UNK N   1      35.981  13.266  16.152  0.00  0.00    -0.083 Cl
HETATM    2  N   UNK N   1      37.543  12.111  12.662  0.00  0.00    -0.363 N 
ATOM      3  HN  UNK N   1      38.176  11.378  12.342  1.00  0.00     0.165 HD
HETATM    4  C   UNK N   1      36.105  13.987  12.181  0.00  0.00     0.003 A 
HETATM    5  C   UNK N   1      37.041  12.993  11.746  0.00  0.00     0.055 A 
HETATM    6  C   UNK N   1      35.808  14.067  13.548  0.00  0.00     0.040 A 
HETATM    7  C   UNK N   1      36.373  13.169  14.449  0.00  0.00     0.050 A 
HETATM    8  C   UNK N   1      37.226  12.175  13.980  0.00  0.00     0.112 A 
ENDROOT
BRANCH   4   9
HETATM    9  C   UNK N   1      35.389  14.906  11.248  0.00  0.00    -0.024 A 
HETATM   10  C   UNK N   1      34.280  14.459  10.508  0.00  0.00     0.014 A 
HETATM   11  C   UNK N   1      33.686  15.268   9.543  0.00  0.00     0.024 A 
HETATM   12  C   UNK N   1      34.170  16.554   9.331  0.00  0.00     0.058 A 
HETATM   13  C   UNK N   1      35.217  17.048  10.121  0.00  0.00     0.024 A 
HETATM   14  C   UNK N   1      35.809  16.235  11.093  0.00  0.00     0.014 A 
BRANCH  12  15
HETATM   15  S   UNK N   1      33.636  17.467   7.893  0.00  0.00     0.171 S 
HETATM   16  O   UNK N   1      34.646  18.613   8.023  0.00  0.00    -0.223 OA
HETATM   17  O   UNK N   1      32.400  18.323   8.207  0.00  0.00    -0.223 OA
HETATM   18  C   UNK N   1      33.818  17.190   6.109  0.00  0.00     0.167 C 
ENDBRANCH  12  15
ENDBRANCH   4   9
BRANCH   5  19
HETATM   19  C   UNK N   1      37.565  12.919  10.352  0.00  0.00     0.007 A 
HETATM   20  C   UNK N   1      38.532  13.824   9.901  0.00  0.00     0.017 A 
HETATM   21  C   UNK N   1      39.036  13.714   8.601  0.00  0.00     0.025 A 
HETATM   22  C   UNK N   1      38.542  12.719   7.752  0.00  0.00     0.005 A 
HETATM   23  N   UNK N   1      37.556  11.890   8.178  0.00  0.00    -0.369 N 
HETATM   24  C   UNK N   1      39.093  12.562   6.382  0.00  0.00     0.068 C 
HETATM   25  C   UNK N   1      37.058  11.979   9.438  0.00  0.00     0.101 A 
ATOM     26  HN  UNK N   1      37.181  11.189   7.541  1.00  0.00     0.165 HD
ENDBRANCH   5  19
TORSDOF 3
ENDMDL
MODEL 5
REMARK VINA RESULT:      -6.5      3.718      6.038
REMARK  3 active torsions:
REMARK  status: ('A' for Active; 'I' for Inactive)
REMARK    1  A    between atoms: S_2  and  C_11 
REMARK    2  A    between atoms: C_9  and  C_10 
REMARK    3  A    between atoms: C_12  and  C_17 
ROOT
HETATM    1 Cl   UNK N   1      27.859  18.315   9.216  0.00  0.00    -0.083 Cl
HETATM    2  N   UNK N   1      29.756  17.248   5.866  0.00  0.00    -0.363 N 
ATOM      3  HN  UNK N   1      29.574  17.304   4.864  1.00  0.00     0.165 HD
HETATM    4  C   UNK N   1      31.205  16.643   7.696  0.00  0.00     0.003 A 
HETATM    5  C   UNK N   1      30.919  16.669   6.293  0.00  0.00     0.055 A 
HETATM    6  C   UNK N   1      30.238  17.136   8.582  0.00  0.00     0.040 A 
HETATM    7  C   UNK N   1      29.052  17.683   8.102  0.00  0.00     0.050 A 
HETATM    8  C   UNK N   1      28.837  17.753   6.729  0.00  0.00     0.112 A 
ENDROOT
BRANCH   4   9
HETATM    9  C   UNK N   1      32.502  16.165   8.262  0.00  0.00    -0.024 A 
HETATM   10  C   UNK N   1      32.677  14.816   8.619  0.00  0.00     0.014 A 
HETATM   11  C   UNK N   1      33.834  14.387   9.264  0.00  0.00     0.024 A 
HETATM   12  C   UNK N   1      34.853  15.297   9.524  0.00  0.00     0.058 A 
HETATM   13  C   UNK N   1      34.733  16.625   9.094  0.00  0.00     0.024 A 
HETATM   14  C   UNK N   1      33.571  17.053   8.444  0.00  0.00     0.014 A 
BRANCH  12  15
HETATM   15  S   UNK N   1      36.181  14.836  10.624  0.00  0.00     0.171 S 
HETATM   16  O   UNK N   1      36.735  16.249  10.839  0.00  0.00    -0.223 OA
HETATM   17  O   UNK N   1      37.396  14.318   9.841  0.00  0.00    -0.223 OA
HETATM   18  C   UNK N   1      36.227  14.296  12.357  0.00  0.00     0.167 C 
ENDBRANCH  12  15
ENDBRANCH   4   9
BRANCH   5  19
HETATM   19  C   UNK N   1      31.788  16.022   5.269  0.00  0.00     0.007 A 
HETATM   20  C   UNK N   1      31.696  14.649   5.015  0.00  0.00     0.017 A 
HETATM   21  C   UNK N   1      32.495  14.069   4.025  0.00  0.00     0.025 A 
HETATM   22  C   UNK N   1      33.405  14.863   3.321  0.00  0.00     0.005 A 
HETATM   23  N   UNK N   1      33.533  16.179   3.622  0.00  0.00    -0.369 N 
HETATM   24  C   UNK N   1      34.234  14.272   2.239  0.00  0.00     0.068 C 
HETATM   25  C   UNK N   1      32.763  16.761   4.576  0.00  0.00     0.101 A 
ATOM     26  HN  UNK N   1      34.222  16.742   3.124  1.00  0.00     0.165 HD
ENDBRANCH   5  19
TORSDOF 3
ENDMDL
MODEL 6
REMARK VINA RESULT:      -6.5      9.769     14.086
REMARK  3 active torsions:
REMARK  status: ('A' for Active; 'I' for Inactive)
REMARK    1  A    between atoms: S_2  and  C_11 
REMARK    2  A    between atoms: C_9  and  C_10 
REMARK    3  A    between atoms: C_12  and  C_17 
ROOT
HETATM    1 Cl   UNK N   1      34.717  13.166  20.063  0.00  0.00    -0.083 Cl
HETATM    2  N   UNK N   1      35.916  10.264  17.594  0.00  0.00    -0.363 N 
ATOM      3  HN  UNK N   1      36.133   9.271  17.672  1.00  0.00     0.165 HD
HETATM    4  C   UNK N   1      35.677  12.252  16.250  0.00  0.00     0.003 A 
HETATM    5  C   UNK N   1      36.039  10.872  16.375  0.00  0.00     0.055 A 
HETATM    6  C   UNK N   1      35.293  12.947  17.404  0.00  0.00     0.040 A 
HETATM    7  C   UNK N   1      35.217  12.294  18.631  0.00  0.00     0.050 A 
HETATM    8  C   UNK N   1      35.512  10.936  18.702  0.00  0.00     0.112 A 
ENDROOT
BRANCH   4   9
HETATM    9  C   UNK N   1      35.638  12.976  14.944  0.00  0.00    -0.024 A 
HETATM   10  C   UNK N   1      34.854  12.496  13.880  0.00  0.00     0.014 A 
HETATM   11  C   UNK N   1      34.910  13.089  12.622  0.00  0.00     0.024 A 
HETATM   12  C   UNK N   1      35.723  14.199  12.420  0.00  0.00     0.058 A 
HETATM   13  C   UNK N   1      36.442  14.745  13.492  0.00  0.00     0.024 A 
HETATM   14  C   UNK N   1      36.382  14.149  14.756  0.00  0.00     0.014 A 
BRANCH  12  15
HETATM   15  S   UNK N   1      36.047  14.759  10.756  0.00  0.00     0.171 S 
HETATM   16  O   UNK N   1      37.396  14.050  10.588  0.00  0.00    -0.223 OA
HETATM   17  O   UNK N   1      36.625  16.181  10.752  0.00  0.00    -0.223 OA
HETATM   18  C   UNK N   1      35.345  14.321   9.140  0.00  0.00     0.167 C 
ENDBRANCH  12  15
ENDBRANCH   4   9
BRANCH   5  19
HETATM   19  C   UNK N   1      36.625  10.075  15.259  0.00  0.00     0.007 A 
HETATM   20  C   UNK N   1      37.918  10.337  14.795  0.00  0.00     0.017 A 
HETATM   21  C   UNK N   1      38.462   9.554  13.771  0.00  0.00     0.025 A 
HETATM   22  C   UNK N   1      37.692   8.538  13.198  0.00  0.00     0.005 A 
HETATM   23  N   UNK N   1      36.416   8.338  13.610  0.00  0.00    -0.369 N 
HETATM   24  C   UNK N   1      38.266   7.671  12.137  0.00  0.00     0.068 C 
HETATM   25  C   UNK N   1      35.873   9.084  14.605  0.00  0.00     0.101 A 
ATOM     26  HN  UNK N   1      35.852   7.615  13.163  1.00  0.00     0.165 HD
ENDBRANCH   5  19
TORSDOF 3
ENDMDL
MODEL 7
REMARK VINA RESULT:      -6.5      5.263      6.707
REMARK  3 active torsions:
REMARK  status: ('A' for Active; 'I' for Inactive)
REMARK    1  A    between atoms: S_2  and  C_11 
REMARK    2  A    between atoms: C_9  and  C_10 
REMARK    3  A    between atoms: C_12  and  C_17 
ROOT
HETATM    1 Cl   UNK N   1      29.411  13.349   1.941  0.00  0.00    -0.083 Cl
HETATM    2  N   UNK N   1      29.204  17.131   3.212  0.00  0.00    -0.363 N 
ATOM      3  HN  UNK N   1      29.802  17.956   3.174  1.00  0.00     0.165 HD
HETATM    4  C   UNK N   1      27.129  16.080   3.849  0.00  0.00     0.003 A 
HETATM    5  C   UNK N   1      27.997  17.220   3.846  0.00  0.00     0.055 A 
HETATM    6  C   UNK N   1      27.594  14.890   3.274  0.00  0.00     0.040 A 
HETATM    7  C   UNK N   1      28.847  14.836   2.672  0.00  0.00     0.050 A 
HETATM    8  C   UNK N   1      29.635  15.982   2.629  0.00  0.00     0.112 A 
ENDROOT
BRANCH   4   9
HETATM    9  C   UNK N   1      25.736  16.108   4.385  0.00  0.00    -0.024 A 
HETATM   10  C   UNK N   1      24.684  16.649   3.625  0.00  0.00     0.014 A 
HETATM   11  C   UNK N   1      23.409  16.798   4.164  0.00  0.00     0.024 A 
HETATM   12  C   UNK N   1      23.158  16.368   5.463  0.00  0.00     0.058 A 
HETATM   13  C   UNK N   1      24.172  15.744   6.203  0.00  0.00     0.024 A 
HETATM   14  C   UNK N   1      25.451  15.593   5.657  0.00  0.00     0.014 A 
BRANCH  12  15
HETATM   15  S   UNK N   1      21.636  16.843   6.266  0.00  0.00     0.171 S 
HETATM   16  O   UNK N   1      20.789  16.956   4.993  0.00  0.00    -0.223 OA
HETATM   17  O   UNK N   1      21.624  18.344   6.587  0.00  0.00    -0.223 OA
HETATM   18  C   UNK N   1      20.429  15.937   7.274  0.00  0.00     0.167 C 
ENDBRANCH  12  15
ENDBRANCH   4   9
BRANCH   5  19
HETATM   19  C   UNK N   1      27.686  18.485   4.571  0.00  0.00     0.007 A 
HETATM   20  C   UNK N   1      27.099  19.567   3.906  0.00  0.00     0.017 A 
HETATM   21  C   UNK N   1      26.783  20.731   4.614  0.00  0.00     0.025 A 
HETATM   22  C   UNK N   1      27.089  20.814   5.975  0.00  0.00     0.005 A 
HETATM   23  N   UNK N   1      27.720  19.785   6.593  0.00  0.00    -0.369 N 
HETATM   24  C   UNK N   1      26.726  22.028   6.752  0.00  0.00     0.068 C 
HETATM   25  C   UNK N   1      28.030  18.646   5.925  0.00  0.00     0.101 A 
ATOM     26  HN  UNK N   1      27.967  19.869   7.580  1.00  0.00     0.165 HD
ENDBRANCH   5  19
TORSDOF 3
ENDMDL
MODEL 8
REMARK VINA RESULT:      -6.3      7.169      9.013
REMARK  3 active torsions:
REMARK  status: ('A' for Active; 'I' for Inactive)
REMARK    1  A    between atoms: S_2  and  C_11 
REMARK    2  A    between atoms: C_9  and  C_10 
REMARK    3  A    between atoms: C_12  and  C_17 
ROOT
HETATM    1 Cl   UNK N   1      18.641  10.569  -0.375  0.00  0.00    -0.083 Cl
HETATM    2  N   UNK N   1      18.424  14.404   0.722  0.00  0.00    -0.363 N 
ATOM      3  HN  UNK N   1      17.695  15.115   0.782  1.00  0.00     0.165 HD
HETATM    4  C   UNK N   1      20.716  13.727   1.048  0.00  0.00     0.003 A 
HETATM    5  C   UNK N   1      19.701  14.739   1.075  0.00  0.00     0.055 A 
HETATM    6  C   UNK N   1      20.372  12.454   0.578  0.00  0.00     0.040 A 
HETATM    7  C   UNK N   1      19.065  12.169   0.194  0.00  0.00     0.050 A 
HETATM    8  C   UNK N   1      18.091  13.158   0.297  0.00  0.00     0.112 A 
ENDROOT
BRANCH   4   9
HETATM    9  C   UNK N   1      22.107  13.945   1.546  0.00  0.00    -0.024 A 
HETATM   10  C   UNK N   1      22.397  13.878   2.920  0.00  0.00     0.014 A 
HETATM   11  C   UNK N   1      23.660  14.205   3.405  0.00  0.00     0.024 A 
HETATM   12  C   UNK N   1      24.666  14.565   2.514  0.00  0.00     0.058 A 
HETATM   13  C   UNK N   1      24.419  14.549   1.135  0.00  0.00     0.024 A 
HETATM   14  C   UNK N   1      23.150  14.218   0.650  0.00  0.00     0.014 A 
BRANCH  12  15
HETATM   15  S   UNK N   1      26.173  15.290   3.139  0.00  0.00     0.171 S 
HETATM   16  O   UNK N   1      25.739  16.754   2.998  0.00  0.00    -0.223 OA
HETATM   17  O   UNK N   1      27.253  15.350   2.050  0.00  0.00    -0.223 OA
HETATM   18  C   UNK N   1      26.895  15.415   4.800  0.00  0.00     0.167 C 
ENDBRANCH  12  15
ENDBRANCH   4   9
BRANCH   5  19
HETATM   19  C   UNK N   1      19.981  16.169   1.391  0.00  0.00     0.007 A 
HETATM   20  C   UNK N   1      20.202  16.581   2.709  0.00  0.00     0.017 A 
HETATM   21  C   UNK N   1      20.499  17.921   2.980  0.00  0.00     0.025 A 
HETATM   22  C   UNK N   1      20.538  18.843   1.931  0.00  0.00     0.005 A 
HETATM   23  N   UNK N   1      20.255  18.445   0.666  0.00  0.00    -0.369 N 
HETATM   24  C   UNK N   1      20.890  20.262   2.194  0.00  0.00     0.068 C 
HETATM   25  C   UNK N   1      19.970  17.149   0.383  0.00  0.00     0.101 A 
ATOM     26  HN  UNK N   1      20.256  19.133  -0.088  1.00  0.00     0.165 HD
ENDBRANCH   5  19
TORSDOF 3
ENDMDL
MODEL 9
REMARK VINA RESULT:      -6.3      6.111      8.039
REMARK  3 active torsions:
REMARK  status: ('A' for Active; 'I' for Inactive)
REMARK    1  A    between atoms: S_2  and  C_11 
REMARK    2  A    between atoms: C_9  and  C_10 
REMARK    3  A    between atoms: C_12  and  C_17 
ROOT
HETATM    1 Cl   UNK N   1      38.924  12.872   5.541  0.00  0.00    -0.083 Cl
HETATM    2  N   UNK N   1      35.473  14.865   5.815  0.00  0.00    -0.363 N 
ATOM      3  HN  UNK N   1      34.811  15.288   5.165  1.00  0.00     0.165 HD
HETATM    4  C   UNK N   1      36.120  14.303   8.069  0.00  0.00     0.003 A 
HETATM    5  C   UNK N   1      35.223  14.947   7.156  0.00  0.00     0.055 A 
HETATM    6  C   UNK N   1      37.267  13.687   7.551  0.00  0.00     0.040 A 
HETATM    7  C   UNK N   1      37.498  13.661   6.179  0.00  0.00     0.050 A 
HETATM    8  C   UNK N   1      36.571  14.239   5.318  0.00  0.00     0.112 A 
ENDROOT
BRANCH   4   9
HETATM    9  C   UNK N   1      35.870  14.208   9.538  0.00  0.00    -0.024 A 
HETATM   10  C   UNK N   1      36.289  15.232  10.406  0.00  0.00     0.014 A 
HETATM   11  C   UNK N   1      36.176  15.096  11.787  0.00  0.00     0.024 A 
HETATM   12  C   UNK N   1      35.603  13.946  12.319  0.00  0.00     0.058 A 
HETATM   13  C   UNK N   1      35.098  12.956  11.466  0.00  0.00     0.024 A 
HETATM   14  C   UNK N   1      35.210  13.097  10.079  0.00  0.00     0.014 A 
BRANCH  12  15
HETATM   15  S   UNK N   1      35.748  13.623  14.069  0.00  0.00     0.171 S 
HETATM   16  O   UNK N   1      36.401  12.241  13.942  0.00  0.00    -0.223 OA
HETATM   17  O   UNK N   1      34.423  13.108  14.649  0.00  0.00    -0.223 OA
HETATM   18  C   UNK N   1      36.833  14.280  15.367  0.00  0.00     0.167 C 
ENDBRANCH  12  15
ENDBRANCH   4   9
BRANCH   5  19
HETATM   19  C   UNK N   1      34.066  15.778   7.597  0.00  0.00     0.007 A 
HETATM   20  C   UNK N   1      32.842  15.185   7.922  0.00  0.00     0.017 A 
HETATM   21  C   UNK N   1      31.780  15.979   8.368  0.00  0.00     0.025 A 
HETATM   22  C   UNK N   1      31.944  17.365   8.451  0.00  0.00     0.005 A 
HETATM   23  N   UNK N   1      33.113  17.935   8.068  0.00  0.00    -0.369 N 
HETATM   24  C   UNK N   1      30.841  18.220   8.959  0.00  0.00     0.068 C 
HETATM   25  C   UNK N   1      34.156  17.180   7.638  0.00  0.00     0.101 A 
ATOM     26  HN  UNK N   1      33.211  18.949   8.103  1.00  0.00     0.165 HD
ENDBRANCH   5  19
TORSDOF 3
ENDMDL
