REMARK  3 active torsions:
REMARK  status: ('A' for Active; 'I' for Inactive)
REMARK    1  A    between atoms: S_2  and  C_11 
REMARK    2  A    between atoms: C_9  and  C_10 
REMARK    3  A    between atoms: C_12  and  C_17 
ROOT
HETATM    1 Cl   UNK N   1       8.294  -4.917   0.231  0.00  0.00    -0.083 Cl
HETATM    2  N   UNK N   1       4.445  -3.849   0.205  0.00  0.00    -0.363 N 
ATOM      3  HN  UNK N   1       3.545  -4.329   0.215  1.00  0.00     0.165 HD
HETATM    4  C   UNK N   1       5.723  -1.804   0.209  0.00  0.00     0.003 A 
HETATM    5  C   UNK N   1       4.462  -2.483   0.163  0.00  0.00     0.055 A 
HETATM    6  C   UNK N   1       6.893  -2.574   0.208  0.00  0.00     0.040 A 
HETATM    7  C   UNK N   1       6.826  -3.964   0.213  0.00  0.00     0.050 A 
HETATM    8  C   UNK N   1       5.583  -4.589   0.236  0.00  0.00     0.112 A 
ENDROOT
BRANCH   4   9
HETATM    9  C   UNK N   1       5.854  -0.320   0.311  0.00  0.00    -0.024 A 
HETATM   10  C   UNK N   1       4.877   0.444   0.974  0.00  0.00     0.014 A 
HETATM   11  C   UNK N   1       4.923   1.835   0.964  0.00  0.00     0.024 A 
HETATM   12  C   UNK N   1       5.973   2.483   0.323  0.00  0.00     0.058 A 
HETATM   13  C   UNK N   1       7.003   1.737  -0.265  0.00  0.00     0.024 A 
HETATM   14  C   UNK N   1       6.956   0.339  -0.251  0.00  0.00     0.014 A 
BRANCH  12  15
HETATM   15  S   UNK N   1       5.870   4.241   0.028  0.00  0.00     0.171 S 
HETATM   16  O   UNK N   1       5.472   4.152  -1.450  0.00  0.00    -0.223 OA
HETATM   17  O   UNK N   1       7.259   4.843  -0.228  0.00  0.00    -0.223 OA
HETATM   18  C   UNK N   1       4.673   5.514   0.520  0.00  0.00     0.167 C 
ENDBRANCH  12  15
ENDBRANCH   4   9
BRANCH   5  19
HETATM   19  C   UNK N   1       3.160  -1.778  -0.011  0.00  0.00     0.007 A 
HETATM   20  C   UNK N   1       1.985  -2.297   0.543  0.00  0.00     0.017 A 
HETATM   21  C   UNK N   1       0.780  -1.601   0.399  0.00  0.00     0.025 A 
HETATM   22  C   UNK N   1       0.757  -0.408  -0.329  0.00  0.00     0.005 A 
HETATM   23  N   UNK N   1       1.889   0.050  -0.919  0.00  0.00    -0.369 N 
HETATM   24  C   UNK N   1      -0.505   0.365  -0.460  0.00  0.00     0.068 C 
HETATM   25  C   UNK N   1       3.068  -0.609  -0.786  0.00  0.00     0.101 A 
ATOM     26  HN  UNK N   1       1.854   0.905  -1.474  1.00  0.00     0.165 HD
ENDBRANCH   5  19
TORSDOF 3
