REMARK  7 active torsions:
REMARK  status: ('A' for Active; 'I' for Inactive)
REMARK    1  A    between atoms: O_5  and  C_14 
REMARK    2  A    between atoms: O_5  and  C_15 
REMARK    3  A    between atoms: O_6  and  C_16 
REMARK    4  A    between atoms: O_6  and  C_23 
REMARK       I    between atoms: N_8  and  C_21 
REMARK    5  A    between atoms: N_8  and  C_22 
REMARK    6  A    between atoms: C_11  and  C_14 
REMARK    7  A    between atoms: C_18  and  C_21 
ROOT
HETATM    1  C   UNK N   1       4.289  -2.611   0.103  0.00  0.00     0.103 A 
HETATM    2  C   UNK N   1       5.602  -3.109   0.028  0.00  0.00     0.108 A 
HETATM    3  C   UNK N   1       4.074  -1.219   0.089  0.00  0.00     0.056 A 
HETATM    4  C   UNK N   1       5.153  -0.329  -0.002  0.00  0.00     0.035 A 
HETATM    5  C   UNK N   1       6.678  -2.211  -0.053  0.00  0.00     0.041 A 
HETATM    6  C   UNK N   1       6.455  -0.837  -0.069  0.00  0.00     0.020 A 
ENDROOT
BRANCH   4   7
HETATM    7  C   UNK N   1       4.935   1.132  -0.009  0.00  0.00     0.256 C 
HETATM    8  O   UNK N   1       3.798   1.564   0.025  0.00  0.00    -0.267 OA
HETATM    9  N   UNK N   1       6.019   1.953  -0.037  0.00  0.00    -0.320 N 
HETATM   10  H   UNK N   1       6.861   1.444  -0.076  0.00  0.00     0.169 HD
BRANCH   9  11
HETATM   11  C   UNK N   1       6.255   3.371  -0.025  0.00  0.00     0.081 A 
HETATM   12  C   UNK N   1       7.610   3.761  -0.054  0.00  0.00     0.077 A 
HETATM   13 Cl   UNK N   1       8.897   2.563  -0.106  0.00  0.00    -0.080 Cl
HETATM   14  C   UNK N   1       7.961   5.107  -0.037  0.00  0.00     0.113 A 
HETATM   15  N   UNK N   1       7.004   6.063   0.005  0.00  0.00    -0.372 N 
HETATM   16  C   UNK N   1       5.688   5.740   0.033  0.00  0.00     0.113 A 
ATOM     17  HN  UNK N   1       7.279   7.045   0.017  1.00  0.00     0.164 HD
HETATM   18  C   UNK N   1       5.267   4.407   0.019  0.00  0.00     0.077 A 
HETATM   19 Cl   UNK N   1       3.528   4.200   0.062  0.00  0.00    -0.080 Cl
ENDBRANCH   9  11
ENDBRANCH   4   7
BRANCH   1  20
HETATM   20  O   UNK N   1       3.255  -3.485   0.217  0.00  0.00    -0.348 OA
BRANCH  20  21
HETATM   21  C   UNK N   1       1.971  -3.133   0.592  0.00  0.00     0.180 C 
BRANCH  21  22
HETATM   22  C   UNK N   1       1.250  -2.351  -0.491  0.00  0.00     0.010 A 
HETATM   23  C   UNK N   1      -0.183  -2.838  -0.573  0.00  0.00     0.007 A 
HETATM   24  C   UNK N   1       0.134  -1.560   0.165  0.00  0.00     0.007 A 
ENDBRANCH  21  22
ENDBRANCH  20  21
ENDBRANCH   1  20
BRANCH   2  25
HETATM   25  O   UNK N   1       5.809  -4.451   0.057  0.00  0.00    -0.287 OA
BRANCH  25  26
HETATM   26  C   UNK N   1       7.047  -5.042   0.227  0.00  0.00     0.505 C 
HETATM   27  F   UNK N   1       7.930  -4.644  -0.761  0.00  0.00    -0.184 F 
HETATM   28  F   UNK N   1       6.907  -6.415   0.182  0.00  0.00    -0.184 F 
ENDBRANCH  25  26
ENDBRANCH   2  25
TORSDOF 7
