MODEL 1
REMARK VINA RESULT:      -6.6      0.000      0.000
REMARK  7 active torsions:
REMARK  status: ('A' for Active; 'I' for Inactive)
REMARK    1  A    between atoms: O_5  and  C_14 
REMARK    2  A    between atoms: O_5  and  C_15 
REMARK    3  A    between atoms: O_6  and  C_16 
REMARK    4  A    between atoms: O_6  and  C_23 
REMARK       I    between atoms: N_8  and  C_21 
REMARK    5  A    between atoms: N_8  and  C_22 
REMARK    6  A    between atoms: C_11  and  C_14 
REMARK    7  A    between atoms: C_18  and  C_21 
ROOT
HETATM    1  C   UNK N   1      20.895  15.180   7.090  0.00  0.00     0.103 A 
HETATM    2  C   UNK N   1      20.107  16.341   7.185  0.00  0.00     0.108 A 
HETATM    3  C   UNK N   1      22.177  15.259   6.512  0.00  0.00     0.056 A 
HETATM    4  C   UNK N   1      22.673  16.480   6.034  0.00  0.00     0.035 A 
HETATM    5  C   UNK N   1      20.607  17.558   6.695  0.00  0.00     0.041 A 
HETATM    6  C   UNK N   1      21.876  17.626   6.128  0.00  0.00     0.020 A 
ENDROOT
BRANCH   4   7
HETATM    7  C   UNK N   1      24.013  16.567   5.419  0.00  0.00     0.256 C 
HETATM    8  O   UNK N   1      24.464  15.600   4.834  0.00  0.00    -0.267 OA
HETATM    9  N   UNK N   1      24.698  17.739   5.512  0.00  0.00    -0.320 N 
HETATM   10  H   UNK N   1      24.199  18.413   6.028  0.00  0.00     0.169 HD
BRANCH   9  11
HETATM   11  C   UNK N   1      25.962  18.248   5.054  0.00  0.00     0.081 A 
HETATM   12  C   UNK N   1      25.890  19.321   4.142  0.00  0.00     0.077 A 
HETATM   13 Cl   UNK N   1      24.337  19.968   3.626  0.00  0.00    -0.080 Cl
HETATM   14  C   UNK N   1      27.048  19.890   3.623  0.00  0.00     0.113 A 
HETATM   15  N   UNK N   1      28.264  19.423   3.990  0.00  0.00    -0.372 N 
HETATM   16  C   UNK N   1      28.387  18.395   4.865  0.00  0.00     0.113 A 
ATOM     17  HN  UNK N   1      29.103  19.852   3.600  1.00  0.00     0.164 HD
HETATM   18  C   UNK N   1      27.264  17.777   5.423  0.00  0.00     0.077 A 
HETATM   19 Cl   UNK N   1      27.635  16.469   6.528  0.00  0.00    -0.080 Cl
ENDBRANCH   9  11
ENDBRANCH   4   7
BRANCH   1  20
HETATM   20  O   UNK N   1      20.391  13.999   7.534  0.00  0.00    -0.348 OA
BRANCH  20  21
HETATM   21  C   UNK N   1      21.074  13.113   8.347  0.00  0.00     0.180 C 
BRANCH  21  22
HETATM   22  C   UNK N   1      21.231  13.636   9.763  0.00  0.00     0.010 A 
HETATM   23  C   UNK N   1      21.226  12.462  10.721  0.00  0.00     0.007 A 
HETATM   24  C   UNK N   1      22.535  13.098  10.321  0.00  0.00     0.007 A 
ENDBRANCH  21  22
ENDBRANCH  20  21
ENDBRANCH   1  20
BRANCH   2  25
HETATM   25  O   UNK N   1      18.865  16.261   7.729  0.00  0.00    -0.287 OA
BRANCH  25  26
HETATM   26  C   UNK N   1      18.558  16.639   9.023  0.00  0.00     0.505 C 
HETATM   27  F   UNK N   1      18.490  15.541   9.861  0.00  0.00    -0.184 F 
HETATM   28  F   UNK N   1      17.341  17.291   9.031  0.00  0.00    -0.184 F 
ENDBRANCH  25  26
ENDBRANCH   2  25
TORSDOF 7
ENDMDL
MODEL 2
REMARK VINA RESULT:      -6.5      0.795      1.986
REMARK  7 active torsions:
REMARK  status: ('A' for Active; 'I' for Inactive)
REMARK    1  A    between atoms: O_5  and  C_14 
REMARK    2  A    between atoms: O_5  and  C_15 
REMARK    3  A    between atoms: O_6  and  C_16 
REMARK    4  A    between atoms: O_6  and  C_23 
REMARK       I    between atoms: N_8  and  C_21 
REMARK    5  A    between atoms: N_8  and  C_22 
REMARK    6  A    between atoms: C_11  and  C_14 
REMARK    7  A    between atoms: C_18  and  C_21 
ROOT
HETATM    1  C   UNK N   1      20.912  14.985   7.622  0.00  0.00     0.103 A 
HETATM    2  C   UNK N   1      20.127  16.121   7.886  0.00  0.00     0.108 A 
HETATM    3  C   UNK N   1      22.033  15.098   6.777  0.00  0.00     0.056 A 
HETATM    4  C   UNK N   1      22.374  16.329   6.201  0.00  0.00     0.035 A 
HETATM    5  C   UNK N   1      20.469  17.349   7.297  0.00  0.00     0.041 A 
HETATM    6  C   UNK N   1      21.581  17.451   6.465  0.00  0.00     0.020 A 
ENDROOT
BRANCH   4   7
HETATM    7  C   UNK N   1      23.544  16.453   5.307  0.00  0.00     0.256 C 
HETATM    8  O   UNK N   1      23.603  15.763   4.306  0.00  0.00    -0.267 OA
HETATM    9  N   UNK N   1      24.515  17.350   5.625  0.00  0.00    -0.320 N 
HETATM   10  H   UNK N   1      24.320  17.814   6.471  0.00  0.00     0.169 HD
BRANCH   9  11
HETATM   11  C   UNK N   1      25.753  17.796   5.047  0.00  0.00     0.081 A 
HETATM   12  C   UNK N   1      26.894  17.045   5.400  0.00  0.00     0.077 A 
HETATM   13 Cl   UNK N   1      26.768  15.658   6.474  0.00  0.00    -0.080 Cl
HETATM   14  C   UNK N   1      28.149  17.388   4.908  0.00  0.00     0.113 A 
HETATM   15  N   UNK N   1      28.293  18.448   4.080  0.00  0.00    -0.372 N 
HETATM   16  C   UNK N   1      27.228  19.201   3.710  0.00  0.00     0.113 A 
ATOM     17  HN  UNK N   1      29.221  18.686   3.729  1.00  0.00     0.164 HD
HETATM   18  C   UNK N   1      25.940  18.912   4.168  0.00  0.00     0.077 A 
HETATM   19 Cl   UNK N   1      24.703  20.003   3.578  0.00  0.00    -0.080 Cl
ENDBRANCH   9  11
ENDBRANCH   4   7
BRANCH   1  20
HETATM   20  O   UNK N   1      20.555  13.792   8.167  0.00  0.00    -0.348 OA
BRANCH  20  21
HETATM   21  C   UNK N   1      21.447  12.870   8.684  0.00  0.00     0.180 C 
BRANCH  21  22
HETATM   22  C   UNK N   1      21.883  13.221  10.095  0.00  0.00     0.010 A 
HETATM   23  C   UNK N   1      21.220  12.262  11.064  0.00  0.00     0.007 A 
HETATM   24  C   UNK N   1      22.656  12.041  10.654  0.00  0.00     0.007 A 
ENDBRANCH  21  22
ENDBRANCH  20  21
ENDBRANCH   1  20
BRANCH   2  25
HETATM   25  O   UNK N   1      19.038  16.008   8.689  0.00  0.00    -0.287 OA
BRANCH  25  26
HETATM   26  C   UNK N   1      18.124  17.022   8.905  0.00  0.00     0.505 C 
HETATM   27  F   UNK N   1      18.595  17.928   9.838  0.00  0.00    -0.184 F 
HETATM   28  F   UNK N   1      16.939  16.479   9.361  0.00  0.00    -0.184 F 
ENDBRANCH  25  26
ENDBRANCH   2  25
TORSDOF 7
ENDMDL
MODEL 3
REMARK VINA RESULT:      -6.4      2.252      3.719
REMARK  7 active torsions:
REMARK  status: ('A' for Active; 'I' for Inactive)
REMARK    1  A    between atoms: O_5  and  C_14 
REMARK    2  A    between atoms: O_5  and  C_15 
REMARK    3  A    between atoms: O_6  and  C_16 
REMARK    4  A    between atoms: O_6  and  C_23 
REMARK       I    between atoms: N_8  and  C_21 
REMARK    5  A    between atoms: N_8  and  C_22 
REMARK    6  A    between atoms: C_11  and  C_14 
REMARK    7  A    between atoms: C_18  and  C_21 
ROOT
HETATM    1  C   UNK N   1      21.216  14.501   7.717  0.00  0.00     0.103 A 
HETATM    2  C   UNK N   1      21.887  13.403   8.285  0.00  0.00     0.108 A 
HETATM    3  C   UNK N   1      21.909  15.358   6.839  0.00  0.00     0.056 A 
HETATM    4  C   UNK N   1      23.255  15.125   6.525  0.00  0.00     0.035 A 
HETATM    5  C   UNK N   1      23.238  13.183   7.974  0.00  0.00     0.041 A 
HETATM    6  C   UNK N   1      23.913  14.033   7.103  0.00  0.00     0.020 A 
ENDROOT
BRANCH   4   7
HETATM    7  C   UNK N   1      23.990  16.024   5.612  0.00  0.00     0.256 C 
HETATM    8  O   UNK N   1      24.959  15.599   5.011  0.00  0.00    -0.267 OA
HETATM    9  N   UNK N   1      23.547  17.301   5.459  0.00  0.00    -0.320 N 
HETATM   10  H   UNK N   1      22.764  17.486   6.026  0.00  0.00     0.169 HD
BRANCH   9  11
HETATM   11  C   UNK N   1      23.927  18.452   4.685  0.00  0.00     0.081 A 
HETATM   12  C   UNK N   1      22.911  19.000   3.875  0.00  0.00     0.077 A 
HETATM   13 Cl   UNK N   1      21.299  18.299   3.844  0.00  0.00    -0.080 Cl
HETATM   14  C   UNK N   1      23.164  20.110   3.075  0.00  0.00     0.113 A 
HETATM   15  N   UNK N   1      24.391  20.681   3.066  0.00  0.00    -0.372 N 
HETATM   16  C   UNK N   1      25.401  20.192   3.827  0.00  0.00     0.113 A 
ATOM     17  HN  UNK N   1      24.559  21.494   2.473  1.00  0.00     0.164 HD
HETATM   18  C   UNK N   1      25.214  19.079   4.652  0.00  0.00     0.077 A 
HETATM   19 Cl   UNK N   1      26.639  18.603   5.552  0.00  0.00    -0.080 Cl
ENDBRANCH   9  11
ENDBRANCH   4   7
BRANCH   1  20
HETATM   20  O   UNK N   1      19.919  14.729   8.050  0.00  0.00    -0.348 OA
BRANCH  20  21
HETATM   21  C   UNK N   1      19.507  15.623   9.021  0.00  0.00     0.180 C 
BRANCH  21  22
HETATM   22  C   UNK N   1      18.852  16.856   8.426  0.00  0.00     0.010 A 
HETATM   23  C   UNK N   1      18.112  17.594   9.524  0.00  0.00     0.007 A 
HETATM   24  C   UNK N   1      19.470  18.078   9.079  0.00  0.00     0.007 A 
ENDBRANCH  21  22
ENDBRANCH  20  21
ENDBRANCH   1  20
BRANCH   2  25
HETATM   25  O   UNK N   1      21.223  12.587   9.143  0.00  0.00    -0.287 OA
BRANCH  25  26
HETATM   26  C   UNK N   1      21.338  12.648  10.519  0.00  0.00     0.505 C 
HETATM   27  F   UNK N   1      22.010  11.544  11.013  0.00  0.00    -0.184 F 
HETATM   28  F   UNK N   1      20.077  12.698  11.080  0.00  0.00    -0.184 F 
ENDBRANCH  25  26
ENDBRANCH   2  25
TORSDOF 7
ENDMDL
MODEL 4
REMARK VINA RESULT:      -6.3      1.411      3.430
REMARK  7 active torsions:
REMARK  status: ('A' for Active; 'I' for Inactive)
REMARK    1  A    between atoms: O_5  and  C_14 
REMARK    2  A    between atoms: O_5  and  C_15 
REMARK    3  A    between atoms: O_6  and  C_16 
REMARK    4  A    between atoms: O_6  and  C_23 
REMARK       I    between atoms: N_8  and  C_21 
REMARK    5  A    between atoms: N_8  and  C_22 
REMARK    6  A    between atoms: C_11  and  C_14 
REMARK    7  A    between atoms: C_18  and  C_21 
ROOT
HETATM    1  C   UNK N   1      21.075  14.970   6.793  0.00  0.00     0.103 A 
HETATM    2  C   UNK N   1      21.672  13.950   7.555  0.00  0.00     0.108 A 
HETATM    3  C   UNK N   1      21.870  15.740   5.923  0.00  0.00     0.056 A 
HETATM    4  C   UNK N   1      23.246  15.498   5.807  0.00  0.00     0.035 A 
HETATM    5  C   UNK N   1      23.052  13.719   7.440  0.00  0.00     0.041 A 
HETATM    6  C   UNK N   1      23.829  14.484   6.575  0.00  0.00     0.020 A 
ENDROOT
BRANCH   4   7
HETATM    7  C   UNK N   1      24.087  16.307   4.902  0.00  0.00     0.256 C 
HETATM    8  O   UNK N   1      23.916  16.226   3.700  0.00  0.00    -0.267 OA
HETATM    9  N   UNK N   1      25.020  17.135   5.444  0.00  0.00    -0.320 N 
HETATM   10  H   UNK N   1      25.037  17.070   6.427  0.00  0.00     0.169 HD
BRANCH   9  11
HETATM   11  C   UNK N   1      25.988  18.079   4.957  0.00  0.00     0.081 A 
HETATM   12  C   UNK N   1      27.323  17.832   5.339  0.00  0.00     0.077 A 
HETATM   13 Cl   UNK N   1      27.737  16.448   6.343  0.00  0.00    -0.080 Cl
HETATM   14  C   UNK N   1      28.346  18.683   4.934  0.00  0.00     0.113 A 
HETATM   15  N   UNK N   1      28.073  19.762   4.163  0.00  0.00    -0.372 N 
HETATM   16  C   UNK N   1      26.807  20.042   3.768  0.00  0.00     0.113 A 
ATOM     17  HN  UNK N   1      28.835  20.375   3.875  1.00  0.00     0.164 HD
HETATM   18  C   UNK N   1      25.733  19.228   4.141  0.00  0.00     0.077 A 
HETATM   19 Cl   UNK N   1      24.180  19.761   3.531  0.00  0.00    -0.080 Cl
ENDBRANCH   9  11
ENDBRANCH   4   7
BRANCH   1  20
HETATM   20  O   UNK N   1      19.745  15.211   6.936  0.00  0.00    -0.348 OA
BRANCH  20  21
HETATM   21  C   UNK N   1      19.208  16.417   7.348  0.00  0.00     0.180 C 
BRANCH  21  22
HETATM   22  C   UNK N   1      19.345  16.625   8.845  0.00  0.00     0.010 A 
HETATM   23  C   UNK N   1      19.437  18.112   9.125  0.00  0.00     0.007 A 
HETATM   24  C   UNK N   1      18.127  17.390   9.326  0.00  0.00     0.007 A 
ENDBRANCH  21  22
ENDBRANCH  20  21
ENDBRANCH   1  20
BRANCH   2  25
HETATM   25  O   UNK N   1      20.906  13.218   8.405  0.00  0.00    -0.287 OA
BRANCH  25  26
HETATM   26  C   UNK N   1      20.908  13.371   9.779  0.00  0.00     0.505 C 
HETATM   27  F   UNK N   1      19.621  13.495  10.269  0.00  0.00    -0.184 F 
HETATM   28  F   UNK N   1      21.630  14.501  10.111  0.00  0.00    -0.184 F 
ENDBRANCH  25  26
ENDBRANCH   2  25
TORSDOF 7
ENDMDL
MODEL 5
REMARK VINA RESULT:      -6.3     15.425     17.381
REMARK  7 active torsions:
REMARK  status: ('A' for Active; 'I' for Inactive)
REMARK    1  A    between atoms: O_5  and  C_14 
REMARK    2  A    between atoms: O_5  and  C_15 
REMARK    3  A    between atoms: O_6  and  C_16 
REMARK    4  A    between atoms: O_6  and  C_23 
REMARK       I    between atoms: N_8  and  C_21 
REMARK    5  A    between atoms: N_8  and  C_22 
REMARK    6  A    between atoms: C_11  and  C_14 
REMARK    7  A    between atoms: C_18  and  C_21 
ROOT
HETATM    1  C   UNK N   1      34.689   9.207  19.819  0.00  0.00     0.103 A 
HETATM    2  C   UNK N   1      34.673  10.286  20.721  0.00  0.00     0.108 A 
HETATM    3  C   UNK N   1      35.071   9.427  18.482  0.00  0.00     0.056 A 
HETATM    4  C   UNK N   1      35.438  10.707  18.043  0.00  0.00     0.035 A 
HETATM    5  C   UNK N   1      35.032  11.567  20.272  0.00  0.00     0.041 A 
HETATM    6  C   UNK N   1      35.411  11.774  18.948  0.00  0.00     0.020 A 
ENDROOT
BRANCH   4   7
HETATM    7  C   UNK N   1      35.832  10.946  16.640  0.00  0.00     0.256 C 
HETATM    8  O   UNK N   1      36.627  10.193  16.109  0.00  0.00    -0.267 OA
HETATM    9  N   UNK N   1      35.278  11.996  15.977  0.00  0.00    -0.320 N 
HETATM   10  H   UNK N   1      34.668  12.510  16.553  0.00  0.00     0.169 HD
BRANCH   9  11
HETATM   11  C   UNK N   1      35.353  12.551  14.653  0.00  0.00     0.081 A 
HETATM   12  C   UNK N   1      36.084  13.752  14.538  0.00  0.00     0.077 A 
HETATM   13 Cl   UNK N   1      36.845  14.487  15.944  0.00  0.00    -0.080 Cl
HETATM   14  C   UNK N   1      36.218  14.386  13.307  0.00  0.00     0.113 A 
HETATM   15  N   UNK N   1      35.648  13.857  12.200  0.00  0.00    -0.372 N 
HETATM   16  C   UNK N   1      34.936  12.705  12.257  0.00  0.00     0.113 A 
ATOM     17  HN  UNK N   1      35.756  14.335  11.305  1.00  0.00     0.164 HD
HETATM   18  C   UNK N   1      34.763  12.018  13.462  0.00  0.00     0.077 A 
HETATM   19 Cl   UNK N   1      33.810  10.553  13.326  0.00  0.00    -0.080 Cl
ENDBRANCH   9  11
ENDBRANCH   4   7
BRANCH   1  20
HETATM   20  O   UNK N   1      34.306   7.977  20.252  0.00  0.00    -0.348 OA
BRANCH  20  21
HETATM   21  C   UNK N   1      33.280   7.236  19.694  0.00  0.00     0.180 C 
BRANCH  21  22
HETATM   22  C   UNK N   1      32.043   7.213  20.574  0.00  0.00     0.010 A 
HETATM   23  C   UNK N   1      31.016   8.165  19.996  0.00  0.00     0.007 A 
HETATM   24  C   UNK N   1      30.888   6.682  19.746  0.00  0.00     0.007 A 
ENDBRANCH  21  22
ENDBRANCH  20  21
ENDBRANCH   1  20
BRANCH   2  25
HETATM   25  O   UNK N   1      34.289  10.076  22.006  0.00  0.00    -0.287 OA
BRANCH  25  26
HETATM   26  C   UNK N   1      32.993  10.225  22.464  0.00  0.00     0.505 C 
HETATM   27  F   UNK N   1      32.158  10.681  21.460  0.00  0.00    -0.184 F 
HETATM   28  F   UNK N   1      32.980  11.128  23.508  0.00  0.00    -0.184 F 
ENDBRANCH  25  26
ENDBRANCH   2  25
TORSDOF 7
ENDMDL
MODEL 6
REMARK VINA RESULT:      -6.2      6.334      9.796
REMARK  7 active torsions:
REMARK  status: ('A' for Active; 'I' for Inactive)
REMARK    1  A    between atoms: O_5  and  C_14 
REMARK    2  A    between atoms: O_5  and  C_15 
REMARK    3  A    between atoms: O_6  and  C_16 
REMARK    4  A    between atoms: O_6  and  C_23 
REMARK       I    between atoms: N_8  and  C_21 
REMARK    5  A    between atoms: N_8  and  C_22 
REMARK    6  A    between atoms: C_11  and  C_14 
REMARK    7  A    between atoms: C_18  and  C_21 
ROOT
HETATM    1  C   UNK N   1      31.017  16.730   7.124  0.00  0.00     0.103 A 
HETATM    2  C   UNK N   1      31.516  17.284   8.316  0.00  0.00     0.108 A 
HETATM    3  C   UNK N   1      29.786  17.185   6.611  0.00  0.00     0.056 A 
HETATM    4  C   UNK N   1      29.060  18.183   7.273  0.00  0.00     0.035 A 
HETATM    5  C   UNK N   1      30.778  18.277   8.979  0.00  0.00     0.041 A 
HETATM    6  C   UNK N   1      29.564  18.721   8.462  0.00  0.00     0.020 A 
ENDROOT
BRANCH   4   7
HETATM    7  C   UNK N   1      27.765  18.659   6.745  0.00  0.00     0.256 C 
HETATM    8  O   UNK N   1      27.371  19.770   7.047  0.00  0.00    -0.267 OA
HETATM    9  N   UNK N   1      27.057  17.841   5.919  0.00  0.00    -0.320 N 
HETATM   10  H   UNK N   1      27.509  16.976   5.788  0.00  0.00     0.169 HD
BRANCH   9  11
HETATM   11  C   UNK N   1      25.821  17.912   5.189  0.00  0.00     0.081 A 
HETATM   12  C   UNK N   1      24.943  16.825   5.376  0.00  0.00     0.077 A 
HETATM   13 Cl   UNK N   1      25.364  15.493   6.445  0.00  0.00    -0.080 Cl
HETATM   14  C   UNK N   1      23.720  16.779   4.714  0.00  0.00     0.113 A 
HETATM   15  N   UNK N   1      23.355  17.781   3.881  0.00  0.00    -0.372 N 
HETATM   16  C   UNK N   1      24.164  18.848   3.668  0.00  0.00     0.113 A 
ATOM     17  HN  UNK N   1      22.456  17.731   3.403  1.00  0.00     0.164 HD
HETATM   18  C   UNK N   1      25.406  18.956   4.301  0.00  0.00     0.077 A 
HETATM   19 Cl   UNK N   1      26.299  20.406   3.892  0.00  0.00    -0.080 Cl
ENDBRANCH   9  11
ENDBRANCH   4   7
BRANCH   1  20
HETATM   20  O   UNK N   1      31.719  15.745   6.507  0.00  0.00    -0.348 OA
BRANCH  20  21
HETATM   21  C   UNK N   1      31.912  15.660   5.139  0.00  0.00     0.180 C 
BRANCH  21  22
HETATM   22  C   UNK N   1      32.946  16.653   4.642  0.00  0.00     0.010 A 
HETATM   23  C   UNK N   1      33.059  16.527   3.136  0.00  0.00     0.007 A 
HETATM   24  C   UNK N   1      32.245  17.647   3.736  0.00  0.00     0.007 A 
ENDBRANCH  21  22
ENDBRANCH  20  21
ENDBRANCH   1  20
BRANCH   2  25
HETATM   25  O   UNK N   1      32.695  16.834   8.818  0.00  0.00    -0.287 OA
BRANCH  25  26
HETATM   26  C   UNK N   1      33.930  17.361   8.490  0.00  0.00     0.505 C 
HETATM   27  F   UNK N   1      34.776  17.370   9.585  0.00  0.00    -0.184 F 
HETATM   28  F   UNK N   1      33.768  18.655   8.035  0.00  0.00    -0.184 F 
ENDBRANCH  25  26
ENDBRANCH   2  25
TORSDOF 7
ENDMDL
MODEL 7
REMARK VINA RESULT:      -6.2      4.132      7.567
REMARK  7 active torsions:
REMARK  status: ('A' for Active; 'I' for Inactive)
REMARK    1  A    between atoms: O_5  and  C_14 
REMARK    2  A    between atoms: O_5  and  C_15 
REMARK    3  A    between atoms: O_6  and  C_16 
REMARK    4  A    between atoms: O_6  and  C_23 
REMARK       I    between atoms: N_8  and  C_21 
REMARK    5  A    between atoms: N_8  and  C_22 
REMARK    6  A    between atoms: C_11  and  C_14 
REMARK    7  A    between atoms: C_18  and  C_21 
ROOT
HETATM    1  C   UNK N   1      22.760  18.094   5.212  0.00  0.00     0.103 A 
HETATM    2  C   UNK N   1      21.524  18.452   4.644  0.00  0.00     0.108 A 
HETATM    3  C   UNK N   1      22.904  16.830   5.817  0.00  0.00     0.056 A 
HETATM    4  C   UNK N   1      21.833  15.927   5.853  0.00  0.00     0.035 A 
HETATM    5  C   UNK N   1      20.453  17.546   4.694  0.00  0.00     0.041 A 
HETATM    6  C   UNK N   1      20.606  16.298   5.291  0.00  0.00     0.020 A 
ENDROOT
BRANCH   4   7
HETATM    7  C   UNK N   1      21.975  14.603   6.492  0.00  0.00     0.256 C 
HETATM    8  O   UNK N   1      22.056  13.611   5.793  0.00  0.00    -0.267 OA
HETATM    9  N   UNK N   1      22.029  14.537   7.850  0.00  0.00    -0.320 N 
HETATM   10  H   UNK N   1      21.936  15.426   8.262  0.00  0.00     0.169 HD
BRANCH   9  11
HETATM   11  C   UNK N   1      22.185  13.505   8.839  0.00  0.00     0.081 A 
HETATM   12  C   UNK N   1      21.144  13.410   9.786  0.00  0.00     0.077 A 
HETATM   13 Cl   UNK N   1      19.762  14.496   9.725  0.00  0.00    -0.080 Cl
HETATM   14  C   UNK N   1      21.190  12.455  10.797  0.00  0.00     0.113 A 
HETATM   15  N   UNK N   1      22.236  11.600  10.883  0.00  0.00    -0.372 N 
HETATM   16  C   UNK N   1      23.260  11.650   9.996  0.00  0.00     0.113 A 
ATOM     17  HN  UNK N   1      22.254  10.906  11.630  1.00  0.00     0.164 HD
HETATM   18  C   UNK N   1      23.277  12.586   8.958  0.00  0.00     0.077 A 
HETATM   19 Cl   UNK N   1      24.687  12.489   7.923  0.00  0.00    -0.080 Cl
ENDBRANCH   9  11
ENDBRANCH   4   7
BRANCH   1  20
HETATM   20  O   UNK N   1      23.781  18.989   5.192  0.00  0.00    -0.348 OA
BRANCH  20  21
HETATM   21  C   UNK N   1      24.919  18.861   4.416  0.00  0.00     0.180 C 
BRANCH  21  22
HETATM   22  C   UNK N   1      25.757  20.126   4.411  0.00  0.00     0.010 A 
HETATM   23  C   UNK N   1      27.094  19.823   3.764  0.00  0.00     0.007 A 
HETATM   24  C   UNK N   1      26.014  20.513   2.966  0.00  0.00     0.007 A 
ENDBRANCH  21  22
ENDBRANCH  20  21
ENDBRANCH   1  20
BRANCH   2  25
HETATM   25  O   UNK N   1      21.381  19.677   4.076  0.00  0.00    -0.287 OA
BRANCH  25  26
HETATM   26  C   UNK N   1      21.551  19.932   2.728  0.00  0.00     0.505 C 
HETATM   27  F   UNK N   1      22.732  20.613   2.493  0.00  0.00    -0.184 F 
HETATM   28  F   UNK N   1      20.493  20.692   2.270  0.00  0.00    -0.184 F 
ENDBRANCH  25  26
ENDBRANCH   2  25
TORSDOF 7
ENDMDL
MODEL 8
REMARK VINA RESULT:      -6.2      3.693      5.535
REMARK  7 active torsions:
REMARK  status: ('A' for Active; 'I' for Inactive)
REMARK    1  A    between atoms: O_5  and  C_14 
REMARK    2  A    between atoms: O_5  and  C_15 
REMARK    3  A    between atoms: O_6  and  C_16 
REMARK    4  A    between atoms: O_6  and  C_23 
REMARK       I    between atoms: N_8  and  C_21 
REMARK    5  A    between atoms: N_8  and  C_22 
REMARK    6  A    between atoms: C_11  and  C_14 
REMARK    7  A    between atoms: C_18  and  C_21 
ROOT
HETATM    1  C   UNK N   1      23.666  18.562   4.424  0.00  0.00     0.103 A 
HETATM    2  C   UNK N   1      23.324  19.537   3.470  0.00  0.00     0.108 A 
HETATM    3  C   UNK N   1      24.995  18.481   4.886  0.00  0.00     0.056 A 
HETATM    4  C   UNK N   1      25.974  19.363   4.407  0.00  0.00     0.035 A 
HETATM    5  C   UNK N   1      24.312  20.410   2.989  0.00  0.00     0.041 A 
HETATM    6  C   UNK N   1      25.621  20.324   3.453  0.00  0.00     0.020 A 
ENDROOT
BRANCH   4   7
HETATM    7  C   UNK N   1      27.370  19.278   4.881  0.00  0.00     0.256 C 
HETATM    8  O   UNK N   1      28.133  20.198   4.652  0.00  0.00    -0.267 OA
HETATM    9  N   UNK N   1      27.757  18.175   5.577  0.00  0.00    -0.320 N 
HETATM   10  H   UNK N   1      27.025  17.522   5.662  0.00  0.00     0.169 HD
BRANCH   9  11
HETATM   11  C   UNK N   1      28.957  17.714   6.220  0.00  0.00     0.081 A 
HETATM   12  C   UNK N   1      29.886  17.067   5.379  0.00  0.00     0.077 A 
HETATM   13 Cl   UNK N   1      29.564  16.861   3.662  0.00  0.00    -0.080 Cl
HETATM   14  C   UNK N   1      31.081  16.571   5.891  0.00  0.00     0.113 A 
HETATM   15  N   UNK N   1      31.370  16.705   7.206  0.00  0.00    -0.372 N 
HETATM   16  C   UNK N   1      30.511  17.320   8.055  0.00  0.00     0.113 A 
ATOM     17  HN  UNK N   1      32.250  16.336   7.564  1.00  0.00     0.164 HD
HETATM   18  C   UNK N   1      29.293  17.840   7.606  0.00  0.00     0.077 A 
HETATM   19 Cl   UNK N   1      28.326  18.593   8.858  0.00  0.00    -0.080 Cl
ENDBRANCH   9  11
ENDBRANCH   4   7
BRANCH   1  20
HETATM   20  O   UNK N   1      22.713  17.697   4.859  0.00  0.00    -0.348 OA
BRANCH  20  21
HETATM   21  C   UNK N   1      22.004  17.843   6.038  0.00  0.00     0.180 C 
BRANCH  21  22
HETATM   22  C   UNK N   1      21.004  16.721   6.249  0.00  0.00     0.010 A 
HETATM   23  C   UNK N   1      21.466  15.867   7.413  0.00  0.00     0.007 A 
HETATM   24  C   UNK N   1      20.384  16.898   7.623  0.00  0.00     0.007 A 
ENDBRANCH  21  22
ENDBRANCH  20  21
ENDBRANCH   1  20
BRANCH   2  25
HETATM   25  O   UNK N   1      22.046  19.604   3.014  0.00  0.00    -0.287 OA
BRANCH  25  26
HETATM   26  C   UNK N   1      21.464  20.747   2.500  0.00  0.00     0.505 C 
HETATM   27  F   UNK N   1      20.372  21.135   3.255  0.00  0.00    -0.184 F 
HETATM   28  F   UNK N   1      21.055  20.507   1.203  0.00  0.00    -0.184 F 
ENDBRANCH  25  26
ENDBRANCH   2  25
TORSDOF 7
ENDMDL
MODEL 9
REMARK VINA RESULT:      -6.1      4.479      7.208
REMARK  7 active torsions:
REMARK  status: ('A' for Active; 'I' for Inactive)
REMARK    1  A    between atoms: O_5  and  C_14 
REMARK    2  A    between atoms: O_5  and  C_15 
REMARK    3  A    between atoms: O_6  and  C_16 
REMARK    4  A    between atoms: O_6  and  C_23 
REMARK       I    between atoms: N_8  and  C_21 
REMARK    5  A    between atoms: N_8  and  C_22 
REMARK    6  A    between atoms: C_11  and  C_14 
REMARK    7  A    between atoms: C_18  and  C_21 
ROOT
HETATM    1  C   UNK N   1      21.280  16.524   3.862  0.00  0.00     0.103 A 
HETATM    2  C   UNK N   1      21.337  17.842   4.349  0.00  0.00     0.108 A 
HETATM    3  C   UNK N   1      21.233  15.450   4.772  0.00  0.00     0.056 A 
HETATM    4  C   UNK N   1      21.238  15.683   6.155  0.00  0.00     0.035 A 
HETATM    5  C   UNK N   1      21.352  18.066   5.735  0.00  0.00     0.041 A 
HETATM    6  C   UNK N   1      21.301  16.999   6.626  0.00  0.00     0.020 A 
ENDROOT
BRANCH   4   7
HETATM    7  C   UNK N   1      21.196  14.561   7.115  0.00  0.00     0.256 C 
HETATM    8  O   UNK N   1      20.293  13.750   7.043  0.00  0.00    -0.267 OA
HETATM    9  N   UNK N   1      22.184  14.462   8.044  0.00  0.00    -0.320 N 
HETATM   10  H   UNK N   1      22.827  15.204   7.974  0.00  0.00     0.169 HD
BRANCH   9  11
HETATM   11  C   UNK N   1      22.534  13.554   9.103  0.00  0.00     0.081 A 
HETATM   12  C   UNK N   1      23.864  13.087   9.088  0.00  0.00     0.077 A 
HETATM   13 Cl   UNK N   1      24.993  13.607   7.843  0.00  0.00    -0.080 Cl
HETATM   14  C   UNK N   1      24.315  12.198  10.058  0.00  0.00     0.113 A 
HETATM   15  N   UNK N   1      23.480  11.769  11.033  0.00  0.00    -0.372 N 
HETATM   16  C   UNK N   1      22.193  12.189  11.092  0.00  0.00     0.113 A 
ATOM     17  HN  UNK N   1      23.827  11.117  11.737  1.00  0.00     0.164 HD
HETATM   18  C   UNK N   1      21.677  13.082  10.149  0.00  0.00     0.077 A 
HETATM   19 Cl   UNK N   1      19.994  13.500  10.398  0.00  0.00    -0.080 Cl
ENDBRANCH   9  11
ENDBRANCH   4   7
BRANCH   1  20
HETATM   20  O   UNK N   1      21.303  16.312   2.520  0.00  0.00    -0.348 OA
BRANCH  20  21
HETATM   21  C   UNK N   1      20.186  16.026   1.755  0.00  0.00     0.180 C 
BRANCH  21  22
HETATM   22  C   UNK N   1      20.337  14.728   0.982  0.00  0.00     0.010 A 
HETATM   23  C   UNK N   1      19.644  13.620   1.749  0.00  0.00     0.007 A 
HETATM   24  C   UNK N   1      18.952  14.263   0.572  0.00  0.00     0.007 A 
ENDBRANCH  21  22
ENDBRANCH  20  21
ENDBRANCH   1  20
BRANCH   2  25
HETATM   25  O   UNK N   1      21.398  18.876   3.470  0.00  0.00    -0.287 OA
BRANCH  25  26
HETATM   26  C   UNK N   1      20.330  19.696   3.161  0.00  0.00     0.505 C 
HETATM   27  F   UNK N   1      19.177  18.959   2.955  0.00  0.00    -0.184 F 
HETATM   28  F   UNK N   1      20.620  20.412   2.017  0.00  0.00    -0.184 F 
ENDBRANCH  25  26
ENDBRANCH   2  25
TORSDOF 7
ENDMDL
