MODEL 1
REMARK VINA RESULT:      -4.4      0.000      0.000
REMARK  15 active torsions:
REMARK  status: ('A' for Active; 'I' for Inactive)
REMARK    1  A    between atoms: C_2  and  C_3 
REMARK    2  A    between atoms: C_3  and  C_4 
REMARK    3  A    between atoms: C_4  and  C_5 
REMARK    4  A    between atoms: C_5  and  C_6 
REMARK    5  A    between atoms: C_6  and  C_7 
REMARK    6  A    between atoms: C_7  and  C_8 
REMARK    7  A    between atoms: C_8  and  C_9 
REMARK    8  A    between atoms: C_9  and  C_10 
REMARK    9  A    between atoms: C_10  and  C_11 
REMARK   10  A    between atoms: C_11  and  C_12 
REMARK   11  A    between atoms: C_12  and  C_13 
REMARK   12  A    between atoms: C_13  and  C_14 
REMARK   13  A    between atoms: C_14  and  C_15 
REMARK   14  A    between atoms: C_15  and  C_16 
REMARK   15  A    between atoms: C_16  and  N_17 
ROOT
HETATM    1  C   UNK N   1      25.630  25.258  -6.378  0.00  0.00     0.000 C 
ENDROOT
BRANCH   1   2
HETATM    2  C   UNK N   1      26.708  24.436  -5.700  0.00  0.00     0.000 C 
BRANCH   2   3
HETATM    3  C   UNK N   1      26.298  24.160  -4.268  0.00  0.00     0.000 C 
BRANCH   3   4
HETATM    4  C   UNK N   1      27.490  24.314  -3.347  0.00  0.00     0.000 C 
BRANCH   4   5
HETATM    5  C   UNK N   1      28.753  24.044  -4.138  0.00  0.00     0.000 C 
BRANCH   5   6
HETATM    6  C   UNK N   1      29.974  24.205  -3.257  0.00  0.00     0.000 C 
BRANCH   6   7
HETATM    7  C   UNK N   1      30.079  22.995  -2.352  0.00  0.00     0.000 C 
BRANCH   7   8
HETATM    8  C   UNK N   1      30.139  21.729  -3.180  0.00  0.00    -0.000 C 
BRANCH   8   9
HETATM    9  C   UNK N   1      31.588  21.397  -3.471  0.00  0.00    -0.005 C 
HETATM   10  C   UNK N   1      31.660  20.313  -4.526  0.00  0.00     0.005 C 
ENDBRANCH   8   9
ENDBRANCH   7   8
ENDBRANCH   6   7
ENDBRANCH   5   6
ENDBRANCH   4   5
ENDBRANCH   3   4
ENDBRANCH   2   3
ENDBRANCH   1   2
BRANCH   1  11
HETATM   11  C   UNK N   1      26.221  26.495  -7.024  0.00  0.00     0.000 C 
BRANCH  11  12
HETATM   12  C   UNK N   1      26.463  27.533  -5.947  0.00  0.00     0.000 C 
BRANCH  12  13
HETATM   13  C   UNK N   1      25.253  27.644  -5.039  0.00  0.00     0.000 C 
BRANCH  13  14
HETATM   14  C   UNK N   1      25.708  27.848  -3.605  0.00  0.00     0.002 C 
BRANCH  14  15
HETATM   15  C   UNK N   1      27.216  28.010  -3.544  0.00  0.00     0.028 C 
BRANCH  15  16
HETATM   16  C   UNK N   1      27.568  29.138  -2.572  0.00  0.00     0.236 C 
BRANCH  16  17
HETATM   17  N   UNK N   1      28.980  29.511  -2.607  0.00  0.00    -0.079 N 
HETATM   18  C   UNK N   1      29.799  28.455  -3.188  0.00  0.00     0.271 C 
HETATM   19  C   UNK N   1      29.119  30.696  -3.431  0.00  0.00     0.271 C 
HETATM   20  C   UNK N   1      29.468  29.828  -1.271  0.00  0.00     0.271 C 
ENDBRANCH  16  17
ENDBRANCH  15  16
ENDBRANCH  14  15
ENDBRANCH  13  14
ENDBRANCH  12  13
ENDBRANCH  11  12
ENDBRANCH   1  11
TORSDOF 15
ENDMDL
MODEL 2
REMARK VINA RESULT:      -4.3     11.916     15.575
REMARK  15 active torsions:
REMARK  status: ('A' for Active; 'I' for Inactive)
REMARK    1  A    between atoms: C_2  and  C_3 
REMARK    2  A    between atoms: C_3  and  C_4 
REMARK    3  A    between atoms: C_4  and  C_5 
REMARK    4  A    between atoms: C_5  and  C_6 
REMARK    5  A    between atoms: C_6  and  C_7 
REMARK    6  A    between atoms: C_7  and  C_8 
REMARK    7  A    between atoms: C_8  and  C_9 
REMARK    8  A    between atoms: C_9  and  C_10 
REMARK    9  A    between atoms: C_10  and  C_11 
REMARK   10  A    between atoms: C_11  and  C_12 
REMARK   11  A    between atoms: C_12  and  C_13 
REMARK   12  A    between atoms: C_13  and  C_14 
REMARK   13  A    between atoms: C_14  and  C_15 
REMARK   14  A    between atoms: C_15  and  C_16 
REMARK   15  A    between atoms: C_16  and  N_17 
ROOT
HETATM    1  C   UNK N   1      31.328  16.299   4.304  0.00  0.00     0.000 C 
ENDROOT
BRANCH   1   2
HETATM    2  C   UNK N   1      30.642  17.291   5.223  0.00  0.00     0.000 C 
BRANCH   2   3
HETATM    3  C   UNK N   1      29.994  16.542   6.369  0.00  0.00     0.000 C 
BRANCH   3   4
HETATM    4  C   UNK N   1      29.735  17.484   7.526  0.00  0.00     0.000 C 
BRANCH   4   5
HETATM    5  C   UNK N   1      28.241  17.559   7.765  0.00  0.00     0.000 C 
BRANCH   5   6
HETATM    6  C   UNK N   1      27.577  18.409   6.702  0.00  0.00     0.000 C 
BRANCH   6   7
HETATM    7  C   UNK N   1      27.891  19.865   6.982  0.00  0.00     0.000 C 
BRANCH   7   8
HETATM    8  C   UNK N   1      27.538  20.715   5.780  0.00  0.00    -0.000 C 
BRANCH   8   9
HETATM    9  C   UNK N   1      27.820  19.926   4.518  0.00  0.00    -0.005 C 
HETATM   10  C   UNK N   1      26.718  20.169   3.508  0.00  0.00     0.005 C 
ENDBRANCH   8   9
ENDBRANCH   7   8
ENDBRANCH   6   7
ENDBRANCH   5   6
ENDBRANCH   4   5
ENDBRANCH   3   4
ENDBRANCH   2   3
ENDBRANCH   1   2
BRANCH   1  11
HETATM   11  C   UNK N   1      32.803  16.188   4.636  0.00  0.00     0.000 C 
BRANCH  11  12
HETATM   12  C   UNK N   1      33.275  17.515   5.191  0.00  0.00     0.000 C 
BRANCH  12  13
HETATM   13  C   UNK N   1      34.084  17.301   6.456  0.00  0.00     0.000 C 
BRANCH  13  14
HETATM   14  C   UNK N   1      33.468  18.093   7.596  0.00  0.00     0.002 C 
BRANCH  14  15
HETATM   15  C   UNK N   1      33.164  17.184   8.772  0.00  0.00     0.028 C 
BRANCH  15  16
HETATM   16  C   UNK N   1      34.474  16.698   9.394  0.00  0.00     0.236 C 
BRANCH  16  17
HETATM   17  N   UNK N   1      34.484  15.264   9.674  0.00  0.00    -0.079 N 
HETATM   18  C   UNK N   1      34.464  14.998  11.107  0.00  0.00     0.271 C 
HETATM   19  C   UNK N   1      33.294  14.676   9.089  0.00  0.00     0.271 C 
HETATM   20  C   UNK N   1      35.648  14.624   9.075  0.00  0.00     0.271 C 
ENDBRANCH  16  17
ENDBRANCH  15  16
ENDBRANCH  14  15
ENDBRANCH  13  14
ENDBRANCH  12  13
ENDBRANCH  11  12
ENDBRANCH   1  11
TORSDOF 15
ENDMDL
MODEL 3
REMARK VINA RESULT:      -4.2     10.615     13.889
REMARK  15 active torsions:
REMARK  status: ('A' for Active; 'I' for Inactive)
REMARK    1  A    between atoms: C_2  and  C_3 
REMARK    2  A    between atoms: C_3  and  C_4 
REMARK    3  A    between atoms: C_4  and  C_5 
REMARK    4  A    between atoms: C_5  and  C_6 
REMARK    5  A    between atoms: C_6  and  C_7 
REMARK    6  A    between atoms: C_7  and  C_8 
REMARK    7  A    between atoms: C_8  and  C_9 
REMARK    8  A    between atoms: C_9  and  C_10 
REMARK    9  A    between atoms: C_10  and  C_11 
REMARK   10  A    between atoms: C_11  and  C_12 
REMARK   11  A    between atoms: C_12  and  C_13 
REMARK   12  A    between atoms: C_13  and  C_14 
REMARK   13  A    between atoms: C_14  and  C_15 
REMARK   14  A    between atoms: C_15  and  C_16 
REMARK   15  A    between atoms: C_16  and  N_17 
ROOT
HETATM    1  C   UNK N   1      28.054  19.319   6.744  0.00  0.00     0.000 C 
ENDROOT
BRANCH   1   2
HETATM    2  C   UNK N   1      27.094  20.491   6.801  0.00  0.00     0.000 C 
BRANCH   2   3
HETATM    3  C   UNK N   1      27.073  21.184   5.454  0.00  0.00     0.000 C 
BRANCH   3   4
HETATM    4  C   UNK N   1      27.323  20.180   4.348  0.00  0.00     0.000 C 
BRANCH   4   5
HETATM    5  C   UNK N   1      26.069  20.061   3.508  0.00  0.00     0.000 C 
BRANCH   5   6
HETATM    6  C   UNK N   1      25.632  18.615   3.410  0.00  0.00     0.000 C 
BRANCH   6   7
HETATM    7  C   UNK N   1      24.967  18.223   4.713  0.00  0.00     0.000 C 
BRANCH   7   8
HETATM    8  C   UNK N   1      25.551  16.924   5.227  0.00  0.00    -0.000 C 
BRANCH   8   9
HETATM    9  C   UNK N   1      26.697  16.508   4.327  0.00  0.00    -0.005 C 
HETATM   10  C   UNK N   1      27.836  15.972   5.167  0.00  0.00     0.005 C 
ENDBRANCH   8   9
ENDBRANCH   7   8
ENDBRANCH   6   7
ENDBRANCH   5   6
ENDBRANCH   4   5
ENDBRANCH   3   4
ENDBRANCH   2   3
ENDBRANCH   1   2
BRANCH   1  11
HETATM   11  C   UNK N   1      28.085  18.582   8.068  0.00  0.00     0.000 C 
BRANCH  11  12
HETATM   12  C   UNK N   1      29.327  17.716   8.109  0.00  0.00     0.000 C 
BRANCH  12  13
HETATM   13  C   UNK N   1      30.374  18.336   9.015  0.00  0.00     0.000 C 
BRANCH  13  14
HETATM   14  C   UNK N   1      31.761  18.018   8.484  0.00  0.00     0.002 C 
BRANCH  14  15
HETATM   15  C   UNK N   1      31.677  17.024   7.340  0.00  0.00     0.028 C 
BRANCH  15  16
HETATM   16  C   UNK N   1      32.804  17.299   6.343  0.00  0.00     0.236 C 
BRANCH  16  17
HETATM   17  N   UNK N   1      32.680  16.532   5.106  0.00  0.00    -0.079 N 
HETATM   18  C   UNK N   1      31.584  15.574   5.176  0.00  0.00     0.271 C 
HETATM   19  C   UNK N   1      32.405  17.455   4.022  0.00  0.00     0.271 C 
HETATM   20  C   UNK N   1      33.921  15.832   4.801  0.00  0.00     0.271 C 
ENDBRANCH  16  17
ENDBRANCH  15  16
ENDBRANCH  14  15
ENDBRANCH  13  14
ENDBRANCH  12  13
ENDBRANCH  11  12
ENDBRANCH   1  11
TORSDOF 15
ENDMDL
MODEL 4
REMARK VINA RESULT:      -4.2      2.426      6.467
REMARK  15 active torsions:
REMARK  status: ('A' for Active; 'I' for Inactive)
REMARK    1  A    between atoms: C_2  and  C_3 
REMARK    2  A    between atoms: C_3  and  C_4 
REMARK    3  A    between atoms: C_4  and  C_5 
REMARK    4  A    between atoms: C_5  and  C_6 
REMARK    5  A    between atoms: C_6  and  C_7 
REMARK    6  A    between atoms: C_7  and  C_8 
REMARK    7  A    between atoms: C_8  and  C_9 
REMARK    8  A    between atoms: C_9  and  C_10 
REMARK    9  A    between atoms: C_10  and  C_11 
REMARK   10  A    between atoms: C_11  and  C_12 
REMARK   11  A    between atoms: C_12  and  C_13 
REMARK   12  A    between atoms: C_13  and  C_14 
REMARK   13  A    between atoms: C_14  and  C_15 
REMARK   14  A    between atoms: C_15  and  C_16 
REMARK   15  A    between atoms: C_16  and  N_17 
ROOT
HETATM    1  C   UNK N   1      27.233  24.803  -7.161  0.00  0.00     0.000 C 
ENDROOT
BRANCH   1   2
HETATM    2  C   UNK N   1      25.873  25.130  -6.577  0.00  0.00     0.000 C 
BRANCH   2   3
HETATM    3  C   UNK N   1      25.580  26.601  -6.791  0.00  0.00     0.000 C 
BRANCH   3   4
HETATM    4  C   UNK N   1      24.739  27.135  -5.651  0.00  0.00     0.000 C 
BRANCH   4   5
HETATM    5  C   UNK N   1      25.578  27.141  -4.391  0.00  0.00     0.000 C 
BRANCH   5   6
HETATM    6  C   UNK N   1      25.977  28.556  -4.027  0.00  0.00     0.000 C 
BRANCH   6   7
HETATM    7  C   UNK N   1      27.455  28.729  -4.312  0.00  0.00     0.000 C 
BRANCH   7   8
HETATM    8  C   UNK N   1      27.650  29.566  -5.559  0.00  0.00    -0.000 C 
BRANCH   8   9
HETATM    9  C   UNK N   1      28.487  28.785  -6.551  0.00  0.00    -0.005 C 
HETATM   10  C   UNK N   1      29.152  27.619  -5.852  0.00  0.00     0.005 C 
ENDBRANCH   8   9
ENDBRANCH   7   8
ENDBRANCH   6   7
ENDBRANCH   5   6
ENDBRANCH   4   5
ENDBRANCH   3   4
ENDBRANCH   2   3
ENDBRANCH   1   2
BRANCH   1  11
HETATM   11  C   UNK N   1      28.021  23.907  -6.226  0.00  0.00     0.000 C 
BRANCH  11  12
HETATM   12  C   UNK N   1      27.386  23.967  -4.852  0.00  0.00     0.000 C 
BRANCH  12  13
HETATM   13  C   UNK N   1      28.357  24.556  -3.846  0.00  0.00     0.000 C 
BRANCH  13  14
HETATM   14  C   UNK N   1      28.664  23.528  -2.771  0.00  0.00     0.002 C 
BRANCH  14  15
HETATM   15  C   UNK N   1      30.135  23.157  -2.796  0.00  0.00     0.028 C 
BRANCH  15  16
HETATM   16  C   UNK N   1      30.293  21.736  -3.339  0.00  0.00     0.236 C 
BRANCH  16  17
HETATM   17  N   UNK N   1      31.566  21.516  -4.022  0.00  0.00    -0.079 N 
HETATM   18  C   UNK N   1      31.912  22.638  -4.886  0.00  0.00     0.271 C 
HETATM   19  C   UNK N   1      32.605  21.380  -3.020  0.00  0.00     0.271 C 
HETATM   20  C   UNK N   1      31.530  20.290  -4.808  0.00  0.00     0.271 C 
ENDBRANCH  16  17
ENDBRANCH  15  16
ENDBRANCH  14  15
ENDBRANCH  13  14
ENDBRANCH  12  13
ENDBRANCH  11  12
ENDBRANCH   1  11
TORSDOF 15
ENDMDL
MODEL 5
REMARK VINA RESULT:      -4.2      2.962      7.301
REMARK  15 active torsions:
REMARK  status: ('A' for Active; 'I' for Inactive)
REMARK    1  A    between atoms: C_2  and  C_3 
REMARK    2  A    between atoms: C_3  and  C_4 
REMARK    3  A    between atoms: C_4  and  C_5 
REMARK    4  A    between atoms: C_5  and  C_6 
REMARK    5  A    between atoms: C_6  and  C_7 
REMARK    6  A    between atoms: C_7  and  C_8 
REMARK    7  A    between atoms: C_8  and  C_9 
REMARK    8  A    between atoms: C_9  and  C_10 
REMARK    9  A    between atoms: C_10  and  C_11 
REMARK   10  A    between atoms: C_11  and  C_12 
REMARK   11  A    between atoms: C_12  and  C_13 
REMARK   12  A    between atoms: C_13  and  C_14 
REMARK   13  A    between atoms: C_14  and  C_15 
REMARK   14  A    between atoms: C_15  and  C_16 
REMARK   15  A    between atoms: C_16  and  N_17 
ROOT
HETATM    1  C   UNK N   1      31.224  21.990  -2.862  0.00  0.00     0.000 C 
ENDROOT
BRANCH   1   2
HETATM    2  C   UNK N   1      30.286  23.101  -2.433  0.00  0.00     0.000 C 
BRANCH   2   3
HETATM    3  C   UNK N   1      30.566  24.338  -3.260  0.00  0.00     0.000 C 
BRANCH   3   4
HETATM    4  C   UNK N   1      29.297  24.810  -3.937  0.00  0.00     0.000 C 
BRANCH   4   5
HETATM    5  C   UNK N   1      28.132  24.007  -3.399  0.00  0.00     0.000 C 
BRANCH   5   6
HETATM    6  C   UNK N   1      26.863  24.833  -3.426  0.00  0.00     0.000 C 
BRANCH   6   7
HETATM    7  C   UNK N   1      27.191  26.205  -3.976  0.00  0.00     0.000 C 
BRANCH   7   8
HETATM    8  C   UNK N   1      25.965  26.817  -4.618  0.00  0.00    -0.000 C 
BRANCH   8   9
HETATM    9  C   UNK N   1      26.358  28.109  -5.303  0.00  0.00    -0.005 C 
HETATM   10  C   UNK N   1      27.183  27.803  -6.535  0.00  0.00     0.005 C 
ENDBRANCH   8   9
ENDBRANCH   7   8
ENDBRANCH   6   7
ENDBRANCH   5   6
ENDBRANCH   4   5
ENDBRANCH   3   4
ENDBRANCH   2   3
ENDBRANCH   1   2
BRANCH   1  11
HETATM   11  C   UNK N   1      30.550  21.070  -3.860  0.00  0.00     0.000 C 
BRANCH  11  12
HETATM   12  C   UNK N   1      31.309  21.138  -5.170  0.00  0.00     0.000 C 
BRANCH  12  13
HETATM   13  C   UNK N   1      30.590  22.047  -6.149  0.00  0.00     0.000 C 
BRANCH  13  14
HETATM   14  C   UNK N   1      29.193  21.512  -6.411  0.00  0.00     0.002 C 
BRANCH  14  15
HETATM   15  C   UNK N   1      28.249  22.643  -6.773  0.00  0.00     0.028 C 
BRANCH  15  16
HETATM   16  C   UNK N   1      27.360  22.212  -7.940  0.00  0.00     0.236 C 
BRANCH  16  17
HETATM   17  N   UNK N   1      25.945  22.508  -7.729  0.00  0.00    -0.079 N 
HETATM   18  C   UNK N   1      25.128  21.304  -7.804  0.00  0.00     0.271 C 
HETATM   19  C   UNK N   1      25.791  23.078  -6.405  0.00  0.00     0.271 C 
HETATM   20  C   UNK N   1      25.467  23.483  -8.701  0.00  0.00     0.271 C 
ENDBRANCH  16  17
ENDBRANCH  15  16
ENDBRANCH  14  15
ENDBRANCH  13  14
ENDBRANCH  12  13
ENDBRANCH  11  12
ENDBRANCH   1  11
TORSDOF 15
ENDMDL
MODEL 6
REMARK VINA RESULT:      -4.2     22.047     25.488
REMARK  15 active torsions:
REMARK  status: ('A' for Active; 'I' for Inactive)
REMARK    1  A    between atoms: C_2  and  C_3 
REMARK    2  A    between atoms: C_3  and  C_4 
REMARK    3  A    between atoms: C_4  and  C_5 
REMARK    4  A    between atoms: C_5  and  C_6 
REMARK    5  A    between atoms: C_6  and  C_7 
REMARK    6  A    between atoms: C_7  and  C_8 
REMARK    7  A    between atoms: C_8  and  C_9 
REMARK    8  A    between atoms: C_9  and  C_10 
REMARK    9  A    between atoms: C_10  and  C_11 
REMARK   10  A    between atoms: C_11  and  C_12 
REMARK   11  A    between atoms: C_12  and  C_13 
REMARK   12  A    between atoms: C_13  and  C_14 
REMARK   13  A    between atoms: C_14  and  C_15 
REMARK   14  A    between atoms: C_15  and  C_16 
REMARK   15  A    between atoms: C_16  and  N_17 
ROOT
HETATM    1  C   UNK N   1      35.406  12.709  19.215  0.00  0.00     0.000 C 
ENDROOT
BRANCH   1   2
HETATM    2  C   UNK N   1      35.629  11.367  18.546  0.00  0.00     0.000 C 
BRANCH   2   3
HETATM    3  C   UNK N   1      34.897  10.294  19.325  0.00  0.00     0.000 C 
BRANCH   3   4
HETATM    4  C   UNK N   1      34.344   9.250  18.378  0.00  0.00     0.000 C 
BRANCH   4   5
HETATM    5  C   UNK N   1      35.348   8.123  18.258  0.00  0.00     0.000 C 
BRANCH   5   6
HETATM    6  C   UNK N   1      36.279   8.366  17.088  0.00  0.00     0.000 C 
BRANCH   6   7
HETATM    7  C   UNK N   1      35.468   8.324  15.809  0.00  0.00     0.000 C 
BRANCH   7   8
HETATM    8  C   UNK N   1      35.602   9.635  15.064  0.00  0.00    -0.000 C 
BRANCH   8   9
HETATM    9  C   UNK N   1      34.226  10.240  14.877  0.00  0.00    -0.005 C 
HETATM   10  C   UNK N   1      34.017  10.591  13.419  0.00  0.00     0.005 C 
ENDBRANCH   8   9
ENDBRANCH   7   8
ENDBRANCH   6   7
ENDBRANCH   5   6
ENDBRANCH   4   5
ENDBRANCH   3   4
ENDBRANCH   2   3
ENDBRANCH   1   2
BRANCH   1  11
HETATM   11  C   UNK N   1      35.128  13.786  18.185  0.00  0.00     0.000 C 
BRANCH  11  12
HETATM   12  C   UNK N   1      35.090  13.144  16.813  0.00  0.00     0.000 C 
BRANCH  12  13
HETATM   13  C   UNK N   1      36.072  13.829  15.882  0.00  0.00     0.000 C 
BRANCH  13  14
HETATM   14  C   UNK N   1      36.920  12.785  15.178  0.00  0.00     0.002 C 
BRANCH  14  15
HETATM   15  C   UNK N   1      36.993  13.074  13.690  0.00  0.00     0.028 C 
BRANCH  15  16
HETATM   16  C   UNK N   1      35.970  14.152  13.329  0.00  0.00     0.236 C 
BRANCH  16  17
HETATM   17  N   UNK N   1      35.834  14.361  11.890  0.00  0.00    -0.079 N 
HETATM   18  C   UNK N   1      35.900  15.776  11.545  0.00  0.00     0.271 C 
HETATM   19  C   UNK N   1      36.928  13.682  11.224  0.00  0.00     0.271 C 
HETATM   20  C   UNK N   1      34.583  13.798  11.398  0.00  0.00     0.271 C 
ENDBRANCH  16  17
ENDBRANCH  15  16
ENDBRANCH  14  15
ENDBRANCH  13  14
ENDBRANCH  12  13
ENDBRANCH  11  12
ENDBRANCH   1  11
TORSDOF 15
ENDMDL
MODEL 7
REMARK VINA RESULT:      -4.2     10.801     14.543
REMARK  15 active torsions:
REMARK  status: ('A' for Active; 'I' for Inactive)
REMARK    1  A    between atoms: C_2  and  C_3 
REMARK    2  A    between atoms: C_3  and  C_4 
REMARK    3  A    between atoms: C_4  and  C_5 
REMARK    4  A    between atoms: C_5  and  C_6 
REMARK    5  A    between atoms: C_6  and  C_7 
REMARK    6  A    between atoms: C_7  and  C_8 
REMARK    7  A    between atoms: C_8  and  C_9 
REMARK    8  A    between atoms: C_9  and  C_10 
REMARK    9  A    between atoms: C_10  and  C_11 
REMARK   10  A    between atoms: C_11  and  C_12 
REMARK   11  A    between atoms: C_12  and  C_13 
REMARK   12  A    between atoms: C_13  and  C_14 
REMARK   13  A    between atoms: C_14  and  C_15 
REMARK   14  A    between atoms: C_15  and  C_16 
REMARK   15  A    between atoms: C_16  and  N_17 
ROOT
HETATM    1  C   UNK N   1      28.365  18.425   8.149  0.00  0.00     0.000 C 
ENDROOT
BRANCH   1   2
HETATM    2  C   UNK N   1      27.918  17.176   7.415  0.00  0.00     0.000 C 
BRANCH   2   3
HETATM    3  C   UNK N   1      28.707  17.045   6.128  0.00  0.00     0.000 C 
BRANCH   3   4
HETATM    4  C   UNK N   1      27.765  16.899   4.952  0.00  0.00     0.000 C 
BRANCH   4   5
HETATM    5  C   UNK N   1      26.343  17.066   5.446  0.00  0.00     0.000 C 
BRANCH   5   6
HETATM    6  C   UNK N   1      25.676  18.236   4.754  0.00  0.00     0.000 C 
BRANCH   6   7
HETATM    7  C   UNK N   1      26.692  18.905   3.851  0.00  0.00     0.000 C 
BRANCH   7   8
HETATM    8  C   UNK N   1      26.739  20.392   4.130  0.00  0.00    -0.000 C 
BRANCH   8   9
HETATM    9  C   UNK N   1      27.625  20.642   5.333  0.00  0.00    -0.005 C 
HETATM   10  C   UNK N   1      26.865  21.444   6.367  0.00  0.00     0.005 C 
ENDBRANCH   8   9
ENDBRANCH   7   8
ENDBRANCH   6   7
ENDBRANCH   5   6
ENDBRANCH   4   5
ENDBRANCH   3   4
ENDBRANCH   2   3
ENDBRANCH   1   2
BRANCH   1  11
HETATM   11  C   UNK N   1      29.281  18.072   9.304  0.00  0.00     0.000 C 
BRANCH  11  12
HETATM   12  C   UNK N   1      30.699  18.449   8.929  0.00  0.00     0.000 C 
BRANCH  12  13
HETATM   13  C   UNK N   1      31.489  17.214   8.540  0.00  0.00     0.000 C 
BRANCH  13  14
HETATM   14  C   UNK N   1      32.648  17.610   7.642  0.00  0.00     0.002 C 
BRANCH  14  15
HETATM   15  C   UNK N   1      32.314  17.330   6.189  0.00  0.00     0.028 C 
BRANCH  15  16
HETATM   16  C   UNK N   1      33.549  16.770   5.481  0.00  0.00     0.236 C 
BRANCH  16  17
HETATM   17  N   UNK N   1      33.229  15.772   4.463  0.00  0.00    -0.079 N 
HETATM   18  C   UNK N   1      31.951  15.124   4.731  0.00  0.00     0.271 C 
HETATM   19  C   UNK N   1      33.136  16.442   3.181  0.00  0.00     0.271 C 
HETATM   20  C   UNK N   1      34.277  14.764   4.374  0.00  0.00     0.271 C 
ENDBRANCH  16  17
ENDBRANCH  15  16
ENDBRANCH  14  15
ENDBRANCH  13  14
ENDBRANCH  12  13
ENDBRANCH  11  12
ENDBRANCH   1  11
TORSDOF 15
ENDMDL
MODEL 8
REMARK VINA RESULT:      -4.2      2.384      6.503
REMARK  15 active torsions:
REMARK  status: ('A' for Active; 'I' for Inactive)
REMARK    1  A    between atoms: C_2  and  C_3 
REMARK    2  A    between atoms: C_3  and  C_4 
REMARK    3  A    between atoms: C_4  and  C_5 
REMARK    4  A    between atoms: C_5  and  C_6 
REMARK    5  A    between atoms: C_6  and  C_7 
REMARK    6  A    between atoms: C_7  and  C_8 
REMARK    7  A    between atoms: C_8  and  C_9 
REMARK    8  A    between atoms: C_9  and  C_10 
REMARK    9  A    between atoms: C_10  and  C_11 
REMARK   10  A    between atoms: C_11  and  C_12 
REMARK   11  A    between atoms: C_12  and  C_13 
REMARK   12  A    between atoms: C_13  and  C_14 
REMARK   13  A    between atoms: C_14  and  C_15 
REMARK   14  A    between atoms: C_15  and  C_16 
REMARK   15  A    between atoms: C_16  and  N_17 
ROOT
HETATM    1  C   UNK N   1      29.035  28.284  -6.950  0.00  0.00     0.000 C 
ENDROOT
BRANCH   1   2
HETATM    2  C   UNK N   1      27.607  27.935  -7.320  0.00  0.00     0.000 C 
BRANCH   2   3
HETATM    3  C   UNK N   1      27.305  26.522  -6.865  0.00  0.00     0.000 C 
BRANCH   3   4
HETATM    4  C   UNK N   1      25.817  26.255  -6.948  0.00  0.00     0.000 C 
BRANCH   4   5
HETATM    5  C   UNK N   1      25.191  26.572  -5.606  0.00  0.00     0.000 C 
BRANCH   5   6
HETATM    6  C   UNK N   1      26.084  26.095  -4.480  0.00  0.00     0.000 C 
BRANCH   6   7
HETATM    7  C   UNK N   1      26.142  27.176  -3.420  0.00  0.00     0.000 C 
BRANCH   7   8
HETATM    8  C   UNK N   1      25.769  28.515  -4.020  0.00  0.00    -0.000 C 
BRANCH   8   9
HETATM    9  C   UNK N   1      26.966  29.440  -3.946  0.00  0.00    -0.005 C 
HETATM   10  C   UNK N   1      26.498  30.864  -3.734  0.00  0.00     0.005 C 
ENDBRANCH   8   9
ENDBRANCH   7   8
ENDBRANCH   6   7
ENDBRANCH   5   6
ENDBRANCH   4   5
ENDBRANCH   3   4
ENDBRANCH   2   3
ENDBRANCH   1   2
BRANCH   1  11
HETATM   11  C   UNK N   1      29.615  27.251  -6.004  0.00  0.00     0.000 C 
BRANCH  11  12
HETATM   12  C   UNK N   1      30.204  27.969  -4.807  0.00  0.00     0.000 C 
BRANCH  12  13
HETATM   13  C   UNK N   1      30.155  27.078  -3.580  0.00  0.00     0.000 C 
BRANCH  13  14
HETATM   14  C   UNK N   1      29.663  25.696  -3.973  0.00  0.00     0.002 C 
BRANCH  14  15
HETATM   15  C   UNK N   1      30.595  24.627  -3.432  0.00  0.00     0.028 C 
BRANCH  15  16
HETATM   16  C   UNK N   1      29.892  23.269  -3.476  0.00  0.00     0.236 C 
BRANCH  16  17
HETATM   17  N   UNK N   1      30.548  22.307  -4.358  0.00  0.00    -0.079 N 
HETATM   18  C   UNK N   1      31.902  22.728  -4.697  0.00  0.00     0.271 C 
HETATM   19  C   UNK N   1      30.630  21.035  -3.667  0.00  0.00     0.271 C 
HETATM   20  C   UNK N   1      29.779  22.111  -5.580  0.00  0.00     0.271 C 
ENDBRANCH  16  17
ENDBRANCH  15  16
ENDBRANCH  14  15
ENDBRANCH  13  14
ENDBRANCH  12  13
ENDBRANCH  11  12
ENDBRANCH   1  11
TORSDOF 15
ENDMDL
MODEL 9
REMARK VINA RESULT:      -4.2      2.408      5.620
REMARK  15 active torsions:
REMARK  status: ('A' for Active; 'I' for Inactive)
REMARK    1  A    between atoms: C_2  and  C_3 
REMARK    2  A    between atoms: C_3  and  C_4 
REMARK    3  A    between atoms: C_4  and  C_5 
REMARK    4  A    between atoms: C_5  and  C_6 
REMARK    5  A    between atoms: C_6  and  C_7 
REMARK    6  A    between atoms: C_7  and  C_8 
REMARK    7  A    between atoms: C_8  and  C_9 
REMARK    8  A    between atoms: C_9  and  C_10 
REMARK    9  A    between atoms: C_10  and  C_11 
REMARK   10  A    between atoms: C_11  and  C_12 
REMARK   11  A    between atoms: C_12  and  C_13 
REMARK   12  A    between atoms: C_13  and  C_14 
REMARK   13  A    between atoms: C_14  and  C_15 
REMARK   14  A    between atoms: C_15  and  C_16 
REMARK   15  A    between atoms: C_16  and  N_17 
ROOT
HETATM    1  C   UNK N   1      28.967  29.038  -7.079  0.00  0.00     0.000 C 
ENDROOT
BRANCH   1   2
HETATM    2  C   UNK N   1      27.585  28.762  -6.521  0.00  0.00     0.000 C 
BRANCH   2   3
HETATM    3  C   UNK N   1      27.428  29.486  -5.200  0.00  0.00     0.000 C 
BRANCH   3   4
HETATM    4  C   UNK N   1      26.963  28.522  -4.129  0.00  0.00     0.000 C 
BRANCH   4   5
HETATM    5  C   UNK N   1      25.612  27.967  -4.531  0.00  0.00     0.000 C 
BRANCH   5   6
HETATM    6  C   UNK N   1      25.711  26.481  -4.807  0.00  0.00     0.000 C 
BRANCH   6   7
HETATM    7  C   UNK N   1      26.446  25.825  -3.657  0.00  0.00     0.000 C 
BRANCH   7   8
HETATM    8  C   UNK N   1      26.760  24.382  -3.995  0.00  0.00    -0.000 C 
BRANCH   8   9
HETATM    9  C   UNK N   1      26.058  24.013  -5.285  0.00  0.00    -0.005 C 
HETATM   10  C   UNK N   1      27.031  23.320  -6.214  0.00  0.00     0.005 C 
ENDBRANCH   8   9
ENDBRANCH   7   8
ENDBRANCH   6   7
ENDBRANCH   5   6
ENDBRANCH   4   5
ENDBRANCH   3   4
ENDBRANCH   2   3
ENDBRANCH   1   2
BRANCH   1  11
HETATM   11  C   UNK N   1      29.928  27.923  -6.717  0.00  0.00     0.000 C 
BRANCH  11  12
HETATM   12  C   UNK N   1      29.142  26.636  -6.573  0.00  0.00     0.000 C 
BRANCH  12  13
HETATM   13  C   UNK N   1      29.904  25.645  -5.714  0.00  0.00     0.000 C 
BRANCH  13  14
HETATM   14  C   UNK N   1      30.032  26.187  -4.301  0.00  0.00     0.002 C 
BRANCH  14  15
HETATM   15  C   UNK N   1      30.628  25.139  -3.381  0.00  0.00     0.028 C 
BRANCH  15  16
HETATM   16  C   UNK N   1      31.040  23.915  -4.201  0.00  0.00     0.236 C 
BRANCH  16  17
HETATM   17  N   UNK N   1      30.728  22.648  -3.545  0.00  0.00    -0.079 N 
HETATM   18  C   UNK N   1      31.927  22.008  -3.018  0.00  0.00     0.271 C 
HETATM   19  C   UNK N   1      29.834  22.916  -2.435  0.00  0.00     0.271 C 
HETATM   20  C   UNK N   1      30.054  21.738  -4.461  0.00  0.00     0.271 C 
ENDBRANCH  16  17
ENDBRANCH  15  16
ENDBRANCH  14  15
ENDBRANCH  13  14
ENDBRANCH  12  13
ENDBRANCH  11  12
ENDBRANCH   1  11
TORSDOF 15
ENDMDL
