MODEL 1
REMARK VINA RESULT:      -6.6      0.000      0.000
REMARK  9 active torsions:
REMARK  status: ('A' for Active; 'I' for Inactive)
REMARK    1  A    between atoms: O_1  and  C_13 
REMARK    2  A    between atoms: O_1  and  C_20 
REMARK    3  A    between atoms: O_2  and  C_14 
REMARK    4  A    between atoms: O_2  and  C_21 
REMARK    5  A    between atoms: O_3  and  C_19 
REMARK    6  A    between atoms: O_3  and  C_26 
REMARK    7  A    between atoms: O_4  and  C_22 
REMARK    8  A    between atoms: O_4  and  C_27 
REMARK    9  A    between atoms: C_15  and  C_16 
ROOT
HETATM    1  N   UNK N   1      27.396  18.898   6.760  0.00  0.00    -0.389 N 
HETATM    2  C   UNK N   1      29.133  17.922   8.238  0.00  0.00     0.059 C 
HETATM    3  C   UNK N   1      29.838  17.429   7.003  0.00  0.00    -0.041 A 
HETATM    4  C   UNK N   1      29.261  17.594   5.738  0.00  0.00    -0.001 A 
HETATM    5  C   UNK N   1      28.183  19.095   7.960  0.00  0.00     0.124 C 
HETATM    6  C   UNK N   1      27.970  18.296   5.610  0.00  0.00     0.039 C 
HETATM    7  C   UNK N   1      31.056  16.752   7.121  0.00  0.00     0.047 A 
HETATM    8  C   UNK N   1      29.907  17.084   4.608  0.00  0.00     0.054 A 
HETATM    9  C   UNK N   1      31.714  16.239   5.983  0.00  0.00     0.102 A 
HETATM   10  C   UNK N   1      31.121  16.411   4.704  0.00  0.00     0.102 A 
HETATM   11  C   UNK N   1      27.394  18.381   4.400  0.00  0.00     0.041 C 
HETATM   12  H   UNK N   1      26.454  19.184   6.743  0.00  0.00     0.159 HD
ENDROOT
BRANCH  11  13
HETATM   13  C   UNK N   1      26.146  19.054   4.020  0.00  0.00    -0.031 A 
HETATM   14  C   UNK N   1      24.959  18.483   4.469  0.00  0.00     0.051 A 
HETATM   15  C   UNK N   1      23.715  19.022   4.115  0.00  0.00     0.102 A 
HETATM   16  C   UNK N   1      23.667  20.164   3.298  0.00  0.00     0.102 A 
HETATM   17  C   UNK N   1      24.870  20.748   2.854  0.00  0.00     0.040 A 
HETATM   18  C   UNK N   1      26.103  20.194   3.210  0.00  0.00     0.014 A 
BRANCH  15  19
HETATM   19  O   UNK N   1      22.563  18.449   4.546  0.00  0.00    -0.349 OA
BRANCH  19  20
HETATM   20  C   UNK N   1      22.502  17.670   5.683  0.00  0.00     0.171 C 
HETATM   21  C   UNK N   1      21.249  17.999   6.465  0.00  0.00     0.034 C 
ENDBRANCH  19  20
ENDBRANCH  15  19
BRANCH  16  22
HETATM   22  O   UNK N   1      22.464  20.674   2.941  0.00  0.00    -0.349 OA
BRANCH  22  23
HETATM   23  C   UNK N   1      21.750  20.225   1.853  0.00  0.00     0.171 C 
HETATM   24  C   UNK N   1      20.318  19.960   2.262  0.00  0.00     0.034 C 
ENDBRANCH  22  23
ENDBRANCH  16  22
ENDBRANCH  11  13
BRANCH  10  25
HETATM   25  O   UNK N   1      31.664  15.950   3.548  0.00  0.00    -0.349 OA
BRANCH  25  26
HETATM   26  C   UNK N   1      32.749  16.482   2.895  0.00  0.00     0.171 C 
HETATM   27  C   UNK N   1      33.774  15.392   2.668  0.00  0.00     0.034 C 
ENDBRANCH  25  26
ENDBRANCH  10  25
BRANCH   9  28
HETATM   28  O   UNK N   1      32.894  15.583   6.105  0.00  0.00    -0.349 OA
BRANCH  28  29
HETATM   29  C   UNK N   1      34.076  16.199   6.446  0.00  0.00     0.171 C 
HETATM   30  C   UNK N   1      34.602  15.593   7.729  0.00  0.00     0.034 C 
ENDBRANCH  28  29
ENDBRANCH   9  28
TORSDOF 9
ENDMDL
MODEL 2
REMARK VINA RESULT:      -6.5      1.483      9.469
REMARK  9 active torsions:
REMARK  status: ('A' for Active; 'I' for Inactive)
REMARK    1  A    between atoms: O_1  and  C_13 
REMARK    2  A    between atoms: O_1  and  C_20 
REMARK    3  A    between atoms: O_2  and  C_14 
REMARK    4  A    between atoms: O_2  and  C_21 
REMARK    5  A    between atoms: O_3  and  C_19 
REMARK    6  A    between atoms: O_3  and  C_26 
REMARK    7  A    between atoms: O_4  and  C_22 
REMARK    8  A    between atoms: O_4  and  C_27 
REMARK    9  A    between atoms: C_15  and  C_16 
ROOT
HETATM    1  N   UNK N   1      27.146  19.689   4.134  0.00  0.00    -0.389 N 
HETATM    2  C   UNK N   1      25.355  20.520   2.633  0.00  0.00     0.059 C 
HETATM    3  C   UNK N   1      24.374  19.703   3.431  0.00  0.00    -0.041 A 
HETATM    4  C   UNK N   1      24.816  18.857   4.454  0.00  0.00    -0.001 A 
HETATM    5  C   UNK N   1      26.643  20.835   3.405  0.00  0.00     0.124 C 
HETATM    6  C   UNK N   1      26.253  18.795   4.782  0.00  0.00     0.039 C 
HETATM    7  C   UNK N   1      23.012  19.749   3.115  0.00  0.00     0.047 A 
HETATM    8  C   UNK N   1      23.895  18.068   5.150  0.00  0.00     0.054 A 
HETATM    9  C   UNK N   1      22.078  18.958   3.818  0.00  0.00     0.102 A 
HETATM   10  C   UNK N   1      22.536  18.102   4.854  0.00  0.00     0.102 A 
HETATM   11  C   UNK N   1      26.670  17.924   5.715  0.00  0.00     0.041 C 
HETATM   12  H   UNK N   1      28.116  19.528   4.181  0.00  0.00     0.159 HD
ENDROOT
BRANCH  11  13
HETATM   13  C   UNK N   1      28.027  17.710   6.233  0.00  0.00    -0.031 A 
HETATM   14  C   UNK N   1      28.919  17.037   5.405  0.00  0.00     0.051 A 
HETATM   15  C   UNK N   1      30.221  16.739   5.830  0.00  0.00     0.102 A 
HETATM   16  C   UNK N   1      30.632  17.134   7.114  0.00  0.00     0.102 A 
HETATM   17  C   UNK N   1      29.731  17.826   7.947  0.00  0.00     0.040 A 
HETATM   18  C   UNK N   1      28.434  18.110   7.511  0.00  0.00     0.014 A 
BRANCH  15  19
HETATM   19  O   UNK N   1      31.079  16.068   5.020  0.00  0.00    -0.349 OA
BRANCH  19  20
HETATM   20  C   UNK N   1      31.522  16.583   3.820  0.00  0.00     0.171 C 
HETATM   21  C   UNK N   1      32.674  17.534   4.062  0.00  0.00     0.034 C 
ENDBRANCH  19  20
ENDBRANCH  15  19
BRANCH  16  22
HETATM   22  O   UNK N   1      31.884  16.829   7.533  0.00  0.00    -0.349 OA
BRANCH  22  23
HETATM   23  C   UNK N   1      32.668  17.700   8.256  0.00  0.00     0.171 C 
HETATM   24  C   UNK N   1      34.008  17.861   7.572  0.00  0.00     0.034 C 
ENDBRANCH  22  23
ENDBRANCH  16  22
ENDBRANCH  11  13
BRANCH  10  25
HETATM   25  O   UNK N   1      21.725  17.294   5.584  0.00  0.00    -0.349 OA
BRANCH  25  26
HETATM   26  C   UNK N   1      21.069  17.638   6.741  0.00  0.00     0.171 C 
HETATM   27  C   UNK N   1      20.863  16.395   7.581  0.00  0.00     0.034 C 
ENDBRANCH  25  26
ENDBRANCH  10  25
BRANCH   9  28
HETATM   28  O   UNK N   1      20.760  19.006   3.506  0.00  0.00    -0.349 OA
BRANCH  28  29
HETATM   29  C   UNK N   1      20.278  18.906   2.221  0.00  0.00     0.171 C 
HETATM   30  C   UNK N   1      20.111  17.444   1.864  0.00  0.00     0.034 C 
ENDBRANCH  28  29
ENDBRANCH   9  28
TORSDOF 9
ENDMDL
MODEL 3
REMARK VINA RESULT:      -6.5      1.695      9.224
REMARK  9 active torsions:
REMARK  status: ('A' for Active; 'I' for Inactive)
REMARK    1  A    between atoms: O_1  and  C_13 
REMARK    2  A    between atoms: O_1  and  C_20 
REMARK    3  A    between atoms: O_2  and  C_14 
REMARK    4  A    between atoms: O_2  and  C_21 
REMARK    5  A    between atoms: O_3  and  C_19 
REMARK    6  A    between atoms: O_3  and  C_26 
REMARK    7  A    between atoms: O_4  and  C_22 
REMARK    8  A    between atoms: O_4  and  C_27 
REMARK    9  A    between atoms: C_15  and  C_16 
ROOT
HETATM    1  N   UNK N   1      27.406  19.188   3.882  0.00  0.00    -0.389 N 
HETATM    2  C   UNK N   1      25.635  20.523   2.771  0.00  0.00     0.059 C 
HETATM    3  C   UNK N   1      24.617  19.641   3.442  0.00  0.00    -0.041 A 
HETATM    4  C   UNK N   1      25.019  18.537   4.202  0.00  0.00    -0.001 A 
HETATM    5  C   UNK N   1      26.996  20.519   3.481  0.00  0.00     0.124 C 
HETATM    6  C   UNK N   1      26.457  18.259   4.382  0.00  0.00     0.039 C 
HETATM    7  C   UNK N   1      23.253  19.893   3.264  0.00  0.00     0.047 A 
HETATM    8  C   UNK N   1      24.058  17.700   4.776  0.00  0.00     0.054 A 
HETATM    9  C   UNK N   1      22.278  19.054   3.844  0.00  0.00     0.102 A 
HETATM   10  C   UNK N   1      22.696  17.936   4.613  0.00  0.00     0.102 A 
HETATM   11  C   UNK N   1      26.827  17.155   5.051  0.00  0.00     0.041 C 
HETATM   12  H   UNK N   1      28.353  18.927   3.806  0.00  0.00     0.159 HD
ENDROOT
BRANCH  11  13
HETATM   13  C   UNK N   1      28.179  16.692   5.388  0.00  0.00    -0.031 A 
HETATM   14  C   UNK N   1      28.657  17.009   6.655  0.00  0.00     0.051 A 
HETATM   15  C   UNK N   1      29.954  16.656   7.052  0.00  0.00     0.102 A 
HETATM   16  C   UNK N   1      30.783  15.964   6.153  0.00  0.00     0.102 A 
HETATM   17  C   UNK N   1      30.293  15.633   4.874  0.00  0.00     0.040 A 
HETATM   18  C   UNK N   1      29.000  15.998   4.492  0.00  0.00     0.014 A 
BRANCH  15  19
HETATM   19  O   UNK N   1      30.415  16.983   8.285  0.00  0.00    -0.349 OA
BRANCH  19  20
HETATM   20  C   UNK N   1      30.574  18.290   8.696  0.00  0.00     0.171 C 
HETATM   21  C   UNK N   1      29.658  18.577   9.866  0.00  0.00     0.034 C 
ENDBRANCH  19  20
ENDBRANCH  15  19
BRANCH  16  22
HETATM   22  O   UNK N   1      32.043  15.639   6.529  0.00  0.00    -0.349 OA
BRANCH  22  23
HETATM   23  C   UNK N   1      33.160  16.007   5.813  0.00  0.00     0.171 C 
HETATM   24  C   UNK N   1      33.427  17.483   6.015  0.00  0.00     0.034 C 
ENDBRANCH  22  23
ENDBRANCH  16  22
ENDBRANCH  11  13
BRANCH  10  25
HETATM   25  O   UNK N   1      21.843  17.061   5.206  0.00  0.00    -0.349 OA
BRANCH  25  26
HETATM   26  C   UNK N   1      21.976  16.529   6.465  0.00  0.00     0.171 C 
HETATM   27  C   UNK N   1      20.790  16.947   7.307  0.00  0.00     0.034 C 
ENDBRANCH  25  26
ENDBRANCH  10  25
BRANCH   9  28
HETATM   28  O   UNK N   1      20.958  19.303   3.666  0.00  0.00    -0.349 OA
BRANCH  28  29
HETATM   29  C   UNK N   1      20.343  19.307   2.435  0.00  0.00     0.171 C 
HETATM   30  C   UNK N   1      19.980  17.887   2.055  0.00  0.00     0.034 C 
ENDBRANCH  28  29
ENDBRANCH   9  28
TORSDOF 9
ENDMDL
MODEL 4
REMARK VINA RESULT:      -6.5      3.054     10.037
REMARK  9 active torsions:
REMARK  status: ('A' for Active; 'I' for Inactive)
REMARK    1  A    between atoms: O_1  and  C_13 
REMARK    2  A    between atoms: O_1  and  C_20 
REMARK    3  A    between atoms: O_2  and  C_14 
REMARK    4  A    between atoms: O_2  and  C_21 
REMARK    5  A    between atoms: O_3  and  C_19 
REMARK    6  A    between atoms: O_3  and  C_26 
REMARK    7  A    between atoms: O_4  and  C_22 
REMARK    8  A    between atoms: O_4  and  C_27 
REMARK    9  A    between atoms: C_15  and  C_16 
ROOT
HETATM    1  N   UNK N   1      30.443  17.342   9.423  0.00  0.00    -0.389 N 
HETATM    2  C   UNK N   1      28.269  18.335   8.758  0.00  0.00     0.059 C 
HETATM    3  C   UNK N   1      28.564  17.913   7.344  0.00  0.00    -0.041 A 
HETATM    4  C   UNK N   1      29.794  17.332   7.015  0.00  0.00    -0.001 A 
HETATM    5  C   UNK N   1      29.057  17.532   9.803  0.00  0.00     0.124 C 
HETATM    6  C   UNK N   1      30.795  17.092   8.072  0.00  0.00     0.039 C 
HETATM    7  C   UNK N   1      27.623  18.150   6.337  0.00  0.00     0.047 A 
HETATM    8  C   UNK N   1      30.070  16.993   5.687  0.00  0.00     0.054 A 
HETATM    9  C   UNK N   1      27.894  17.806   4.996  0.00  0.00     0.102 A 
HETATM   10  C   UNK N   1      29.145  17.218   4.671  0.00  0.00     0.102 A 
HETATM   11  C   UNK N   1      31.997  16.602   7.729  0.00  0.00     0.041 C 
HETATM   12  H   UNK N   1      31.147  17.389  10.111  0.00  0.00     0.159 HD
ENDROOT
BRANCH  11  13
HETATM   13  C   UNK N   1      33.128  16.248   8.595  0.00  0.00    -0.031 A 
HETATM   14  C   UNK N   1      33.238  14.914   8.974  0.00  0.00     0.051 A 
HETATM   15  C   UNK N   1      34.254  14.487   9.841  0.00  0.00     0.102 A 
HETATM   16  C   UNK N   1      35.180  15.424  10.329  0.00  0.00     0.102 A 
HETATM   17  C   UNK N   1      35.074  16.772   9.934  0.00  0.00     0.040 A 
HETATM   18  C   UNK N   1      34.052  17.183   9.075  0.00  0.00     0.014 A 
BRANCH  15  19
HETATM   19  O   UNK N   1      34.343  13.186  10.216  0.00  0.00    -0.349 OA
BRANCH  19  20
HETATM   20  C   UNK N   1      34.769  12.193   9.359  0.00  0.00     0.171 C 
HETATM   21  C   UNK N   1      36.217  11.857   9.640  0.00  0.00     0.034 C 
ENDBRANCH  19  20
ENDBRANCH  15  19
BRANCH  16  22
HETATM   22  O   UNK N   1      36.150  15.015  11.182  0.00  0.00    -0.349 OA
BRANCH  22  23
HETATM   23  C   UNK N   1      36.051  15.139  12.549  0.00  0.00     0.171 C 
HETATM   24  C   UNK N   1      36.141  13.771  13.189  0.00  0.00     0.034 C 
ENDBRANCH  22  23
ENDBRANCH  16  22
ENDBRANCH  11  13
BRANCH  10  25
HETATM   25  O   UNK N   1      29.511  16.859   3.413  0.00  0.00    -0.349 OA
BRANCH  25  26
HETATM   26  C   UNK N   1      29.633  15.574   2.942  0.00  0.00     0.171 C 
HETATM   27  C   UNK N   1      28.313  15.140   2.341  0.00  0.00     0.034 C 
ENDBRANCH  25  26
ENDBRANCH  10  25
BRANCH   9  28
HETATM   28  O   UNK N   1      26.978  18.040   4.024  0.00  0.00    -0.349 OA
BRANCH  28  29
HETATM   29  C   UNK N   1      26.068  19.071   4.069  0.00  0.00     0.171 C 
HETATM   30  C   UNK N   1      26.695  20.316   3.476  0.00  0.00     0.034 C 
ENDBRANCH  28  29
ENDBRANCH   9  28
TORSDOF 9
ENDMDL
MODEL 5
REMARK VINA RESULT:      -6.2      6.512     12.669
REMARK  9 active torsions:
REMARK  status: ('A' for Active; 'I' for Inactive)
REMARK    1  A    between atoms: O_1  and  C_13 
REMARK    2  A    between atoms: O_1  and  C_20 
REMARK    3  A    between atoms: O_2  and  C_14 
REMARK    4  A    between atoms: O_2  and  C_21 
REMARK    5  A    between atoms: O_3  and  C_19 
REMARK    6  A    between atoms: O_3  and  C_26 
REMARK    7  A    between atoms: O_4  and  C_22 
REMARK    8  A    between atoms: O_4  and  C_27 
REMARK    9  A    between atoms: C_15  and  C_16 
ROOT
HETATM    1  N   UNK N   1      36.408  13.710   9.497  0.00  0.00    -0.389 N 
HETATM    2  C   UNK N   1      36.196  14.154   7.065  0.00  0.00     0.059 C 
HETATM    3  C   UNK N   1      35.160  15.195   7.394  0.00  0.00    -0.041 A 
HETATM    4  C   UNK N   1      34.726  15.377   8.712  0.00  0.00    -0.001 A 
HETATM    5  C   UNK N   1      37.126  13.836   8.245  0.00  0.00     0.124 C 
HETATM    6  C   UNK N   1      35.319  14.571   9.796  0.00  0.00     0.039 C 
HETATM    7  C   UNK N   1      34.585  15.952   6.369  0.00  0.00     0.047 A 
HETATM    8  C   UNK N   1      33.726  16.314   8.992  0.00  0.00     0.054 A 
HETATM    9  C   UNK N   1      33.579  16.902   6.646  0.00  0.00     0.102 A 
HETATM   10  C   UNK N   1      33.144  17.080   7.986  0.00  0.00     0.102 A 
HETATM   11  C   UNK N   1      34.840  14.705  11.043  0.00  0.00     0.041 C 
HETATM   12  H   UNK N   1      36.678  13.021  10.146  0.00  0.00     0.159 HD
ENDROOT
BRANCH  11  13
HETATM   13  C   UNK N   1      35.289  14.048  12.277  0.00  0.00    -0.031 A 
HETATM   14  C   UNK N   1      34.827  12.756  12.508  0.00  0.00     0.051 A 
HETATM   15  C   UNK N   1      35.158  12.066  13.681  0.00  0.00     0.102 A 
HETATM   16  C   UNK N   1      35.976  12.689  14.639  0.00  0.00     0.102 A 
HETATM   17  C   UNK N   1      36.453  13.993  14.398  0.00  0.00     0.040 A 
HETATM   18  C   UNK N   1      36.108  14.671  13.226  0.00  0.00     0.014 A 
BRANCH  15  19
HETATM   19  O   UNK N   1      34.690  10.812  13.903  0.00  0.00    -0.349 OA
BRANCH  19  20
HETATM   20  C   UNK N   1      35.341   9.684  13.448  0.00  0.00     0.171 C 
HETATM   21  C   UNK N   1      34.592   9.098  12.271  0.00  0.00     0.034 C 
ENDBRANCH  19  20
ENDBRANCH  15  19
BRANCH  16  22
HETATM   22  O   UNK N   1      36.280  12.029  15.782  0.00  0.00    -0.349 OA
BRANCH  22  23
HETATM   23  C   UNK N   1      35.534  12.138  16.934  0.00  0.00     0.171 C 
HETATM   24  C   UNK N   1      35.376  10.772  17.565  0.00  0.00     0.034 C 
ENDBRANCH  22  23
ENDBRANCH  16  22
ENDBRANCH  11  13
BRANCH  10  25
HETATM   25  O   UNK N   1      32.178  17.958   8.359  0.00  0.00    -0.349 OA
BRANCH  25  26
HETATM   26  C   UNK N   1      30.830  17.698   8.422  0.00  0.00     0.171 C 
HETATM   27  C   UNK N   1      30.165  18.744   9.292  0.00  0.00     0.034 C 
ENDBRANCH  25  26
ENDBRANCH  10  25
BRANCH   9  28
HETATM   28  O   UNK N   1      33.025  17.632   5.647  0.00  0.00    -0.349 OA
BRANCH  28  29
HETATM   29  C   UNK N   1      32.059  17.148   4.796  0.00  0.00     0.171 C 
HETATM   30  C   UNK N   1      32.610  17.110   3.386  0.00  0.00     0.034 C 
ENDBRANCH  28  29
ENDBRANCH   9  28
TORSDOF 9
ENDMDL
MODEL 6
REMARK VINA RESULT:      -6.2      6.697     11.445
REMARK  9 active torsions:
REMARK  status: ('A' for Active; 'I' for Inactive)
REMARK    1  A    between atoms: O_1  and  C_13 
REMARK    2  A    between atoms: O_1  and  C_20 
REMARK    3  A    between atoms: O_2  and  C_14 
REMARK    4  A    between atoms: O_2  and  C_21 
REMARK    5  A    between atoms: O_3  and  C_19 
REMARK    6  A    between atoms: O_3  and  C_26 
REMARK    7  A    between atoms: O_4  and  C_22 
REMARK    8  A    between atoms: O_4  and  C_27 
REMARK    9  A    between atoms: C_15  and  C_16 
ROOT
HETATM    1  N   UNK N   1      34.204  12.010  10.037  0.00  0.00    -0.389 N 
HETATM    2  C   UNK N   1      34.246  10.122  11.645  0.00  0.00     0.059 C 
HETATM    3  C   UNK N   1      34.819  11.067  12.666  0.00  0.00    -0.041 A 
HETATM    4  C   UNK N   1      35.149  12.381  12.316  0.00  0.00    -0.001 A 
HETATM    5  C   UNK N   1      33.495  10.840  10.515  0.00  0.00     0.124 C 
HETATM    6  C   UNK N   1      34.893  12.858  10.943  0.00  0.00     0.039 C 
HETATM    7  C   UNK N   1      35.076  10.616  13.965  0.00  0.00     0.047 A 
HETATM    8  C   UNK N   1      35.728  13.230  13.265  0.00  0.00     0.054 A 
HETATM    9  C   UNK N   1      35.655  11.469  14.928  0.00  0.00     0.102 A 
HETATM   10  C   UNK N   1      35.987  12.801  14.563  0.00  0.00     0.102 A 
HETATM   11  C   UNK N   1      35.283  14.097  10.602  0.00  0.00     0.041 C 
HETATM   12  H   UNK N   1      34.206  12.219   9.075  0.00  0.00     0.159 HD
ENDROOT
BRANCH  11  13
HETATM   13  C   UNK N   1      35.105  14.799   9.325  0.00  0.00    -0.031 A 
HETATM   14  C   UNK N   1      34.277  15.917   9.330  0.00  0.00     0.051 A 
HETATM   15  C   UNK N   1      34.005  16.624   8.151  0.00  0.00     0.102 A 
HETATM   16  C   UNK N   1      34.584  16.198   6.944  0.00  0.00     0.102 A 
HETATM   17  C   UNK N   1      35.432  15.072   6.943  0.00  0.00     0.040 A 
HETATM   18  C   UNK N   1      35.688  14.374   8.126  0.00  0.00     0.014 A 
BRANCH  15  19
HETATM   19  O   UNK N   1      33.184  17.704   8.164  0.00  0.00    -0.349 OA
BRANCH  19  20
HETATM   20  C   UNK N   1      31.876  17.638   8.597  0.00  0.00     0.171 C 
HETATM   21  C   UNK N   1      31.001  17.061   7.505  0.00  0.00     0.034 C 
ENDBRANCH  19  20
ENDBRANCH  15  19
BRANCH  16  22
HETATM   22  O   UNK N   1      34.305  16.869   5.801  0.00  0.00    -0.349 OA
BRANCH  22  23
HETATM   23  C   UNK N   1      33.483  16.369   4.816  0.00  0.00     0.171 C 
HETATM   24  C   UNK N   1      32.711  17.502   4.177  0.00  0.00     0.034 C 
ENDBRANCH  22  23
ENDBRANCH  16  22
ENDBRANCH  11  13
BRANCH  10  25
HETATM   25  O   UNK N   1      36.557  13.699  15.407  0.00  0.00    -0.349 OA
BRANCH  25  26
HETATM   26  C   UNK N   1      36.998  14.956  15.073  0.00  0.00     0.171 C 
HETATM   27  C   UNK N   1      37.399  15.691  16.335  0.00  0.00     0.034 C 
ENDBRANCH  25  26
ENDBRANCH  10  25
BRANCH   9  28
HETATM   28  O   UNK N   1      35.902  11.025  16.184  0.00  0.00    -0.349 OA
BRANCH  28  29
HETATM   29  C   UNK N   1      34.934  10.503  17.011  0.00  0.00     0.171 C 
HETATM   30  C   UNK N   1      35.195  10.957  18.432  0.00  0.00     0.034 C 
ENDBRANCH  28  29
ENDBRANCH   9  28
TORSDOF 9
ENDMDL
MODEL 7
REMARK VINA RESULT:      -6.2      1.608      2.946
REMARK  9 active torsions:
REMARK  status: ('A' for Active; 'I' for Inactive)
REMARK    1  A    between atoms: O_1  and  C_13 
REMARK    2  A    between atoms: O_1  and  C_20 
REMARK    3  A    between atoms: O_2  and  C_14 
REMARK    4  A    between atoms: O_2  and  C_21 
REMARK    5  A    between atoms: O_3  and  C_19 
REMARK    6  A    between atoms: O_3  and  C_26 
REMARK    7  A    between atoms: O_4  and  C_22 
REMARK    8  A    between atoms: O_4  and  C_27 
REMARK    9  A    between atoms: C_15  and  C_16 
ROOT
HETATM    1  N   UNK N   1      27.662  17.660   8.186  0.00  0.00    -0.389 N 
HETATM    2  C   UNK N   1      29.657  17.797   9.654  0.00  0.00     0.059 C 
HETATM    3  C   UNK N   1      30.509  17.549   8.438  0.00  0.00    -0.041 A 
HETATM    4  C   UNK N   1      29.920  17.272   7.199  0.00  0.00    -0.001 A 
HETATM    5  C   UNK N   1      28.265  18.345   9.311  0.00  0.00     0.124 C 
HETATM    6  C   UNK N   1      28.450  17.265   7.073  0.00  0.00     0.039 C 
HETATM    7  C   UNK N   1      31.902  17.542   8.555  0.00  0.00     0.047 A 
HETATM    8  C   UNK N   1      30.728  16.994   6.092  0.00  0.00     0.054 A 
HETATM    9  C   UNK N   1      32.722  17.267   7.440  0.00  0.00     0.102 A 
HETATM   10  C   UNK N   1      32.116  16.986   6.187  0.00  0.00     0.102 A 
HETATM   11  C   UNK N   1      27.900  16.925   5.897  0.00  0.00     0.041 C 
HETATM   12  H   UNK N   1      26.696  17.467   8.194  0.00  0.00     0.159 HD
ENDROOT
BRANCH  11  13
HETATM   13  C   UNK N   1      26.481  16.883   5.522  0.00  0.00    -0.031 A 
HETATM   14  C   UNK N   1      25.908  18.075   5.087  0.00  0.00     0.051 A 
HETATM   15  C   UNK N   1      24.549  18.148   4.755  0.00  0.00     0.102 A 
HETATM   16  C   UNK N   1      23.752  16.995   4.859  0.00  0.00     0.102 A 
HETATM   17  C   UNK N   1      24.337  15.786   5.288  0.00  0.00     0.040 A 
HETATM   18  C   UNK N   1      25.693  15.732   5.621  0.00  0.00     0.014 A 
BRANCH  15  19
HETATM   19  O   UNK N   1      23.997  19.318   4.347  0.00  0.00    -0.349 OA
BRANCH  19  20
HETATM   20  C   UNK N   1      23.974  19.707   3.024  0.00  0.00     0.171 C 
HETATM   21  C   UNK N   1      25.131  20.640   2.742  0.00  0.00     0.034 C 
ENDBRANCH  19  20
ENDBRANCH  15  19
BRANCH  16  22
HETATM   22  O   UNK N   1      22.434  17.070   4.557  0.00  0.00    -0.349 OA
BRANCH  22  23
HETATM   23  C   UNK N   1      21.437  16.827   5.475  0.00  0.00     0.171 C 
HETATM   24  C   UNK N   1      21.293  18.021   6.393  0.00  0.00     0.034 C 
ENDBRANCH  22  23
ENDBRANCH  16  22
ENDBRANCH  11  13
BRANCH  10  25
HETATM   25  O   UNK N   1      32.811  16.699   5.056  0.00  0.00    -0.349 OA
BRANCH  25  26
HETATM   26  C   UNK N   1      32.974  17.529   3.974  0.00  0.00     0.171 C 
HETATM   27  C   UNK N   1      32.284  16.918   2.773  0.00  0.00     0.034 C 
ENDBRANCH  25  26
ENDBRANCH  10  25
BRANCH   9  28
HETATM   28  O   UNK N   1      34.072  17.260   7.561  0.00  0.00    -0.349 OA
BRANCH  28  29
HETATM   29  C   UNK N   1      34.753  16.458   8.447  0.00  0.00     0.171 C 
HETATM   30  C   UNK N   1      34.822  15.050   7.894  0.00  0.00     0.034 C 
ENDBRANCH  28  29
ENDBRANCH   9  28
TORSDOF 9
ENDMDL
MODEL 8
REMARK VINA RESULT:      -6.1      2.465      9.883
REMARK  9 active torsions:
REMARK  status: ('A' for Active; 'I' for Inactive)
REMARK    1  A    between atoms: O_1  and  C_13 
REMARK    2  A    between atoms: O_1  and  C_20 
REMARK    3  A    between atoms: O_2  and  C_14 
REMARK    4  A    between atoms: O_2  and  C_21 
REMARK    5  A    between atoms: O_3  and  C_19 
REMARK    6  A    between atoms: O_3  and  C_26 
REMARK    7  A    between atoms: O_4  and  C_22 
REMARK    8  A    between atoms: O_4  and  C_27 
REMARK    9  A    between atoms: C_15  and  C_16 
ROOT
HETATM    1  N   UNK N   1      29.912  15.011   5.584  0.00  0.00    -0.389 N 
HETATM    2  C   UNK N   1      27.753  14.893   4.368  0.00  0.00     0.059 C 
HETATM    3  C   UNK N   1      27.708  16.396   4.400  0.00  0.00    -0.041 A 
HETATM    4  C   UNK N   1      28.683  17.125   5.090  0.00  0.00    -0.001 A 
HETATM    5  C   UNK N   1      29.170  14.329   4.542  0.00  0.00     0.124 C 
HETATM    6  C   UNK N   1      29.790  16.414   5.758  0.00  0.00     0.039 C 
HETATM    7  C   UNK N   1      26.653  17.074   3.779  0.00  0.00     0.047 A 
HETATM    8  C   UNK N   1      28.597  18.519   5.151  0.00  0.00     0.054 A 
HETATM    9  C   UNK N   1      26.563  18.481   3.833  0.00  0.00     0.102 A 
HETATM   10  C   UNK N   1      27.558  19.212   4.536  0.00  0.00     0.102 A 
HETATM   11  C   UNK N   1      30.676  17.121   6.477  0.00  0.00     0.041 C 
HETATM   12  H   UNK N   1      30.506  14.495   6.176  0.00  0.00     0.159 HD
ENDROOT
BRANCH  11  13
HETATM   13  C   UNK N   1      31.869  16.648   7.192  0.00  0.00    -0.031 A 
HETATM   14  C   UNK N   1      33.042  16.532   6.452  0.00  0.00     0.051 A 
HETATM   15  C   UNK N   1      34.219  16.041   7.032  0.00  0.00     0.102 A 
HETATM   16  C   UNK N   1      34.215  15.666   8.386  0.00  0.00     0.102 A 
HETATM   17  C   UNK N   1      33.029  15.795   9.136  0.00  0.00     0.040 A 
HETATM   18  C   UNK N   1      31.861  16.280   8.541  0.00  0.00     0.014 A 
BRANCH  15  19
HETATM   19  O   UNK N   1      35.354  15.918   6.298  0.00  0.00    -0.349 OA
BRANCH  19  20
HETATM   20  C   UNK N   1      35.627  14.802   5.534  0.00  0.00     0.171 C 
HETATM   21  C   UNK N   1      37.060  14.368   5.751  0.00  0.00     0.034 C 
ENDBRANCH  19  20
ENDBRANCH  15  19
BRANCH  16  22
HETATM   22  O   UNK N   1      35.348  15.173   8.941  0.00  0.00    -0.349 OA
BRANCH  22  23
HETATM   23  C   UNK N   1      35.384  14.002   9.663  0.00  0.00     0.171 C 
HETATM   24  C   UNK N   1      35.290  12.823   8.720  0.00  0.00     0.034 C 
ENDBRANCH  22  23
ENDBRANCH  16  22
ENDBRANCH  11  13
BRANCH  10  25
HETATM   25  O   UNK N   1      27.560  20.564   4.659  0.00  0.00    -0.349 OA
BRANCH  25  26
HETATM   26  C   UNK N   1      27.605  21.270   5.837  0.00  0.00     0.171 C 
HETATM   27  C   UNK N   1      26.335  21.008   6.619  0.00  0.00     0.034 C 
ENDBRANCH  25  26
ENDBRANCH  10  25
BRANCH   9  28
HETATM   28  O   UNK N   1      25.538  19.131   3.231  0.00  0.00    -0.349 OA
BRANCH  28  29
HETATM   29  C   UNK N   1      24.327  19.370   3.837  0.00  0.00     0.171 C 
HETATM   30  C   UNK N   1      23.581  20.434   3.060  0.00  0.00     0.034 C 
ENDBRANCH  28  29
ENDBRANCH   9  28
TORSDOF 9
ENDMDL
MODEL 9
REMARK VINA RESULT:      -6.1      7.923     13.080
REMARK  9 active torsions:
REMARK  status: ('A' for Active; 'I' for Inactive)
REMARK    1  A    between atoms: O_1  and  C_13 
REMARK    2  A    between atoms: O_1  and  C_20 
REMARK    3  A    between atoms: O_2  and  C_14 
REMARK    4  A    between atoms: O_2  and  C_21 
REMARK    5  A    between atoms: O_3  and  C_19 
REMARK    6  A    between atoms: O_3  and  C_26 
REMARK    7  A    between atoms: O_4  and  C_22 
REMARK    8  A    between atoms: O_4  and  C_27 
REMARK    9  A    between atoms: C_15  and  C_16 
ROOT
HETATM    1  N   UNK N   1      36.789  12.294  11.696  0.00  0.00    -0.389 N 
HETATM    2  C   UNK N   1      37.934  10.554  13.044  0.00  0.00     0.059 C 
HETATM    3  C   UNK N   1      37.087  10.973  14.215  0.00  0.00    -0.041 A 
HETATM    4  C   UNK N   1      36.223  12.070  14.115  0.00  0.00    -0.001 A 
HETATM    5  C   UNK N   1      37.326  10.949  11.690  0.00  0.00     0.124 C 
HETATM    6  C   UNK N   1      36.111  12.797  12.837  0.00  0.00     0.039 C 
HETATM    7  C   UNK N   1      37.200  10.295  15.433  0.00  0.00     0.047 A 
HETATM    8  C   UNK N   1      35.483  12.475  15.230  0.00  0.00     0.054 A 
HETATM    9  C   UNK N   1      36.452  10.697  16.559  0.00  0.00     0.102 A 
HETATM   10  C   UNK N   1      35.578  11.811  16.449  0.00  0.00     0.102 A 
HETATM   11  C   UNK N   1      35.335  13.891  12.778  0.00  0.00     0.041 C 
HETATM   12  H   UNK N   1      36.897  12.865  10.901  0.00  0.00     0.159 HD
ENDROOT
BRANCH  11  13
HETATM   13  C   UNK N   1      35.037  14.748  11.623  0.00  0.00    -0.031 A 
HETATM   14  C   UNK N   1      34.087  14.282  10.720  0.00  0.00     0.051 A 
HETATM   15  C   UNK N   1      33.773  15.003   9.560  0.00  0.00     0.102 A 
HETATM   16  C   UNK N   1      34.425  16.222   9.311  0.00  0.00     0.102 A 
HETATM   17  C   UNK N   1      35.378  16.699  10.232  0.00  0.00     0.040 A 
HETATM   18  C   UNK N   1      35.686  15.964  11.381  0.00  0.00     0.014 A 
BRANCH  15  19
HETATM   19  O   UNK N   1      32.856  14.532   8.678  0.00  0.00    -0.349 OA
BRANCH  19  20
HETATM   20  C   UNK N   1      33.145  13.541   7.764  0.00  0.00     0.171 C 
HETATM   21  C   UNK N   1      32.950  14.065   6.358  0.00  0.00     0.034 C 
ENDBRANCH  19  20
ENDBRANCH  15  19
BRANCH  16  22
HETATM   22  O   UNK N   1      34.135  16.910   8.180  0.00  0.00    -0.349 OA
BRANCH  22  23
HETATM   23  C   UNK N   1      33.377  18.060   8.173  0.00  0.00     0.171 C 
HETATM   24  C   UNK N   1      31.971  17.737   7.719  0.00  0.00     0.034 C 
ENDBRANCH  22  23
ENDBRANCH  16  22
ENDBRANCH  11  13
BRANCH  10  25
HETATM   25  O   UNK N   1      34.822  12.286  17.472  0.00  0.00    -0.349 OA
BRANCH  25  26
HETATM   26  C   UNK N   1      35.214  13.216  18.403  0.00  0.00     0.171 C 
HETATM   27  C   UNK N   1      35.293  12.553  19.762  0.00  0.00     0.034 C 
ENDBRANCH  25  26
ENDBRANCH  10  25
BRANCH   9  28
HETATM   28  O   UNK N   1      36.567  10.035  17.737  0.00  0.00    -0.349 OA
BRANCH  28  29
HETATM   29  C   UNK N   1      36.064   8.773  17.953  0.00  0.00     0.171 C 
HETATM   30  C   UNK N   1      34.679   8.885  18.554  0.00  0.00     0.034 C 
ENDBRANCH  28  29
ENDBRANCH   9  28
TORSDOF 9
ENDMDL
