REMARK  9 active torsions:
REMARK  status: ('A' for Active; 'I' for Inactive)
REMARK    1  A    between atoms: O_1  and  C_13 
REMARK    2  A    between atoms: O_1  and  C_20 
REMARK    3  A    between atoms: O_2  and  C_14 
REMARK    4  A    between atoms: O_2  and  C_21 
REMARK    5  A    between atoms: O_3  and  C_19 
REMARK    6  A    between atoms: O_3  and  C_26 
REMARK    7  A    between atoms: O_4  and  C_22 
REMARK    8  A    between atoms: O_4  and  C_27 
REMARK    9  A    between atoms: C_15  and  C_16 
ROOT
HETATM    1  N   UNK N   1       7.371   2.185   0.029  0.00  0.00    -0.389 N 
HETATM    2  C   UNK N   1       6.067   4.292  -0.090  0.00  0.00     0.059 C 
HETATM    3  C   UNK N   1       4.813   3.463  -0.021  0.00  0.00    -0.041 A 
HETATM    4  C   UNK N   1       4.880   2.065  -0.033  0.00  0.00    -0.001 A 
HETATM    5  C   UNK N   1       7.300   3.565   0.465  0.00  0.00     0.124 C 
HETATM    6  C   UNK N   1       6.195   1.397  -0.071  0.00  0.00     0.039 C 
HETATM    7  C   UNK N   1       3.564   4.092   0.002  0.00  0.00     0.047 A 
HETATM    8  C   UNK N   1       3.702   1.312  -0.020  0.00  0.00     0.054 A 
HETATM    9  C   UNK N   1       2.372   3.337   0.020  0.00  0.00     0.102 A 
HETATM   10  C   UNK N   1       2.450   1.919   0.007  0.00  0.00     0.102 A 
HETATM   11  C   UNK N   1       6.241   0.058  -0.157  0.00  0.00     0.041 C 
HETATM   12  H   UNK N   1       8.244   1.791  -0.200  0.00  0.00     0.159 HD
ENDROOT
BRANCH  11  13
HETATM   13  C   UNK N   1       7.415  -0.824  -0.170  0.00  0.00    -0.031 A 
HETATM   14  C   UNK N   1       7.177  -2.192  -0.080  0.00  0.00     0.051 A 
HETATM   15  C   UNK N   1       8.234  -3.111  -0.033  0.00  0.00     0.102 A 
HETATM   16  C   UNK N   1       9.557  -2.641  -0.084  0.00  0.00     0.102 A 
HETATM   17  C   UNK N   1       9.796  -1.256  -0.187  0.00  0.00     0.040 A 
HETATM   18  C   UNK N   1       8.731  -0.352  -0.226  0.00  0.00     0.014 A 
BRANCH  15  19
HETATM   19  O   UNK N   1       7.991  -4.442   0.070  0.00  0.00    -0.349 OA
BRANCH  19  20
HETATM   20  C   UNK N   1       6.716  -4.959   0.169  0.00  0.00     0.171 C 
HETATM   21  C   UNK N   1       6.772  -6.471   0.163  0.00  0.00     0.034 C 
ENDBRANCH  19  20
ENDBRANCH  15  19
BRANCH  16  22
HETATM   22  O   UNK N   1      10.579  -3.528  -0.019  0.00  0.00    -0.349 OA
BRANCH  22  23
HETATM   23  C   UNK N   1      11.903  -3.151  -0.022  0.00  0.00     0.171 C 
HETATM   24  C   UNK N   1      12.777  -4.372   0.162  0.00  0.00     0.034 C 
ENDBRANCH  22  23
ENDBRANCH  16  22
ENDBRANCH  11  13
BRANCH  10  25
HETATM   25  O   UNK N   1       1.367   1.100   0.012  0.00  0.00    -0.349 OA
BRANCH  25  26
HETATM   26  C   UNK N   1       0.052   1.498   0.023  0.00  0.00     0.171 C 
HETATM   27  C   UNK N   1      -0.836   0.272  -0.005  0.00  0.00     0.034 C 
ENDBRANCH  25  26
ENDBRANCH  10  25
BRANCH   9  28
HETATM   28  O   UNK N   1       1.165   3.953   0.041  0.00  0.00    -0.349 OA
BRANCH  28  29
HETATM   29  C   UNK N   1       1.008   5.320   0.043  0.00  0.00     0.171 C 
HETATM   30  C   UNK N   1      -0.469   5.652   0.013  0.00  0.00     0.034 C 
ENDBRANCH  28  29
ENDBRANCH   9  28
TORSDOF 9
