MODEL 1
REMARK VINA RESULT:      -7.9      0.000      0.000
REMARK  6 active torsions:
REMARK  status: ('A' for Active; 'I' for Inactive)
REMARK    1  A    between atoms: S_2  and  N_10 
REMARK    2  A    between atoms: S_2  and  C_16 
REMARK    3  A    between atoms: N_10  and  C_27 
REMARK    4  A    between atoms: C_13  and  C_14 
REMARK    5  A    between atoms: C_14  and  C_19 
REMARK    6  A    between atoms: C_17  and  C_19 
ROOT
HETATM    1  S   UNK N   1      36.761   9.984  13.772  0.00  0.00    -0.097 SA
HETATM    2  C   UNK N   1      36.517  12.220  12.790  0.00  0.00     0.101 A 
HETATM    3  C   UNK N   1      35.954  11.431  13.810  0.00  0.00     0.074 A 
HETATM    4  C   UNK N   1      37.552  11.559  12.070  0.00  0.00     0.034 A 
HETATM    5  C   UNK N   1      37.806  10.254  12.510  0.00  0.00     0.052 A 
ENDROOT
BRANCH   2   6
HETATM    6  S   UNK N   1      36.134  13.947  12.461  0.00  0.00     0.266 S 
HETATM    7  O   UNK N   1      36.408  14.809  13.703  0.00  0.00    -0.200 OA
HETATM    8  O   UNK N   1      34.616  14.142  12.351  0.00  0.00    -0.200 OA
BRANCH   6   9
HETATM    9  N   UNK N   1      36.774  14.888  11.122  0.00  0.00    -0.257 N 
HETATM   10  H   UNK N   1      37.725  14.801  10.883  0.00  0.00     0.181 HD
BRANCH   9  11
HETATM   11  C   UNK N   1      35.951  15.764  10.382  0.00  0.00     0.203 A 
HETATM   12  O   UNK N   1      35.650  16.996  10.729  0.00  0.00    -0.217 OA
HETATM   13  N   UNK N   1      34.825  17.527   9.872  0.00  0.00    -0.262 N 
HETATM   14  C   UNK N   1      34.566  16.593   8.931  0.00  0.00     0.055 A 
ATOM     15  HN  UNK N   1      34.444  18.472   9.906  1.00  0.00     0.194 HD
HETATM   16  C   UNK N   1      35.276  15.454   9.228  0.00  0.00     0.112 A 
HETATM   17  C   UNK N   1      33.627  16.787   7.795  0.00  0.00     0.072 C 
HETATM   18 Cl   UNK N   1      35.260  13.922   8.370  0.00  0.00    -0.077 Cl
ENDBRANCH   9  11
ENDBRANCH   6   9
ENDBRANCH   2   6
BRANCH   3  19
HETATM   19  C   UNK N   1      34.847  11.745  14.745  0.00  0.00     0.172 C 
HETATM   20  O   UNK N   1      33.703  11.429  14.455  0.00  0.00    -0.291 OA
BRANCH  19  21
HETATM   21  C   UNK N   1      35.100  12.630  15.930  0.00  0.00     0.123 C 
BRANCH  21  22
HETATM   22  C   UNK N   1      35.198  12.022  17.305  0.00  0.00    -0.042 A 
HETATM   23  C   UNK N   1      35.269  12.893  18.431  0.00  0.00    -0.052 A 
HETATM   24  C   UNK N   1      35.323  12.365  19.733  0.00  0.00     0.047 A 
HETATM   25  C   UNK N   1      35.279  14.374  18.263  0.00  0.00     0.049 C 
HETATM   26  C   UNK N   1      35.297  10.985  19.874  0.00  0.00     0.105 A 
HETATM   27  O   UNK N   1      35.326  10.273  20.997  0.00  0.00    -0.323 OA
HETATM   28  C   UNK N   1      35.229  10.159  18.825  0.00  0.00     0.105 A 
HETATM   29  C   UNK N   1      35.269   8.917  20.661  0.00  0.00     0.352 A 
HETATM   30  O   UNK N   1      35.210   8.901  19.263  0.00  0.00    -0.323 OA
HETATM   31  C   UNK N   1      35.180  10.623  17.510  0.00  0.00     0.047 A 
ENDBRANCH  21  22
ENDBRANCH  19  21
ENDBRANCH   3  19
TORSDOF 6
ENDMDL
MODEL 2
REMARK VINA RESULT:      -7.8     21.023     25.002
REMARK  6 active torsions:
REMARK  status: ('A' for Active; 'I' for Inactive)
REMARK    1  A    between atoms: S_2  and  N_10 
REMARK    2  A    between atoms: S_2  and  C_16 
REMARK    3  A    between atoms: N_10  and  C_27 
REMARK    4  A    between atoms: C_13  and  C_14 
REMARK    5  A    between atoms: C_14  and  C_19 
REMARK    6  A    between atoms: C_17  and  C_19 
ROOT
HETATM    1  S   UNK N   1      27.202  22.714  -7.504  0.00  0.00    -0.097 SA
HETATM    2  C   UNK N   1      28.100  23.447  -5.340  0.00  0.00     0.101 A 
HETATM    3  C   UNK N   1      27.009  23.707  -6.192  0.00  0.00     0.074 A 
HETATM    4  C   UNK N   1      28.992  22.462  -5.851  0.00  0.00     0.034 A 
HETATM    5  C   UNK N   1      28.619  21.948  -7.098  0.00  0.00     0.052 A 
ENDROOT
BRANCH   2   6
HETATM    6  S   UNK N   1      28.337  24.130  -3.693  0.00  0.00     0.266 S 
HETATM    7  O   UNK N   1      27.062  23.968  -2.850  0.00  0.00    -0.200 OA
HETATM    8  O   UNK N   1      28.400  25.662  -3.758  0.00  0.00    -0.200 OA
BRANCH   6   9
HETATM    9  N   UNK N   1      29.645  23.704  -2.600  0.00  0.00    -0.257 N 
HETATM   10  H   UNK N   1      29.656  24.082  -1.691  0.00  0.00     0.181 HD
BRANCH   9  11
HETATM   11  C   UNK N   1      30.680  22.833  -3.000  0.00  0.00     0.203 A 
HETATM   12  O   UNK N   1      30.839  21.599  -2.578  0.00  0.00    -0.217 OA
HETATM   13  N   UNK N   1      31.918  21.073  -3.083  0.00  0.00    -0.262 N 
HETATM   14  C   UNK N   1      32.497  22.014  -3.861  0.00  0.00     0.055 A 
ATOM     15  HN  UNK N   1      32.264  20.128  -2.922  1.00  0.00     0.194 HD
HETATM   16  C   UNK N   1      31.726  23.152  -3.832  0.00  0.00     0.112 A 
HETATM   17  C   UNK N   1      33.784  21.829  -4.584  0.00  0.00     0.072 C 
HETATM   18 Cl   UNK N   1      32.046  24.691  -4.614  0.00  0.00    -0.077 Cl
ENDBRANCH   9  11
ENDBRANCH   6   9
ENDBRANCH   2   6
BRANCH   3  19
HETATM   19  C   UNK N   1      25.897  24.675  -6.033  0.00  0.00     0.172 C 
HETATM   20  O   UNK N   1      24.897  24.349  -5.412  0.00  0.00    -0.291 OA
BRANCH  19  21
HETATM   21  C   UNK N   1      25.911  25.961  -6.807  0.00  0.00     0.123 C 
BRANCH  21  22
HETATM   22  C   UNK N   1      26.423  27.218  -6.152  0.00  0.00    -0.042 A 
HETATM   23  C   UNK N   1      27.421  27.979  -6.827  0.00  0.00    -0.052 A 
HETATM   24  C   UNK N   1      27.897  29.177  -6.267  0.00  0.00     0.047 A 
HETATM   25  C   UNK N   1      27.977  27.535  -8.137  0.00  0.00     0.049 C 
HETATM   26  C   UNK N   1      27.359  29.585  -5.055  0.00  0.00     0.105 A 
HETATM   27  O   UNK N   1      27.646  30.678  -4.354  0.00  0.00    -0.323 OA
HETATM   28  C   UNK N   1      26.421  28.880  -4.414  0.00  0.00     0.105 A 
HETATM   29  C   UNK N   1      26.852  30.686  -3.203  0.00  0.00     0.352 A 
HETATM   30  O   UNK N   1      26.091  29.515  -3.291  0.00  0.00    -0.323 OA
HETATM   31  C   UNK N   1      25.914  27.680  -4.916  0.00  0.00     0.047 A 
ENDBRANCH  21  22
ENDBRANCH  19  21
ENDBRANCH   3  19
TORSDOF 6
ENDMDL
MODEL 3
REMARK VINA RESULT:      -7.7     21.003     23.302
REMARK  6 active torsions:
REMARK  status: ('A' for Active; 'I' for Inactive)
REMARK    1  A    between atoms: S_2  and  N_10 
REMARK    2  A    between atoms: S_2  and  C_16 
REMARK    3  A    between atoms: N_10  and  C_27 
REMARK    4  A    between atoms: C_13  and  C_14 
REMARK    5  A    between atoms: C_14  and  C_19 
REMARK    6  A    between atoms: C_17  and  C_19 
ROOT
HETATM    1  S   UNK N   1      31.289  25.206  -4.020  0.00  0.00    -0.097 SA
HETATM    2  C   UNK N   1      28.842  25.022  -3.952  0.00  0.00     0.101 A 
HETATM    3  C   UNK N   1      29.982  24.353  -3.466  0.00  0.00     0.074 A 
HETATM    4  C   UNK N   1      29.153  26.167  -4.738  0.00  0.00     0.034 A 
HETATM    5  C   UNK N   1      30.525  26.404  -4.882  0.00  0.00     0.052 A 
ENDROOT
BRANCH   2   6
HETATM    6  S   UNK N   1      27.135  24.628  -3.542  0.00  0.00     0.266 S 
HETATM    7  O   UNK N   1      26.419  25.858  -2.963  0.00  0.00    -0.200 OA
HETATM    8  O   UNK N   1      27.083  23.707  -2.316  0.00  0.00    -0.200 OA
BRANCH   6   9
HETATM    9  N   UNK N   1      25.969  23.918  -4.647  0.00  0.00    -0.257 N 
HETATM   10  H   UNK N   1      25.254  23.343  -4.290  0.00  0.00     0.181 HD
BRANCH   9  11
HETATM   11  C   UNK N   1      26.036  24.155  -6.037  0.00  0.00     0.203 A 
HETATM   12  O   UNK N   1      26.510  23.313  -6.928  0.00  0.00    -0.217 OA
HETATM   13  N   UNK N   1      26.492  23.843  -8.118  0.00  0.00    -0.262 N 
HETATM   14  C   UNK N   1      25.995  25.093  -7.994  0.00  0.00     0.055 A 
ATOM     15  HN  UNK N   1      26.797  23.398  -8.983  1.00  0.00     0.194 HD
HETATM   16  C   UNK N   1      25.690  25.322  -6.673  0.00  0.00     0.112 A 
HETATM   17  C   UNK N   1      25.854  26.054  -9.120  0.00  0.00     0.072 C 
HETATM   18 Cl   UNK N   1      25.072  26.798  -5.950  0.00  0.00    -0.077 Cl
ENDBRANCH   9  11
ENDBRANCH   6   9
ENDBRANCH   2   6
BRANCH   3  19
HETATM   19  C   UNK N   1      30.076  23.119  -2.649  0.00  0.00     0.172 C 
HETATM   20  O   UNK N   1      30.298  23.204  -1.451  0.00  0.00    -0.291 OA
BRANCH  19  21
HETATM   21  C   UNK N   1      30.113  21.779  -3.324  0.00  0.00     0.123 C 
BRANCH  21  22
HETATM   22  C   UNK N   1      31.379  21.321  -4.000  0.00  0.00    -0.042 A 
HETATM   23  C   UNK N   1      31.309  20.887  -5.355  0.00  0.00    -0.052 A 
HETATM   24  C   UNK N   1      32.474  20.487  -6.032  0.00  0.00     0.047 A 
HETATM   25  C   UNK N   1      30.012  20.853  -6.089  0.00  0.00     0.049 C 
HETATM   26  C   UNK N   1      33.675  20.539  -5.341  0.00  0.00     0.105 A 
HETATM   27  O   UNK N   1      34.891  20.224  -5.780  0.00  0.00    -0.323 OA
HETATM   28  C   UNK N   1      33.754  20.946  -4.070  0.00  0.00     0.105 A 
HETATM   29  C   UNK N   1      35.805  20.442  -4.744  0.00  0.00     0.352 A 
HETATM   30  O   UNK N   1      35.025  20.901  -3.675  0.00  0.00    -0.323 OA
HETATM   31  C   UNK N   1      32.632  21.349  -3.343  0.00  0.00     0.047 A 
ENDBRANCH  21  22
ENDBRANCH  19  21
ENDBRANCH   3  19
TORSDOF 6
ENDMDL
MODEL 4
REMARK VINA RESULT:      -7.7      4.033     10.615
REMARK  6 active torsions:
REMARK  status: ('A' for Active; 'I' for Inactive)
REMARK    1  A    between atoms: S_2  and  N_10 
REMARK    2  A    between atoms: S_2  and  C_16 
REMARK    3  A    between atoms: N_10  and  C_27 
REMARK    4  A    between atoms: C_13  and  C_14 
REMARK    5  A    between atoms: C_14  and  C_19 
REMARK    6  A    between atoms: C_17  and  C_19 
ROOT
HETATM    1  S   UNK N   1      35.212  14.718   6.351  0.00  0.00    -0.097 SA
HETATM    2  C   UNK N   1      35.541  15.165   8.742  0.00  0.00     0.101 A 
HETATM    3  C   UNK N   1      34.891  15.726   7.626  0.00  0.00     0.074 A 
HETATM    4  C   UNK N   1      36.247  13.966   8.441  0.00  0.00     0.034 A 
HETATM    5  C   UNK N   1      36.164  13.579   7.098  0.00  0.00     0.052 A 
ENDROOT
BRANCH   2   6
HETATM    6  S   UNK N   1      35.419  15.753  10.438  0.00  0.00     0.266 S 
HETATM    7  O   UNK N   1      33.959  15.734  10.915  0.00  0.00    -0.200 OA
HETATM    8  O   UNK N   1      35.680  17.265  10.495  0.00  0.00    -0.200 OA
BRANCH   6   9
HETATM    9  N   UNK N   1      36.336  15.120  11.796  0.00  0.00    -0.257 N 
HETATM   10  H   UNK N   1      37.226  15.491  11.992  0.00  0.00     0.181 HD
BRANCH   9  11
HETATM   11  C   UNK N   1      35.820  14.090  12.612  0.00  0.00     0.203 A 
HETATM   12  O   UNK N   1      35.003  13.142  12.212  0.00  0.00    -0.217 OA
HETATM   13  N   UNK N   1      34.661  12.378  13.210  0.00  0.00    -0.262 N 
HETATM   14  C   UNK N   1      35.272  12.859  14.314  0.00  0.00     0.055 A 
ATOM     15  HN  UNK N   1      34.044  11.567  13.166  1.00  0.00     0.194 HD
HETATM   16  C   UNK N   1      36.026  13.954  13.964  0.00  0.00     0.112 A 
HETATM   17  C   UNK N   1      35.102  12.295  15.680  0.00  0.00     0.072 C 
HETATM   18 Cl   UNK N   1      36.973  14.992  15.017  0.00  0.00    -0.077 Cl
ENDBRANCH   9  11
ENDBRANCH   6   9
ENDBRANCH   2   6
BRANCH   3  19
HETATM   19  C   UNK N   1      34.092  16.971   7.525  0.00  0.00     0.172 C 
HETATM   20  O   UNK N   1      34.625  17.999   7.135  0.00  0.00    -0.291 OA
BRANCH  19  21
HETATM   21  C   UNK N   1      32.707  17.017   8.099  0.00  0.00     0.123 C 
BRANCH  21  22
HETATM   22  C   UNK N   1      31.520  17.072   7.173  0.00  0.00    -0.042 A 
HETATM   23  C   UNK N   1      30.308  17.648   7.654  0.00  0.00    -0.052 A 
HETATM   24  C   UNK N   1      29.189  17.752   6.809  0.00  0.00     0.047 A 
HETATM   25  C   UNK N   1      30.196  18.158   9.050  0.00  0.00     0.049 C 
HETATM   26  C   UNK N   1      29.314  17.287   5.508  0.00  0.00     0.105 A 
HETATM   27  O   UNK N   1      28.401  17.295   4.541  0.00  0.00    -0.323 OA
HETATM   28  C   UNK N   1      30.446  16.747   5.046  0.00  0.00     0.105 A 
HETATM   29  C   UNK N   1      28.970  16.736   3.392  0.00  0.00     0.352 A 
HETATM   30  O   UNK N   1      30.275  16.402   3.771  0.00  0.00    -0.323 OA
HETATM   31  C   UNK N   1      31.587  16.610   5.838  0.00  0.00     0.047 A 
ENDBRANCH  21  22
ENDBRANCH  19  21
ENDBRANCH   3  19
TORSDOF 6
ENDMDL
MODEL 5
REMARK VINA RESULT:      -7.6      3.550      9.886
REMARK  6 active torsions:
REMARK  status: ('A' for Active; 'I' for Inactive)
REMARK    1  A    between atoms: S_2  and  N_10 
REMARK    2  A    between atoms: S_2  and  C_16 
REMARK    3  A    between atoms: N_10  and  C_27 
REMARK    4  A    between atoms: C_13  and  C_14 
REMARK    5  A    between atoms: C_14  and  C_19 
REMARK    6  A    between atoms: C_17  and  C_19 
ROOT
HETATM    1  S   UNK N   1      33.269  14.074   8.277  0.00  0.00    -0.097 SA
HETATM    2  C   UNK N   1      35.267  13.932   9.697  0.00  0.00     0.101 A 
HETATM    3  C   UNK N   1      34.431  14.906   9.116  0.00  0.00     0.074 A 
HETATM    4  C   UNK N   1      34.876  12.598   9.390  0.00  0.00     0.034 A 
HETATM    5  C   UNK N   1      33.746  12.510   8.570  0.00  0.00     0.052 A 
ENDROOT
BRANCH   2   6
HETATM    6  S   UNK N   1      36.616  14.251  10.843  0.00  0.00     0.266 S 
HETATM    7  O   UNK N   1      37.670  15.166  10.200  0.00  0.00    -0.200 OA
HETATM    8  O   UNK N   1      37.464  12.985  11.029  0.00  0.00    -0.200 OA
BRANCH   6   9
HETATM    9  N   UNK N   1      36.430  14.871  12.476  0.00  0.00    -0.257 N 
HETATM   10  H   UNK N   1      36.695  15.798  12.673  0.00  0.00     0.181 HD
BRANCH   9  11
HETATM   11  C   UNK N   1      35.909  14.066  13.512  0.00  0.00     0.203 A 
HETATM   12  O   UNK N   1      34.970  13.157  13.367  0.00  0.00    -0.217 OA
HETATM   13  N   UNK N   1      34.663  12.625  14.515  0.00  0.00    -0.262 N 
HETATM   14  C   UNK N   1      35.428  13.224  15.454  0.00  0.00     0.055 A 
ATOM     15  HN  UNK N   1      33.973  11.892  14.677  1.00  0.00     0.194 HD
HETATM   16  C   UNK N   1      36.239  14.150  14.842  0.00  0.00     0.112 A 
HETATM   17  C   UNK N   1      35.348  12.934  16.911  0.00  0.00     0.072 C 
HETATM   18 Cl   UNK N   1      37.382  15.248  15.599  0.00  0.00    -0.077 Cl
ENDBRANCH   9  11
ENDBRANCH   6   9
ENDBRANCH   2   6
BRANCH   3  19
HETATM   19  C   UNK N   1      34.523  16.384   9.172  0.00  0.00     0.172 C 
HETATM   20  O   UNK N   1      34.726  16.937  10.243  0.00  0.00    -0.291 OA
BRANCH  19  21
HETATM   21  C   UNK N   1      34.159  17.200   7.966  0.00  0.00     0.123 C 
BRANCH  21  22
HETATM   22  C   UNK N   1      32.717  17.288   7.536  0.00  0.00    -0.042 A 
HETATM   23  C   UNK N   1      32.409  17.142   6.153  0.00  0.00    -0.052 A 
HETATM   24  C   UNK N   1      31.074  17.182   5.716  0.00  0.00     0.047 A 
HETATM   25  C   UNK N   1      33.484  16.938   5.140  0.00  0.00     0.049 C 
HETATM   26  C   UNK N   1      30.085  17.356   6.672  0.00  0.00     0.105 A 
HETATM   27  O   UNK N   1      28.768  17.411   6.492  0.00  0.00    -0.323 OA
HETATM   28  C   UNK N   1      30.361  17.492   7.973  0.00  0.00     0.105 A 
HETATM   29  C   UNK N   1      28.159  17.587   7.739  0.00  0.00     0.352 A 
HETATM   30  O   UNK N   1      29.222  17.634   8.648  0.00  0.00    -0.323 OA
HETATM   31  C   UNK N   1      31.667  17.469   8.466  0.00  0.00     0.047 A 
ENDBRANCH  21  22
ENDBRANCH  19  21
ENDBRANCH   3  19
TORSDOF 6
ENDMDL
MODEL 6
REMARK VINA RESULT:      -7.6     20.602     23.984
REMARK  6 active torsions:
REMARK  status: ('A' for Active; 'I' for Inactive)
REMARK    1  A    between atoms: S_2  and  N_10 
REMARK    2  A    between atoms: S_2  and  C_16 
REMARK    3  A    between atoms: N_10  and  C_27 
REMARK    4  A    between atoms: C_13  and  C_14 
REMARK    5  A    between atoms: C_14  and  C_19 
REMARK    6  A    between atoms: C_17  and  C_19 
ROOT
HETATM    1  S   UNK N   1      30.522  26.549  -3.916  0.00  0.00    -0.097 SA
HETATM    2  C   UNK N   1      28.239  27.446  -3.815  0.00  0.00     0.101 A 
HETATM    3  C   UNK N   1      28.901  26.206  -3.904  0.00  0.00     0.074 A 
HETATM    4  C   UNK N   1      29.127  28.558  -3.772  0.00  0.00     0.034 A 
HETATM    5  C   UNK N   1      30.481  28.208  -3.833  0.00  0.00     0.052 A 
ENDROOT
BRANCH   2   6
HETATM    6  S   UNK N   1      26.467  27.682  -3.616  0.00  0.00     0.266 S 
HETATM    7  O   UNK N   1      26.153  29.136  -3.232  0.00  0.00    -0.200 OA
HETATM    8  O   UNK N   1      25.978  26.977  -2.343  0.00  0.00    -0.200 OA
BRANCH   6   9
HETATM    9  N   UNK N   1      25.251  27.269  -4.815  0.00  0.00    -0.257 N 
HETATM   10  H   UNK N   1      24.442  27.824  -4.892  0.00  0.00     0.181 HD
BRANCH   9  11
HETATM   11  C   UNK N   1      25.411  26.157  -5.669  0.00  0.00     0.203 A 
HETATM   12  O   UNK N   1      24.885  24.969  -5.475  0.00  0.00    -0.217 OA
HETATM   13  N   UNK N   1      25.263  24.139  -6.406  0.00  0.00    -0.262 N 
HETATM   14  C   UNK N   1      26.085  24.816  -7.238  0.00  0.00     0.055 A 
ATOM     15  HN  UNK N   1      24.990  23.160  -6.490  1.00  0.00     0.194 HD
HETATM   16  C   UNK N   1      26.197  26.112  -6.795  0.00  0.00     0.112 A 
HETATM   17  C   UNK N   1      26.773  24.212  -8.409  0.00  0.00     0.072 C 
HETATM   18 Cl   UNK N   1      27.184  27.399  -7.468  0.00  0.00    -0.077 Cl
ENDBRANCH   9  11
ENDBRANCH   6   9
ENDBRANCH   2   6
BRANCH   3  19
HETATM   19  C   UNK N   1      28.336  24.839  -4.002  0.00  0.00     0.172 C 
HETATM   20  O   UNK N   1      27.624  24.414  -3.105  0.00  0.00    -0.291 OA
BRANCH  19  21
HETATM   21  C   UNK N   1      28.808  23.914  -5.085  0.00  0.00     0.123 C 
BRANCH  21  22
HETATM   22  C   UNK N   1      29.843  22.865  -4.768  0.00  0.00    -0.042 A 
HETATM   23  C   UNK N   1      30.019  21.785  -5.681  0.00  0.00    -0.052 A 
HETATM   24  C   UNK N   1      30.999  20.806  -5.440  0.00  0.00     0.047 A 
HETATM   25  C   UNK N   1      29.183  21.668  -6.910  0.00  0.00     0.049 C 
HETATM   26  C   UNK N   1      31.780  20.938  -4.301  0.00  0.00     0.105 A 
HETATM   27  O   UNK N   1      32.764  20.147  -3.883  0.00  0.00    -0.323 OA
HETATM   28  C   UNK N   1      31.625  21.947  -3.439  0.00  0.00     0.105 A 
HETATM   29  C   UNK N   1      33.277  20.671  -2.693  0.00  0.00     0.352 A 
HETATM   30  O   UNK N   1      32.512  21.819  -2.454  0.00  0.00    -0.323 OA
HETATM   31  C   UNK N   1      30.665  22.945  -3.620  0.00  0.00     0.047 A 
ENDBRANCH  21  22
ENDBRANCH  19  21
ENDBRANCH   3  19
TORSDOF 6
ENDMDL
MODEL 7
REMARK VINA RESULT:      -7.6     15.172     17.595
REMARK  6 active torsions:
REMARK  status: ('A' for Active; 'I' for Inactive)
REMARK    1  A    between atoms: S_2  and  N_10 
REMARK    2  A    between atoms: S_2  and  C_16 
REMARK    3  A    between atoms: N_10  and  C_27 
REMARK    4  A    between atoms: C_13  and  C_14 
REMARK    5  A    between atoms: C_14  and  C_19 
REMARK    6  A    between atoms: C_17  and  C_19 
ROOT
HETATM    1  S   UNK N   1      25.087  19.242   4.630  0.00  0.00    -0.097 SA
HETATM    2  C   UNK N   1      23.096  19.772   3.295  0.00  0.00     0.101 A 
HETATM    3  C   UNK N   1      23.458  19.017   4.427  0.00  0.00     0.074 A 
HETATM    4  C   UNK N   1      24.192  20.457   2.700  0.00  0.00     0.034 A 
HETATM    5  C   UNK N   1      25.415  20.244   3.347  0.00  0.00     0.052 A 
ENDROOT
BRANCH   2   6
HETATM    6  S   UNK N   1      21.421  20.024   2.688  0.00  0.00     0.266 S 
HETATM    7  O   UNK N   1      21.366  21.222   1.729  0.00  0.00    -0.200 OA
HETATM    8  O   UNK N   1      20.525  20.562   3.812  0.00  0.00    -0.200 OA
BRANCH   6   9
HETATM    9  N   UNK N   1      20.430  18.795   1.917  0.00  0.00    -0.257 N 
HETATM   10  H   UNK N   1      20.165  18.910   0.976  0.00  0.00     0.181 HD
BRANCH   9  11
HETATM   11  C   UNK N   1      20.005  17.647   2.620  0.00  0.00     0.203 A 
HETATM   12  O   UNK N   1      19.395  17.653   3.784  0.00  0.00    -0.217 OA
HETATM   13  N   UNK N   1      19.186  16.436   4.200  0.00  0.00    -0.262 N 
HETATM   14  C   UNK N   1      19.695  15.599   3.270  0.00  0.00     0.055 A 
ATOM     15  HN  UNK N   1      18.723  16.165   5.068  1.00  0.00     0.194 HD
HETATM   16  C   UNK N   1      20.224  16.345   2.244  0.00  0.00     0.112 A 
HETATM   17  C   UNK N   1      19.703  14.117   3.391  0.00  0.00     0.072 C 
HETATM   18 Cl   UNK N   1      21.062  15.766   0.813  0.00  0.00    -0.077 Cl
ENDBRANCH   9  11
ENDBRANCH   6   9
ENDBRANCH   2   6
BRANCH   3  19
HETATM   19  C   UNK N   1      22.621  18.150   5.291  0.00  0.00     0.172 C 
HETATM   20  O   UNK N   1      22.034  18.636   6.247  0.00  0.00    -0.291 OA
BRANCH  19  21
HETATM   21  C   UNK N   1      22.667  16.660   5.121  0.00  0.00     0.123 C 
BRANCH  21  22
HETATM   22  C   UNK N   1      22.407  15.768   6.307  0.00  0.00    -0.042 A 
HETATM   23  C   UNK N   1      23.478  14.973   6.809  0.00  0.00    -0.052 A 
HETATM   24  C   UNK N   1      23.286  14.155   7.937  0.00  0.00     0.047 A 
HETATM   25  C   UNK N   1      24.822  14.992   6.164  0.00  0.00     0.049 C 
HETATM   26  C   UNK N   1      22.035  14.161   8.535  0.00  0.00     0.105 A 
HETATM   27  O   UNK N   1      21.633  13.483   9.607  0.00  0.00    -0.323 OA
HETATM   28  C   UNK N   1      21.023  14.903   8.074  0.00  0.00     0.105 A 
HETATM   29  C   UNK N   1      20.296  13.805   9.857  0.00  0.00     0.352 A 
HETATM   30  O   UNK N   1      19.956  14.714   8.848  0.00  0.00    -0.323 OA
HETATM   31  C   UNK N   1      21.151  15.729   6.955  0.00  0.00     0.047 A 
ENDBRANCH  21  22
ENDBRANCH  19  21
ENDBRANCH   3  19
TORSDOF 6
ENDMDL
MODEL 8
REMARK VINA RESULT:      -7.4      5.856     11.622
REMARK  6 active torsions:
REMARK  status: ('A' for Active; 'I' for Inactive)
REMARK    1  A    between atoms: S_2  and  N_10 
REMARK    2  A    between atoms: S_2  and  C_16 
REMARK    3  A    between atoms: N_10  and  C_27 
REMARK    4  A    between atoms: C_13  and  C_14 
REMARK    5  A    between atoms: C_14  and  C_19 
REMARK    6  A    between atoms: C_17  and  C_19 
ROOT
HETATM    1  S   UNK N   1      32.992  14.149   5.856  0.00  0.00    -0.097 SA
HETATM    2  C   UNK N   1      33.837  15.977   7.260  0.00  0.00     0.101 A 
HETATM    3  C   UNK N   1      32.784  15.713   6.364  0.00  0.00     0.074 A 
HETATM    4  C   UNK N   1      34.717  14.872   7.438  0.00  0.00     0.034 A 
HETATM    5  C   UNK N   1      34.372  13.743   6.687  0.00  0.00     0.052 A 
ENDROOT
BRANCH   2   6
HETATM    6  S   UNK N   1      34.038  17.473   8.239  0.00  0.00     0.266 S 
HETATM    7  O   UNK N   1      32.694  18.201   8.398  0.00  0.00    -0.200 OA
HETATM    8  O   UNK N   1      34.802  18.534   7.434  0.00  0.00    -0.200 OA
BRANCH   6   9
HETATM    9  N   UNK N   1      34.773  17.548   9.832  0.00  0.00    -0.257 N 
HETATM   10  H   UNK N   1      34.810  18.410  10.306  0.00  0.00     0.181 HD
BRANCH   9  11
HETATM   11  C   UNK N   1      35.311  16.397  10.447  0.00  0.00     0.203 A 
HETATM   12  O   UNK N   1      36.581  16.213  10.732  0.00  0.00    -0.217 OA
HETATM   13  N   UNK N   1      36.771  15.029  11.240  0.00  0.00    -0.262 N 
HETATM   14  C   UNK N   1      35.572  14.408  11.275  0.00  0.00     0.055 A 
ATOM     15  HN  UNK N   1      37.661  14.641  11.552  1.00  0.00     0.194 HD
HETATM   16  C   UNK N   1      34.615  15.260  10.778  0.00  0.00     0.112 A 
HETATM   17  C   UNK N   1      35.364  13.012  11.745  0.00  0.00     0.072 C 
HETATM   18 Cl   UNK N   1      32.905  14.940  10.542  0.00  0.00    -0.077 Cl
ENDBRANCH   9  11
ENDBRANCH   6   9
ENDBRANCH   2   6
BRANCH   3  19
HETATM   19  C   UNK N   1      31.695  16.604   5.897  0.00  0.00     0.172 C 
HETATM   20  O   UNK N   1      31.961  17.554   5.175  0.00  0.00    -0.291 OA
BRANCH  19  21
HETATM   21  C   UNK N   1      30.319  16.467   6.478  0.00  0.00     0.123 C 
BRANCH  21  22
HETATM   22  C   UNK N   1      29.304  17.558   6.251  0.00  0.00    -0.042 A 
HETATM   23  C   UNK N   1      28.826  18.288   7.377  0.00  0.00    -0.052 A 
HETATM   24  C   UNK N   1      27.907  19.338   7.204  0.00  0.00     0.047 A 
HETATM   25  C   UNK N   1      29.289  17.969   8.758  0.00  0.00     0.049 C 
HETATM   26  C   UNK N   1      27.498  19.634   5.911  0.00  0.00     0.105 A 
HETATM   27  O   UNK N   1      26.655  20.582   5.513  0.00  0.00    -0.323 OA
HETATM   28  C   UNK N   1      27.941  18.957   4.847  0.00  0.00     0.105 A 
HETATM   29  C   UNK N   1      26.548  20.520   4.120  0.00  0.00     0.352 A 
HETATM   30  O   UNK N   1      27.388  19.465   3.747  0.00  0.00    -0.323 OA
HETATM   31  C   UNK N   1      28.848  17.901   4.957  0.00  0.00     0.047 A 
ENDBRANCH  21  22
ENDBRANCH  19  21
ENDBRANCH   3  19
TORSDOF 6
ENDMDL
MODEL 9
REMARK VINA RESULT:      -7.3     20.722     23.562
REMARK  6 active torsions:
REMARK  status: ('A' for Active; 'I' for Inactive)
REMARK    1  A    between atoms: S_2  and  N_10 
REMARK    2  A    between atoms: S_2  and  C_16 
REMARK    3  A    between atoms: N_10  and  C_27 
REMARK    4  A    between atoms: C_13  and  C_14 
REMARK    5  A    between atoms: C_14  and  C_19 
REMARK    6  A    between atoms: C_17  and  C_19 
ROOT
HETATM    1  S   UNK N   1      31.516  24.770  -4.216  0.00  0.00    -0.097 SA
HETATM    2  C   UNK N   1      29.064  24.736  -4.317  0.00  0.00     0.101 A 
HETATM    3  C   UNK N   1      30.118  24.078  -3.656  0.00  0.00     0.074 A 
HETATM    4  C   UNK N   1      29.506  25.740  -5.225  0.00  0.00     0.034 A 
HETATM    5  C   UNK N   1      30.897  25.875  -5.290  0.00  0.00     0.052 A 
ENDROOT
BRANCH   2   6
HETATM    6  S   UNK N   1      27.309  24.501  -3.995  0.00  0.00     0.266 S 
HETATM    7  O   UNK N   1      27.087  23.952  -2.578  0.00  0.00    -0.200 OA
HETATM    8  O   UNK N   1      26.775  23.315  -4.810  0.00  0.00    -0.200 OA
BRANCH   6   9
HETATM    9  N   UNK N   1      26.072  25.733  -4.191  0.00  0.00    -0.257 N 
HETATM   10  H   UNK N   1      25.189  25.478  -4.544  0.00  0.00     0.181 HD
BRANCH   9  11
HETATM   11  C   UNK N   1      26.318  27.081  -3.853  0.00  0.00     0.203 A 
HETATM   12  O   UNK N   1      26.172  27.601  -2.655  0.00  0.00    -0.217 OA
HETATM   13  N   UNK N   1      26.420  28.880  -2.674  0.00  0.00    -0.262 N 
HETATM   14  C   UNK N   1      26.729  29.210  -3.947  0.00  0.00     0.055 A 
ATOM     15  HN  UNK N   1      26.386  29.515  -1.877  1.00  0.00     0.194 HD
HETATM   16  C   UNK N   1      26.677  28.078  -4.726  0.00  0.00     0.112 A 
HETATM   17  C   UNK N   1      27.031  30.593  -4.404  0.00  0.00     0.072 C 
HETATM   18 Cl   UNK N   1      26.931  27.950  -6.458  0.00  0.00    -0.077 Cl
ENDBRANCH   9  11
ENDBRANCH   6   9
ENDBRANCH   2   6
BRANCH   3  19
HETATM   19  C   UNK N   1      30.071  22.968  -2.674  0.00  0.00     0.172 C 
HETATM   20  O   UNK N   1      30.270  23.199  -1.491  0.00  0.00    -0.291 OA
BRANCH  19  21
HETATM   21  C   UNK N   1      29.993  21.549  -3.156  0.00  0.00     0.123 C 
BRANCH  21  22
HETATM   22  C   UNK N   1      30.793  21.128  -4.362  0.00  0.00    -0.042 A 
HETATM   23  C   UNK N   1      32.194  20.918  -4.210  0.00  0.00    -0.052 A 
HETATM   24  C   UNK N   1      32.969  20.490  -5.301  0.00  0.00     0.047 A 
HETATM   25  C   UNK N   1      32.870  21.138  -2.900  0.00  0.00     0.049 C 
HETATM   26  C   UNK N   1      32.323  20.275  -6.510  0.00  0.00     0.105 A 
HETATM   27  O   UNK N   1      32.847  19.861  -7.660  0.00  0.00    -0.323 OA
HETATM   28  C   UNK N   1      31.009  20.467  -6.664  0.00  0.00     0.105 A 
HETATM   29  C   UNK N   1      31.822  19.775  -8.607  0.00  0.00     0.352 A 
HETATM   30  O   UNK N   1      30.670  20.175  -7.918  0.00  0.00    -0.323 OA
HETATM   31  C   UNK N   1      30.189  20.898  -5.620  0.00  0.00     0.047 A 
ENDBRANCH  21  22
ENDBRANCH  19  21
ENDBRANCH   3  19
TORSDOF 6
ENDMDL
