REMARK  11 active torsions:
REMARK  status: ('A' for Active; 'I' for Inactive)
REMARK    1  A    between atoms: P_1  and  O_12 
REMARK    2  A    between atoms: P_1  and  O_13 
REMARK    3  A    between atoms: P_1  and  N_19 
REMARK    4  A    between atoms: C_21  and  O_10 
REMARK    5  A    between atoms: C_26  and  O_10 
REMARK    6  A    between atoms: N_15  and  C_24 
REMARK    7  A    between atoms: C_20  and  C_25 
REMARK    8  A    between atoms: C_24  and  C_27 
REMARK    9  A    between atoms: C_26  and  C_30 
REMARK   10  A    between atoms: C_38  and  C_42 
REMARK   11  A    between atoms: C_39  and  C_41 
ROOT
HETATM    1  O   UNK N   1       7.649   0.562   0.781  0.00  0.00    -0.357 OA
HETATM    2  N   UNK N   1       6.901  -1.632  -0.606  0.00  0.00     0.111 N 
HETATM    3  C   UNK N   1       5.798  -0.698  -0.358  0.00  0.00     0.311 C 
HETATM    4  C   UNK N   1       6.250   0.326   0.731  0.00  0.00     0.298 C 
HETATM    5  C   UNK N   1       8.048  -0.868  -1.139  0.00  0.00     0.300 C 
HETATM    6  C   UNK N   1       8.172   0.538  -0.526  0.00  0.00     0.201 C 
ENDROOT
BRANCH   4   7
HETATM    7  O   UNK N   1       5.512   1.513   0.860  0.00  0.00    -0.349 OA
BRANCH   7   8
HETATM    8  C   UNK N   1       5.424   2.179  -0.374  0.00  0.00     0.153 C 
HETATM    9  C   UNK N   1       6.522   3.237  -0.472  0.00  0.00     0.045 C 
BRANCH   8  10
HETATM   10  C   UNK N   1       4.050   2.762  -0.406  0.00  0.00    -0.028 A 
HETATM   11  C   UNK N   1       3.835   4.136  -0.244  0.00  0.00     0.025 A 
HETATM   12  C   UNK N   1       2.539   4.636  -0.091  0.00  0.00     0.049 A 
HETATM   13  C   UNK N   1       1.451   3.750  -0.107  0.00  0.00     0.032 A 
HETATM   14  C   UNK N   1       1.661   2.373  -0.276  0.00  0.00     0.049 A 
HETATM   15  C   UNK N   1       2.962   1.889  -0.413  0.00  0.00     0.025 A 
BRANCH  12  16
HETATM   16  C   UNK N   1       2.322   6.097   0.170  0.00  0.00     0.417 C 
HETATM   17  F   UNK N   1       1.749   6.251   1.420  0.00  0.00    -0.166 F 
HETATM   18  F   UNK N   1       3.521   6.792   0.148  0.00  0.00    -0.166 F 
HETATM   19  F   UNK N   1       1.479   6.629  -0.787  0.00  0.00    -0.166 F 
ENDBRANCH  12  16
BRANCH  14  20
HETATM   20  C   UNK N   1       0.522   1.399  -0.252  0.00  0.00     0.417 C 
HETATM   21  F   UNK N   1       0.498   0.680  -1.434  0.00  0.00    -0.166 F 
HETATM   22  F   UNK N   1       0.698   0.523   0.804  0.00  0.00    -0.166 F 
HETATM   23  F   UNK N   1      -0.689   2.049  -0.093  0.00  0.00    -0.166 F 
ENDBRANCH  14  20
ENDBRANCH   8  10
ENDBRANCH   7   8
ENDBRANCH   4   7
BRANCH   3  24
HETATM   24  C   UNK N   1       4.500  -1.440  -0.151  0.00  0.00    -0.020 A 
HETATM   25  C   UNK N   1       3.719  -1.280   1.003  0.00  0.00     0.012 A 
HETATM   26  C   UNK N   1       2.540  -2.023   1.160  0.00  0.00     0.043 A 
HETATM   27  C   UNK N   1       2.143  -2.930   0.170  0.00  0.00     0.116 A 
HETATM   28  F   UNK N   1       1.011  -3.658   0.327  0.00  0.00    -0.206 F 
HETATM   29  C   UNK N   1       2.916  -3.089  -0.980  0.00  0.00     0.043 A 
HETATM   30  C   UNK N   1       4.087  -2.345  -1.140  0.00  0.00     0.012 A 
ENDBRANCH   3  24
BRANCH   2  31
HETATM   31  C   UNK N   1       7.267  -2.328   0.642  0.00  0.00     0.351 C 
BRANCH  31  32
HETATM   32  C   UNK N   1       8.430  -3.218   0.412  0.00  0.00     0.129 A 
HETATM   33  N   UNK N   1       8.336  -4.444  -0.136  0.00  0.00    -0.272 N 
HETATM   34  N   UNK N   1       9.576  -4.860  -0.352  0.00  0.00    -0.141 N 
HETATM   35  H   UNK N   1       7.507  -4.936  -0.338  0.00  0.00     0.189 HD
HETATM   36  C   UNK N   1      10.403  -3.862   0.050  0.00  0.00     0.351 A 
HETATM   37  O   UNK N   1      11.618  -3.891  -0.045  0.00  0.00    -0.244 OA
HETATM   38  N   UNK N   1       9.712  -2.810   0.539  0.00  0.00    -0.294 N 
ATOM     39  HN  UNK N   1      10.067  -1.929   0.910  1.00  0.00     0.172 HD
BRANCH  34  40
HETATM   40  P   UNK N   1      10.071  -6.435  -1.134  0.00  0.00     0.372 P 
HETATM   41  O   UNK N   1       8.538  -6.648  -1.268  0.00  0.00    -0.636 OA
BRANCH  40  42
HETATM   42  O   UNK N   1       9.736  -7.937  -0.336  0.00  0.00    -0.311 OA
HETATM   43  H   UNK N   1       8.914  -8.195   0.110  0.00  0.00     0.222 HD
ENDBRANCH  40  42
BRANCH  40  44
HETATM   44  O   UNK N   1      10.585  -6.544   0.522  0.00  0.00    -0.311 OA
HETATM   45  H   UNK N   1      10.676  -6.823   1.447  0.00  0.00     0.222 HD
ENDBRANCH  40  44
ENDBRANCH  34  40
ENDBRANCH  31  32
ENDBRANCH   2  31
TORSDOF 11
