MODEL 1
REMARK VINA RESULT:      -9.2      0.000      0.000
REMARK  11 active torsions:
REMARK  status: ('A' for Active; 'I' for Inactive)
REMARK    1  A    between atoms: P_1  and  O_12 
REMARK    2  A    between atoms: P_1  and  O_13 
REMARK    3  A    between atoms: P_1  and  N_19 
REMARK    4  A    between atoms: C_21  and  O_10 
REMARK    5  A    between atoms: C_26  and  O_10 
REMARK    6  A    between atoms: N_15  and  C_24 
REMARK    7  A    between atoms: C_20  and  C_25 
REMARK    8  A    between atoms: C_24  and  C_27 
REMARK    9  A    between atoms: C_26  and  C_30 
REMARK   10  A    between atoms: C_38  and  C_42 
REMARK   11  A    between atoms: C_39  and  C_41 
ROOT
HETATM    1  O   UNK N   1      25.936  14.745   4.872  0.00  0.00    -0.357 OA
HETATM    2  N   UNK N   1      25.519  17.021   3.479  0.00  0.00     0.111 N 
HETATM    3  C   UNK N   1      26.726  17.063   4.311  0.00  0.00     0.311 C 
HETATM    4  C   UNK N   1      26.674  15.872   5.320  0.00  0.00     0.298 C 
HETATM    5  C   UNK N   1      25.529  15.761   2.706  0.00  0.00     0.300 C 
HETATM    6  C   UNK N   1      26.132  14.581   3.487  0.00  0.00     0.201 C 
ENDROOT
BRANCH   4   7
HETATM    7  O   UNK N   1      27.869  15.499   5.954  0.00  0.00    -0.349 OA
BRANCH   7   8
HETATM    8  C   UNK N   1      28.981  15.945   5.220  0.00  0.00     0.153 C 
HETATM    9  C   UNK N   1      29.712  14.751   4.608  0.00  0.00     0.045 C 
BRANCH   8  10
HETATM   10  C   UNK N   1      29.818  16.700   6.199  0.00  0.00    -0.028 A 
HETATM   11  C   UNK N   1      31.196  16.863   6.010  0.00  0.00     0.025 A 
HETATM   12  C   UNK N   1      31.989  17.408   7.023  0.00  0.00     0.049 A 
HETATM   13  C   UNK N   1      31.393  17.798   8.232  0.00  0.00     0.032 A 
HETATM   14  C   UNK N   1      30.012  17.644   8.423  0.00  0.00     0.049 A 
HETATM   15  C   UNK N   1      29.237  17.085   7.407  0.00  0.00     0.025 A 
BRANCH  12  16
HETATM   16  C   UNK N   1      33.476  17.498   6.848  0.00  0.00     0.417 C 
HETATM   17  F   UNK N   1      33.970  18.478   7.691  0.00  0.00    -0.166 F 
HETATM   18  F   UNK N   1      34.090  16.296   7.165  0.00  0.00    -0.166 F 
HETATM   19  F   UNK N   1      33.780  17.824   5.540  0.00  0.00    -0.166 F 
ENDBRANCH  12  16
BRANCH  14  20
HETATM   20  C   UNK N   1      29.356  18.010   9.720  0.00  0.00     0.417 C 
HETATM   21  F   UNK N   1      29.987  19.113  10.267  0.00  0.00    -0.166 F 
HETATM   22  F   UNK N   1      28.029  18.322   9.483  0.00  0.00    -0.166 F 
HETATM   23  F   UNK N   1      29.412  16.963  10.622  0.00  0.00    -0.166 F 
ENDBRANCH  14  20
ENDBRANCH   8  10
ENDBRANCH   7   8
ENDBRANCH   4   7
BRANCH   3  24
HETATM   24  C   UNK N   1      26.959  18.452   4.853  0.00  0.00    -0.020 A 
HETATM   25  C   UNK N   1      26.844  18.756   6.217  0.00  0.00     0.012 A 
HETATM   26  C   UNK N   1      27.035  20.073   6.660  0.00  0.00     0.043 A 
HETATM   27  C   UNK N   1      27.334  21.087   5.743  0.00  0.00     0.116 A 
HETATM   28  F   UNK N   1      27.506  22.362   6.169  0.00  0.00    -0.206 F 
HETATM   29  C   UNK N   1      27.452  20.788   4.386  0.00  0.00     0.043 A 
HETATM   30  C   UNK N   1      27.268  19.476   3.944  0.00  0.00     0.012 A 
ENDBRANCH   3  24
BRANCH   2  31
HETATM   31  C   UNK N   1      24.315  17.109   4.325  0.00  0.00     0.351 C 
BRANCH  31  32
HETATM   32  C   UNK N   1      23.335  18.049   3.730  0.00  0.00     0.129 A 
HETATM   33  N   UNK N   1      22.042  17.744   3.516  0.00  0.00    -0.272 N 
HETATM   34  N   UNK N   1      21.441  18.868   3.151  0.00  0.00    -0.141 N 
HETATM   35  H   UNK N   1      21.622  16.858   3.613  0.00  0.00     0.189 HD
HETATM   36  C   UNK N   1      22.384  19.844   3.173  0.00  0.00     0.351 A 
HETATM   37  O   UNK N   1      22.168  21.019   2.930  0.00  0.00    -0.244 OA
HETATM   38  N   UNK N   1      23.592  19.361   3.533  0.00  0.00    -0.294 N 
ATOM     39  HN  UNK N   1      24.476  19.859   3.634  1.00  0.00     0.172 HD
BRANCH  34  40
HETATM   40  P   UNK N   1      19.664  19.079   2.785  0.00  0.00     0.372 P 
HETATM   41  O   UNK N   1      19.537  17.691   3.471  0.00  0.00    -0.636 OA
BRANCH  40  42
HETATM   42  O   UNK N   1      18.895  18.051   1.621  0.00  0.00    -0.311 OA
HETATM   43  H   UNK N   1      18.354  18.323   0.863  0.00  0.00     0.222 HD
ENDBRANCH  40  42
BRANCH  40  44
HETATM   44  O   UNK N   1      20.455  18.956   1.244  0.00  0.00    -0.311 OA
HETATM   45  H   UNK N   1      20.717  19.110   0.322  0.00  0.00     0.222 HD
ENDBRANCH  40  44
ENDBRANCH  34  40
ENDBRANCH  31  32
ENDBRANCH   2  31
TORSDOF 11
ENDMDL
MODEL 2
REMARK VINA RESULT:      -9.1      0.210      2.715
REMARK  11 active torsions:
REMARK  status: ('A' for Active; 'I' for Inactive)
REMARK    1  A    between atoms: P_1  and  O_12 
REMARK    2  A    between atoms: P_1  and  O_13 
REMARK    3  A    between atoms: P_1  and  N_19 
REMARK    4  A    between atoms: C_21  and  O_10 
REMARK    5  A    between atoms: C_26  and  O_10 
REMARK    6  A    between atoms: N_15  and  C_24 
REMARK    7  A    between atoms: C_20  and  C_25 
REMARK    8  A    between atoms: C_24  and  C_27 
REMARK    9  A    between atoms: C_26  and  C_30 
REMARK   10  A    between atoms: C_38  and  C_42 
REMARK   11  A    between atoms: C_39  and  C_41 
ROOT
HETATM    1  O   UNK N   1      25.951  14.669   4.686  0.00  0.00    -0.357 OA
HETATM    2  N   UNK N   1      25.620  17.039   3.433  0.00  0.00     0.111 N 
HETATM    3  C   UNK N   1      26.830  16.984   4.260  0.00  0.00     0.311 C 
HETATM    4  C   UNK N   1      26.735  15.737   5.196  0.00  0.00     0.298 C 
HETATM    5  C   UNK N   1      25.577  15.829   2.587  0.00  0.00     0.300 C 
HETATM    6  C   UNK N   1      26.136  14.581   3.293  0.00  0.00     0.201 C 
ENDROOT
BRANCH   4   7
HETATM    7  O   UNK N   1      27.916  15.280   5.800  0.00  0.00    -0.349 OA
BRANCH   7   8
HETATM    8  C   UNK N   1      29.041  15.876   5.204  0.00  0.00     0.153 C 
HETATM    9  C   UNK N   1      29.787  14.845   4.358  0.00  0.00     0.045 C 
BRANCH   8  10
HETATM   10  C   UNK N   1      29.856  16.396   6.341  0.00  0.00    -0.028 A 
HETATM   11  C   UNK N   1      29.261  16.807   7.540  0.00  0.00     0.025 A 
HETATM   12  C   UNK N   1      30.017  17.460   8.517  0.00  0.00     0.049 A 
HETATM   13  C   UNK N   1      31.381  17.697   8.291  0.00  0.00     0.032 A 
HETATM   14  C   UNK N   1      31.984  17.281   7.094  0.00  0.00     0.049 A 
HETATM   15  C   UNK N   1      31.212  16.643   6.123  0.00  0.00     0.025 A 
BRANCH  12  16
HETATM   16  C   UNK N   1      29.355  17.976   9.760  0.00  0.00     0.417 C 
HETATM   17  F   UNK N   1      29.450  17.016  10.753  0.00  0.00    -0.166 F 
HETATM   18  F   UNK N   1      29.969  19.134  10.210  0.00  0.00    -0.166 F 
HETATM   19  F   UNK N   1      28.022  18.243   9.511  0.00  0.00    -0.166 F 
ENDBRANCH  12  16
BRANCH  14  20
HETATM   20  C   UNK N   1      33.428  17.560   6.806  0.00  0.00     0.417 C 
HETATM   21  F   UNK N   1      33.575  17.944   5.485  0.00  0.00    -0.166 F 
HETATM   22  F   UNK N   1      33.862  18.588   7.624  0.00  0.00    -0.166 F 
HETATM   23  F   UNK N   1      34.210  16.444   7.043  0.00  0.00    -0.166 F 
ENDBRANCH  14  20
ENDBRANCH   8  10
ENDBRANCH   7   8
ENDBRANCH   4   7
BRANCH   3  24
HETATM   24  C   UNK N   1      27.120  18.328   4.882  0.00  0.00    -0.020 A 
HETATM   25  C   UNK N   1      26.934  18.579   6.249  0.00  0.00     0.012 A 
HETATM   26  C   UNK N   1      27.184  19.858   6.767  0.00  0.00     0.043 A 
HETATM   27  C   UNK N   1      27.612  20.888   5.921  0.00  0.00     0.116 A 
HETATM   28  F   UNK N   1      27.840  22.128   6.418  0.00  0.00    -0.206 F 
HETATM   29  C   UNK N   1      27.800  20.641   4.561  0.00  0.00     0.043 A 
HETATM   30  C   UNK N   1      27.558  19.366   4.046  0.00  0.00     0.012 A 
ENDBRANCH   3  24
BRANCH   2  31
HETATM   31  C   UNK N   1      24.423  17.124   4.291  0.00  0.00     0.351 C 
BRANCH  31  32
HETATM   32  C   UNK N   1      23.439  18.067   3.708  0.00  0.00     0.129 A 
HETATM   33  N   UNK N   1      22.138  17.771   3.525  0.00  0.00    -0.272 N 
HETATM   34  N   UNK N   1      21.540  18.897   3.163  0.00  0.00    -0.141 N 
HETATM   35  H   UNK N   1      21.713  16.890   3.640  0.00  0.00     0.189 HD
HETATM   36  C   UNK N   1      22.491  19.865   3.156  0.00  0.00     0.351 A 
HETATM   37  O   UNK N   1      22.279  21.040   2.907  0.00  0.00    -0.244 OA
HETATM   38  N   UNK N   1      23.702  19.375   3.494  0.00  0.00    -0.294 N 
ATOM     39  HN  UNK N   1      24.592  19.866   3.570  1.00  0.00     0.172 HD
BRANCH  34  40
HETATM   40  P   UNK N   1      19.757  19.121   2.834  0.00  0.00     0.372 P 
HETATM   41  O   UNK N   1      19.639  17.716   3.487  0.00  0.00    -0.636 OA
BRANCH  40  42
HETATM   42  O   UNK N   1      18.965  18.124   1.658  0.00  0.00    -0.311 OA
HETATM   43  H   UNK N   1      19.377  17.636   0.928  0.00  0.00     0.222 HD
ENDBRANCH  40  42
BRANCH  40  44
HETATM   44  O   UNK N   1      20.520  19.035   1.276  0.00  0.00    -0.311 OA
HETATM   45  H   UNK N   1      21.175  18.906   0.572  0.00  0.00     0.222 HD
ENDBRANCH  40  44
ENDBRANCH  34  40
ENDBRANCH  31  32
ENDBRANCH   2  31
TORSDOF 11
ENDMDL
MODEL 3
REMARK VINA RESULT:      -8.9      1.418      3.308
REMARK  11 active torsions:
REMARK  status: ('A' for Active; 'I' for Inactive)
REMARK    1  A    between atoms: P_1  and  O_12 
REMARK    2  A    between atoms: P_1  and  O_13 
REMARK    3  A    between atoms: P_1  and  N_19 
REMARK    4  A    between atoms: C_21  and  O_10 
REMARK    5  A    between atoms: C_26  and  O_10 
REMARK    6  A    between atoms: N_15  and  C_24 
REMARK    7  A    between atoms: C_20  and  C_25 
REMARK    8  A    between atoms: C_24  and  C_27 
REMARK    9  A    between atoms: C_26  and  C_30 
REMARK   10  A    between atoms: C_38  and  C_42 
REMARK   11  A    between atoms: C_39  and  C_41 
ROOT
HETATM    1  O   UNK N   1      25.451  14.440   5.357  0.00  0.00    -0.357 OA
HETATM    2  N   UNK N   1      24.976  16.718   3.984  0.00  0.00     0.111 N 
HETATM    3  C   UNK N   1      26.325  16.656   4.557  0.00  0.00     0.311 C 
HETATM    4  C   UNK N   1      26.367  15.497   5.603  0.00  0.00     0.298 C 
HETATM    5  C   UNK N   1      24.711  15.448   3.277  0.00  0.00     0.300 C 
HETATM    6  C   UNK N   1      25.346  14.229   3.969  0.00  0.00     0.201 C 
ENDROOT
BRANCH   4   7
HETATM    7  O   UNK N   1      27.625  15.019   6.001  0.00  0.00    -0.349 OA
BRANCH   7   8
HETATM    8  C   UNK N   1      28.496  14.940   4.901  0.00  0.00     0.153 C 
HETATM    9  C   UNK N   1      28.733  13.477   4.531  0.00  0.00     0.045 C 
BRANCH   8  10
HETATM   10  C   UNK N   1      29.741  15.638   5.337  0.00  0.00    -0.028 A 
HETATM   11  C   UNK N   1      29.893  16.113   6.646  0.00  0.00     0.025 A 
HETATM   12  C   UNK N   1      30.980  16.924   6.983  0.00  0.00     0.049 A 
HETATM   13  C   UNK N   1      31.926  17.254   6.000  0.00  0.00     0.032 A 
HETATM   14  C   UNK N   1      31.782  16.775   4.689  0.00  0.00     0.049 A 
HETATM   15  C   UNK N   1      30.683  15.979   4.366  0.00  0.00     0.025 A 
BRANCH  12  16
HETATM   16  C   UNK N   1      31.090  17.501   8.363  0.00  0.00     0.417 C 
HETATM   17  F   UNK N   1      30.839  16.504   9.289  0.00  0.00    -0.166 F 
HETATM   18  F   UNK N   1      32.360  18.006   8.594  0.00  0.00    -0.166 F 
HETATM   19  F   UNK N   1      30.168  18.517   8.525  0.00  0.00    -0.166 F 
ENDBRANCH  12  16
BRANCH  14  20
HETATM   20  C   UNK N   1      32.751  17.148   3.608  0.00  0.00     0.417 C 
HETATM   21  F   UNK N   1      33.367  18.345   3.927  0.00  0.00    -0.166 F 
HETATM   22  F   UNK N   1      33.714  16.161   3.503  0.00  0.00    -0.166 F 
HETATM   23  F   UNK N   1      32.114  17.278   2.387  0.00  0.00    -0.166 F 
ENDBRANCH  14  20
ENDBRANCH   8  10
ENDBRANCH   7   8
ENDBRANCH   4   7
BRANCH   3  24
HETATM   24  C   UNK N   1      26.792  18.026   4.984  0.00  0.00    -0.020 A 
HETATM   25  C   UNK N   1      27.302  18.280   6.266  0.00  0.00     0.012 A 
HETATM   26  C   UNK N   1      27.687  19.581   6.622  0.00  0.00     0.043 A 
HETATM   27  C   UNK N   1      27.558  20.629   5.703  0.00  0.00     0.116 A 
HETATM   28  F   UNK N   1      27.917  21.888   6.051  0.00  0.00    -0.206 F 
HETATM   29  C   UNK N   1      27.054  20.379   4.427  0.00  0.00     0.043 A 
HETATM   30  C   UNK N   1      26.676  19.083   4.069  0.00  0.00     0.012 A 
ENDBRANCH   3  24
BRANCH   2  31
HETATM   31  C   UNK N   1      23.982  16.943   5.050  0.00  0.00     0.351 C 
BRANCH  31  32
HETATM   32  C   UNK N   1      22.772  17.595   4.495  0.00  0.00     0.129 A 
HETATM   33  N   UNK N   1      22.800  18.723   3.762  0.00  0.00    -0.272 N 
HETATM   34  N   UNK N   1      21.574  18.902   3.291  0.00  0.00    -0.141 N 
HETATM   35  H   UNK N   1      23.581  19.303   3.605  0.00  0.00     0.189 HD
HETATM   36  C   UNK N   1      20.826  17.859   3.731  0.00  0.00     0.351 A 
HETATM   37  O   UNK N   1      19.653  17.682   3.450  0.00  0.00    -0.244 OA
HETATM   38  N   UNK N   1      21.551  17.015   4.495  0.00  0.00    -0.294 N 
ATOM     39  HN  UNK N   1      21.254  16.155   4.957  1.00  0.00     0.172 HD
BRANCH  34  40
HETATM   40  P   UNK N   1      21.024  20.244   2.180  0.00  0.00     0.372 P 
HETATM   41  O   UNK N   1      22.544  20.541   2.072  0.00  0.00    -0.636 OA
BRANCH  40  42
HETATM   42  O   UNK N   1      21.212  21.897   2.665  0.00  0.00    -0.311 OA
HETATM   43  H   UNK N   1      20.667  22.390   3.298  0.00  0.00     0.222 HD
ENDBRANCH  40  42
BRANCH  40  44
HETATM   44  O   UNK N   1      20.407  20.647   3.753  0.00  0.00    -0.311 OA
HETATM   45  H   UNK N   1      20.206  21.122   4.575  0.00  0.00     0.222 HD
ENDBRANCH  40  44
ENDBRANCH  34  40
ENDBRANCH  31  32
ENDBRANCH   2  31
TORSDOF 11
ENDMDL
MODEL 4
REMARK VINA RESULT:      -8.5      5.081      8.523
REMARK  11 active torsions:
REMARK  status: ('A' for Active; 'I' for Inactive)
REMARK    1  A    between atoms: P_1  and  O_12 
REMARK    2  A    between atoms: P_1  and  O_13 
REMARK    3  A    between atoms: P_1  and  N_19 
REMARK    4  A    between atoms: C_21  and  O_10 
REMARK    5  A    between atoms: C_26  and  O_10 
REMARK    6  A    between atoms: N_15  and  C_24 
REMARK    7  A    between atoms: C_20  and  C_25 
REMARK    8  A    between atoms: C_24  and  C_27 
REMARK    9  A    between atoms: C_26  and  C_30 
REMARK   10  A    between atoms: C_38  and  C_42 
REMARK   11  A    between atoms: C_39  and  C_41 
ROOT
HETATM    1  O   UNK N   1      29.139  14.815   2.791  0.00  0.00    -0.357 OA
HETATM    2  N   UNK N   1      29.651  15.545   5.341  0.00  0.00     0.111 N 
HETATM    3  C   UNK N   1      28.437  16.159   4.794  0.00  0.00     0.311 C 
HETATM    4  C   UNK N   1      28.435  15.961   3.245  0.00  0.00     0.298 C 
HETATM    5  C   UNK N   1      29.608  14.095   5.061  0.00  0.00     0.300 C 
HETATM    6  C   UNK N   1      28.955  13.762   3.708  0.00  0.00     0.201 C 
ENDROOT
BRANCH   4   7
HETATM    7  O   UNK N   1      27.219  16.134   2.564  0.00  0.00    -0.349 OA
BRANCH   7   8
HETATM    8  C   UNK N   1      26.190  15.418   3.198  0.00  0.00     0.153 C 
HETATM    9  C   UNK N   1      25.620  14.372   2.240  0.00  0.00     0.045 C 
BRANCH   8  10
HETATM   10  C   UNK N   1      25.186  16.449   3.597  0.00  0.00    -0.028 A 
HETATM   11  C   UNK N   1      25.329  17.791   3.225  0.00  0.00     0.025 A 
HETATM   12  C   UNK N   1      24.485  18.767   3.761  0.00  0.00     0.049 A 
HETATM   13  C   UNK N   1      23.487  18.392   4.673  0.00  0.00     0.032 A 
HETATM   14  C   UNK N   1      23.335  17.047   5.043  0.00  0.00     0.049 A 
HETATM   15  C   UNK N   1      24.195  16.087   4.509  0.00  0.00     0.025 A 
BRANCH  12  16
HETATM   16  C   UNK N   1      24.700  20.214   3.427  0.00  0.00     0.417 C 
HETATM   17  F   UNK N   1      25.651  20.308   2.427  0.00  0.00    -0.166 F 
HETATM   18  F   UNK N   1      23.529  20.801   2.975  0.00  0.00    -0.166 F 
HETATM   19  F   UNK N   1      25.142  20.897   4.543  0.00  0.00    -0.166 F 
ENDBRANCH  12  16
BRANCH  14  20
HETATM   20  C   UNK N   1      22.307  16.623   6.048  0.00  0.00     0.417 C 
HETATM   21  F   UNK N   1      21.295  15.923   5.414  0.00  0.00    -0.166 F 
HETATM   22  F   UNK N   1      22.904  15.800   6.986  0.00  0.00    -0.166 F 
HETATM   23  F   UNK N   1      21.762  17.716   6.698  0.00  0.00    -0.166 F 
ENDBRANCH  14  20
ENDBRANCH   8  10
ENDBRANCH   7   8
ENDBRANCH   4   7
BRANCH   3  24
HETATM   24  C   UNK N   1      28.244  17.553   5.340  0.00  0.00    -0.020 A 
HETATM   25  C   UNK N   1      27.927  17.796   6.684  0.00  0.00     0.012 A 
HETATM   26  C   UNK N   1      27.723  19.110   7.129  0.00  0.00     0.043 A 
HETATM   27  C   UNK N   1      27.828  20.181   6.233  0.00  0.00     0.116 A 
HETATM   28  F   UNK N   1      27.617  21.450   6.660  0.00  0.00    -0.206 F 
HETATM   29  C   UNK N   1      28.145  19.942   4.896  0.00  0.00     0.043 A 
HETATM   30  C   UNK N   1      28.355  18.634   4.453  0.00  0.00     0.012 A 
ENDBRANCH   3  24
BRANCH   2  31
HETATM   31  C   UNK N   1      30.847  16.162   4.737  0.00  0.00     0.351 C 
BRANCH  31  32
HETATM   32  C   UNK N   1      31.851  16.470   5.783  0.00  0.00     0.129 A 
HETATM   33  N   UNK N   1      32.073  15.691   6.858  0.00  0.00    -0.272 N 
HETATM   34  N   UNK N   1      33.148  16.176   7.464  0.00  0.00    -0.141 N 
HETATM   35  H   UNK N   1      31.540  14.912   7.140  0.00  0.00     0.189 HD
HETATM   36  C   UNK N   1      33.574  17.232   6.726  0.00  0.00     0.351 A 
HETATM   37  O   UNK N   1      34.570  17.891   6.973  0.00  0.00    -0.244 OA
HETATM   38  N   UNK N   1      32.777  17.447   5.657  0.00  0.00    -0.294 N 
ATOM     39  HN  UNK N   1      32.853  18.164   4.936  1.00  0.00     0.172 HD
BRANCH  34  40
HETATM   40  P   UNK N   1      33.957  15.491   8.951  0.00  0.00     0.372 P 
HETATM   41  O   UNK N   1      33.019  14.280   8.689  0.00  0.00    -0.636 OA
BRANCH  40  42
HETATM   42  O   UNK N   1      33.045  15.282  10.410  0.00  0.00    -0.311 OA
HETATM   43  H   UNK N   1      32.822  14.446  10.849  0.00  0.00     0.222 HD
ENDBRANCH  40  42
BRANCH  40  44
HETATM   44  O   UNK N   1      33.065  16.880   9.493  0.00  0.00    -0.311 OA
HETATM   45  H   UNK N   1      32.789  17.794   9.663  0.00  0.00     0.222 HD
ENDBRANCH  40  44
ENDBRANCH  34  40
ENDBRANCH  31  32
ENDBRANCH   2  31
TORSDOF 11
ENDMDL
MODEL 5
REMARK VINA RESULT:      -8.2      6.111     10.118
REMARK  11 active torsions:
REMARK  status: ('A' for Active; 'I' for Inactive)
REMARK    1  A    between atoms: P_1  and  O_12 
REMARK    2  A    between atoms: P_1  and  O_13 
REMARK    3  A    between atoms: P_1  and  N_19 
REMARK    4  A    between atoms: C_21  and  O_10 
REMARK    5  A    between atoms: C_26  and  O_10 
REMARK    6  A    between atoms: N_15  and  C_24 
REMARK    7  A    between atoms: C_20  and  C_25 
REMARK    8  A    between atoms: C_24  and  C_27 
REMARK    9  A    between atoms: C_26  and  C_30 
REMARK   10  A    between atoms: C_38  and  C_42 
REMARK   11  A    between atoms: C_39  and  C_41 
ROOT
HETATM    1  O   UNK N   1      29.578  17.493   9.210  0.00  0.00    -0.357 OA
HETATM    2  N   UNK N   1      31.830  17.167   7.754  0.00  0.00     0.111 N 
HETATM    3  C   UNK N   1      30.612  17.205   6.938  0.00  0.00     0.311 C 
HETATM    4  C   UNK N   1      29.378  17.036   7.881  0.00  0.00     0.298 C 
HETATM    5  C   UNK N   1      31.802  18.312   8.687  0.00  0.00     0.300 C 
HETATM    6  C   UNK N   1      30.386  18.646   9.189  0.00  0.00     0.201 C 
ENDROOT
BRANCH   4   7
HETATM    7  O   UNK N   1      28.118  17.404   7.382  0.00  0.00    -0.349 OA
BRANCH   7   8
HETATM    8  C   UNK N   1      28.234  18.481   6.488  0.00  0.00     0.153 C 
HETATM    9  C   UNK N   1      27.841  19.781   7.188  0.00  0.00     0.045 C 
BRANCH   8  10
HETATM   10  C   UNK N   1      27.333  18.140   5.347  0.00  0.00    -0.028 A 
HETATM   11  C   UNK N   1      27.487  16.950   4.626  0.00  0.00     0.025 A 
HETATM   12  C   UNK N   1      26.759  16.736   3.452  0.00  0.00     0.049 A 
HETATM   13  C   UNK N   1      25.867  17.722   3.003  0.00  0.00     0.032 A 
HETATM   14  C   UNK N   1      25.705  18.913   3.726  0.00  0.00     0.049 A 
HETATM   15  C   UNK N   1      26.450  19.117   4.888  0.00  0.00     0.025 A 
BRANCH  12  16
HETATM   16  C   UNK N   1      26.992  15.498   2.637  0.00  0.00     0.417 C 
HETATM   17  F   UNK N   1      28.285  15.521   2.144  0.00  0.00    -0.166 F 
HETATM   18  F   UNK N   1      26.836  14.356   3.407  0.00  0.00    -0.166 F 
HETATM   19  F   UNK N   1      26.102  15.451   1.581  0.00  0.00    -0.166 F 
ENDBRANCH  12  16
BRANCH  14  20
HETATM   20  C   UNK N   1      24.794  20.002   3.247  0.00  0.00     0.417 C 
HETATM   21  F   UNK N   1      25.187  20.418   1.987  0.00  0.00    -0.166 F 
HETATM   22  F   UNK N   1      23.502  19.513   3.177  0.00  0.00    -0.166 F 
HETATM   23  F   UNK N   1      24.813  21.085   4.107  0.00  0.00    -0.166 F 
ENDBRANCH  14  20
ENDBRANCH   8  10
ENDBRANCH   7   8
ENDBRANCH   4   7
BRANCH   3  24
HETATM   24  C   UNK N   1      30.734  16.290   5.744  0.00  0.00    -0.020 A 
HETATM   25  C   UNK N   1      30.139  15.020   5.707  0.00  0.00     0.012 A 
HETATM   26  C   UNK N   1      30.316  14.196   4.586  0.00  0.00     0.043 A 
HETATM   27  C   UNK N   1      31.092  14.634   3.506  0.00  0.00     0.116 A 
HETATM   28  F   UNK N   1      31.275  13.833   2.429  0.00  0.00    -0.206 F 
HETATM   29  C   UNK N   1      31.683  15.897   3.540  0.00  0.00     0.043 A 
HETATM   30  C   UNK N   1      31.502  16.721   4.652  0.00  0.00     0.012 A 
ENDBRANCH   3  24
BRANCH   2  31
HETATM   31  C   UNK N   1      31.909  15.891   8.489  0.00  0.00     0.351 C 
BRANCH  31  32
HETATM   32  C   UNK N   1      33.316  15.585   8.839  0.00  0.00     0.129 A 
HETATM   33  N   UNK N   1      33.736  15.328  10.092  0.00  0.00    -0.272 N 
HETATM   34  N   UNK N   1      34.995  14.924   9.995  0.00  0.00    -0.141 N 
HETATM   35  H   UNK N   1      33.210  15.420  10.919  0.00  0.00     0.189 HD
HETATM   36  C   UNK N   1      35.309  14.922   8.675  0.00  0.00     0.351 A 
HETATM   37  O   UNK N   1      36.382  14.562   8.221  0.00  0.00    -0.244 OA
HETATM   38  N   UNK N   1      34.272  15.335   7.917  0.00  0.00    -0.294 N 
ATOM     39  HN  UNK N   1      34.220  15.434   6.903  1.00  0.00     0.172 HD
BRANCH  34  40
HETATM   40  P   UNK N   1      36.068  14.379  11.370  0.00  0.00     0.372 P 
HETATM   41  O   UNK N   1      34.763  14.499  12.204  0.00  0.00    -0.636 OA
BRANCH  40  42
HETATM   42  O   UNK N   1      36.437  15.474  12.662  0.00  0.00    -0.311 OA
HETATM   43  H   UNK N   1      36.437  15.283  13.613  0.00  0.00     0.222 HD
ENDBRANCH  40  42
BRANCH  40  44
HETATM   44  O   UNK N   1      36.662  15.941  10.893  0.00  0.00    -0.311 OA
HETATM   45  H   UNK N   1      37.206  16.740  10.816  0.00  0.00     0.222 HD
ENDBRANCH  40  44
ENDBRANCH  34  40
ENDBRANCH  31  32
ENDBRANCH   2  31
TORSDOF 11
ENDMDL
MODEL 6
REMARK VINA RESULT:      -8.2     11.630     14.919
REMARK  11 active torsions:
REMARK  status: ('A' for Active; 'I' for Inactive)
REMARK    1  A    between atoms: P_1  and  O_12 
REMARK    2  A    between atoms: P_1  and  O_13 
REMARK    3  A    between atoms: P_1  and  N_19 
REMARK    4  A    between atoms: C_21  and  O_10 
REMARK    5  A    between atoms: C_26  and  O_10 
REMARK    6  A    between atoms: N_15  and  C_24 
REMARK    7  A    between atoms: C_20  and  C_25 
REMARK    8  A    between atoms: C_24  and  C_27 
REMARK    9  A    between atoms: C_26  and  C_30 
REMARK   10  A    between atoms: C_38  and  C_42 
REMARK   11  A    between atoms: C_39  and  C_41 
ROOT
HETATM    1  O   UNK N   1      35.810  11.012  12.855  0.00  0.00    -0.357 OA
HETATM    2  N   UNK N   1      36.705  13.556  13.004  0.00  0.00     0.111 N 
HETATM    3  C   UNK N   1      36.840  12.819  14.265  0.00  0.00     0.311 C 
HETATM    4  C   UNK N   1      35.985  11.515  14.171  0.00  0.00     0.298 C 
HETATM    5  C   UNK N   1      37.252  12.722  11.915  0.00  0.00     0.300 C 
HETATM    6  C   UNK N   1      36.991  11.219  12.117  0.00  0.00     0.201 C 
ENDROOT
BRANCH   4   7
HETATM    7  O   UNK N   1      36.249  10.492  15.095  0.00  0.00    -0.349 OA
BRANCH   7   8
HETATM    8  C   UNK N   1      35.089   9.740  15.347  0.00  0.00     0.153 C 
HETATM    9  C   UNK N   1      33.850  10.601  15.106  0.00  0.00     0.045 C 
BRANCH   8  10
HETATM   10  C   UNK N   1      35.216   9.289  16.764  0.00  0.00    -0.028 A 
HETATM   11  C   UNK N   1      35.076   7.941  17.117  0.00  0.00     0.025 A 
HETATM   12  C   UNK N   1      35.013   7.565  18.462  0.00  0.00     0.049 A 
HETATM   13  C   UNK N   1      35.098   8.549  19.459  0.00  0.00     0.032 A 
HETATM   14  C   UNK N   1      35.246   9.900  19.109  0.00  0.00     0.049 A 
HETATM   15  C   UNK N   1      35.292  10.260  17.763  0.00  0.00     0.025 A 
BRANCH  12  16
HETATM   16  C   UNK N   1      34.775   6.131  18.832  0.00  0.00     0.417 C 
HETATM   17  F   UNK N   1      33.416   5.876  18.792  0.00  0.00    -0.166 F 
HETATM   18  F   UNK N   1      35.409   5.274  17.946  0.00  0.00    -0.166 F 
HETATM   19  F   UNK N   1      35.248   5.886  20.107  0.00  0.00    -0.166 F 
ENDBRANCH  12  16
BRANCH  14  20
HETATM   20  C   UNK N   1      35.294  10.977  20.151  0.00  0.00     0.417 C 
HETATM   21  F   UNK N   1      34.492  10.625  21.223  0.00  0.00    -0.166 F 
HETATM   22  F   UNK N   1      36.596  11.122  20.593  0.00  0.00    -0.166 F 
HETATM   23  F   UNK N   1      34.860  12.187  19.640  0.00  0.00    -0.166 F 
ENDBRANCH  14  20
ENDBRANCH   8  10
ENDBRANCH   7   8
ENDBRANCH   4   7
BRANCH   3  24
HETATM   24  C   UNK N   1      36.631  13.731  15.448  0.00  0.00    -0.020 A 
HETATM   25  C   UNK N   1      35.709  13.443  16.465  0.00  0.00     0.012 A 
HETATM   26  C   UNK N   1      35.528  14.345  17.524  0.00  0.00     0.043 A 
HETATM   27  C   UNK N   1      36.261  15.538  17.565  0.00  0.00     0.116 A 
HETATM   28  F   UNK N   1      36.077  16.416  18.580  0.00  0.00    -0.206 F 
HETATM   29  C   UNK N   1      37.181  15.826  16.556  0.00  0.00     0.043 A 
HETATM   30  C   UNK N   1      37.366  14.925  15.505  0.00  0.00     0.012 A 
ENDBRANCH   3  24
BRANCH   2  31
HETATM   31  C   UNK N   1      35.287  13.881  12.756  0.00  0.00     0.351 C 
BRANCH  31  32
HETATM   32  C   UNK N   1      35.162  14.764  11.572  0.00  0.00     0.129 A 
HETATM   33  N   UNK N   1      34.328  14.522  10.544  0.00  0.00    -0.272 N 
HETATM   34  N   UNK N   1      34.351  15.600   9.773  0.00  0.00    -0.141 N 
HETATM   35  H   UNK N   1      33.802  13.703  10.394  0.00  0.00     0.189 HD
HETATM   36  C   UNK N   1      35.186  16.491  10.365  0.00  0.00     0.351 A 
HETATM   37  O   UNK N   1      35.410  17.613   9.945  0.00  0.00    -0.244 OA
HETATM   38  N   UNK N   1      35.717  15.995  11.503  0.00  0.00    -0.294 N 
ATOM     39  HN  UNK N   1      36.371  16.436  12.149  1.00  0.00     0.172 HD
BRANCH  34  40
HETATM   40  P   UNK N   1      33.368  15.871   8.257  0.00  0.00     0.372 P 
HETATM   41  O   UNK N   1      34.746  16.235   7.639  0.00  0.00    -0.636 OA
BRANCH  40  42
HETATM   42  O   UNK N   1      33.187  17.473   7.622  0.00  0.00    -0.311 OA
HETATM   43  H   UNK N   1      33.179  17.738   6.688  0.00  0.00     0.222 HD
ENDBRANCH  40  42
BRANCH  40  44
HETATM   44  O   UNK N   1      32.840  17.079   9.389  0.00  0.00    -0.311 OA
HETATM   45  H   UNK N   1      32.835  17.779  10.061  0.00  0.00     0.222 HD
ENDBRANCH  40  44
ENDBRANCH  34  40
ENDBRANCH  31  32
ENDBRANCH   2  31
TORSDOF 11
ENDMDL
MODEL 7
REMARK VINA RESULT:      -8.2      8.253     12.203
REMARK  11 active torsions:
REMARK  status: ('A' for Active; 'I' for Inactive)
REMARK    1  A    between atoms: P_1  and  O_12 
REMARK    2  A    between atoms: P_1  and  O_13 
REMARK    3  A    between atoms: P_1  and  N_19 
REMARK    4  A    between atoms: C_21  and  O_10 
REMARK    5  A    between atoms: C_26  and  O_10 
REMARK    6  A    between atoms: N_15  and  C_24 
REMARK    7  A    between atoms: C_20  and  C_25 
REMARK    8  A    between atoms: C_24  and  C_27 
REMARK    9  A    between atoms: C_26  and  C_30 
REMARK   10  A    between atoms: C_38  and  C_42 
REMARK   11  A    between atoms: C_39  and  C_41 
ROOT
HETATM    1  O   UNK N   1      34.571  15.724  10.818  0.00  0.00    -0.357 OA
HETATM    2  N   UNK N   1      36.054  14.075   9.277  0.00  0.00     0.111 N 
HETATM    3  C   UNK N   1      35.166  14.950   8.504  0.00  0.00     0.311 C 
HETATM    4  C   UNK N   1      34.124  15.585   9.478  0.00  0.00     0.298 C 
HETATM    5  C   UNK N   1      36.785  14.903  10.259  0.00  0.00     0.300 C 
HETATM    6  C   UNK N   1      35.938  16.059  10.821  0.00  0.00     0.201 C 
ENDROOT
BRANCH   4   7
HETATM    7  O   UNK N   1      33.421  16.717   9.038  0.00  0.00    -0.349 OA
BRANCH   7   8
HETATM    8  C   UNK N   1      33.987  17.223   7.855  0.00  0.00     0.153 C 
HETATM    9  C   UNK N   1      34.569  18.613   8.112  0.00  0.00     0.045 C 
BRANCH   8  10
HETATM   10  C   UNK N   1      32.872  17.234   6.863  0.00  0.00    -0.028 A 
HETATM   11  C   UNK N   1      31.541  17.405   7.261  0.00  0.00     0.025 A 
HETATM   12  C   UNK N   1      30.500  17.226   6.345  0.00  0.00     0.049 A 
HETATM   13  C   UNK N   1      30.800  16.880   5.018  0.00  0.00     0.032 A 
HETATM   14  C   UNK N   1      32.133  16.715   4.613  0.00  0.00     0.049 A 
HETATM   15  C   UNK N   1      33.159  16.883   5.543  0.00  0.00     0.025 A 
BRANCH  12  16
HETATM   16  C   UNK N   1      29.074  17.324   6.798  0.00  0.00     0.417 C 
HETATM   17  F   UNK N   1      28.566  18.557   6.426  0.00  0.00    -0.166 F 
HETATM   18  F   UNK N   1      28.296  16.335   6.216  0.00  0.00    -0.166 F 
HETATM   19  F   UNK N   1      29.004  17.198   8.172  0.00  0.00    -0.166 F 
ENDBRANCH  12  16
BRANCH  14  20
HETATM   20  C   UNK N   1      32.481  16.302   3.215  0.00  0.00     0.417 C 
HETATM   21  F   UNK N   1      31.820  15.128   2.897  0.00  0.00    -0.166 F 
HETATM   22  F   UNK N   1      32.082  17.294   2.338  0.00  0.00    -0.166 F 
HETATM   23  F   UNK N   1      33.843  16.106   3.075  0.00  0.00    -0.166 F 
ENDBRANCH  14  20
ENDBRANCH   8  10
ENDBRANCH   7   8
ENDBRANCH   4   7
BRANCH   3  24
HETATM   24  C   UNK N   1      34.659  14.247   7.268  0.00  0.00    -0.020 A 
HETATM   25  C   UNK N   1      35.425  14.138   6.098  0.00  0.00     0.012 A 
HETATM   26  C   UNK N   1      34.889  13.506   4.967  0.00  0.00     0.043 A 
HETATM   27  C   UNK N   1      33.589  12.989   4.999  0.00  0.00     0.116 A 
HETATM   28  F   UNK N   1      33.066  12.390   3.902  0.00  0.00    -0.206 F 
HETATM   29  C   UNK N   1      32.826  13.093   6.162  0.00  0.00     0.043 A 
HETATM   30  C   UNK N   1      33.361  13.716   7.292  0.00  0.00     0.012 A 
ENDBRANCH   3  24
BRANCH   2  31
HETATM   31  C   UNK N   1      35.269  13.026   9.954  0.00  0.00     0.351 C 
BRANCH  31  32
HETATM   32  C   UNK N   1      35.925  12.633  11.224  0.00  0.00     0.129 A 
HETATM   33  N   UNK N   1      35.459  12.972  12.441  0.00  0.00    -0.272 N 
HETATM   34  N   UNK N   1      36.184  12.301  13.326  0.00  0.00    -0.141 N 
HETATM   35  H   UNK N   1      34.722  13.596  12.636  0.00  0.00     0.189 HD
HETATM   36  C   UNK N   1      37.065  11.546  12.623  0.00  0.00     0.351 A 
HETATM   37  O   UNK N   1      37.862  10.770  13.122  0.00  0.00    -0.244 OA
HETATM   38  N   UNK N   1      36.930  11.732  11.292  0.00  0.00    -0.294 N 
ATOM     39  HN  UNK N   1      37.452  11.301  10.530  1.00  0.00     0.172 HD
BRANCH  34  40
HETATM   40  P   UNK N   1      35.969  12.317  15.140  0.00  0.00     0.372 P 
HETATM   41  O   UNK N   1      34.730  13.195  14.809  0.00  0.00    -0.636 OA
BRANCH  40  42
HETATM   42  O   UNK N   1      36.192  13.793  16.022  0.00  0.00    -0.311 OA
HETATM   43  H   UNK N   1      36.808  14.514  15.815  0.00  0.00     0.222 HD
ENDBRANCH  40  42
BRANCH  40  44
HETATM   44  O   UNK N   1      37.451  13.168  14.829  0.00  0.00    -0.311 OA
HETATM   45  H   UNK N   1      38.093  13.831  14.528  0.00  0.00     0.222 HD
ENDBRANCH  40  44
ENDBRANCH  34  40
ENDBRANCH  31  32
ENDBRANCH   2  31
TORSDOF 11
ENDMDL
MODEL 8
REMARK VINA RESULT:      -8.1      2.091      4.418
REMARK  11 active torsions:
REMARK  status: ('A' for Active; 'I' for Inactive)
REMARK    1  A    between atoms: P_1  and  O_12 
REMARK    2  A    between atoms: P_1  and  O_13 
REMARK    3  A    between atoms: P_1  and  N_19 
REMARK    4  A    between atoms: C_21  and  O_10 
REMARK    5  A    between atoms: C_26  and  O_10 
REMARK    6  A    between atoms: N_15  and  C_24 
REMARK    7  A    between atoms: C_20  and  C_25 
REMARK    8  A    between atoms: C_24  and  C_27 
REMARK    9  A    between atoms: C_26  and  C_30 
REMARK   10  A    between atoms: C_38  and  C_42 
REMARK   11  A    between atoms: C_39  and  C_41 
ROOT
HETATM    1  O   UNK N   1      28.126  18.946   4.206  0.00  0.00    -0.357 OA
HETATM    2  N   UNK N   1      25.612  18.716   5.166  0.00  0.00     0.111 N 
HETATM    3  C   UNK N   1      26.413  17.500   5.339  0.00  0.00     0.311 C 
HETATM    4  C   UNK N   1      27.691  17.617   4.450  0.00  0.00     0.298 C 
HETATM    5  C   UNK N   1      26.403  19.868   5.645  0.00  0.00     0.300 C 
HETATM    6  C   UNK N   1      27.908  19.726   5.357  0.00  0.00     0.201 C 
ENDROOT
BRANCH   4   7
HETATM    7  O   UNK N   1      28.764  16.756   4.730  0.00  0.00    -0.349 OA
BRANCH   7   8
HETATM    8  C   UNK N   1      29.984  17.451   4.682  0.00  0.00     0.153 C 
HETATM    9  C   UNK N   1      30.903  16.815   3.639  0.00  0.00     0.045 C 
BRANCH   8  10
HETATM   10  C   UNK N   1      30.534  17.372   6.067  0.00  0.00    -0.028 A 
HETATM   11  C   UNK N   1      29.707  17.495   7.190  0.00  0.00     0.025 A 
HETATM   12  C   UNK N   1      30.261  17.605   8.468  0.00  0.00     0.049 A 
HETATM   13  C   UNK N   1      31.656  17.585   8.620  0.00  0.00     0.032 A 
HETATM   14  C   UNK N   1      32.489  17.456   7.498  0.00  0.00     0.049 A 
HETATM   15  C   UNK N   1      31.920  17.362   6.228  0.00  0.00     0.025 A 
BRANCH  12  16
HETATM   16  C   UNK N   1      29.373  17.824   9.657  0.00  0.00     0.417 C 
HETATM   17  F   UNK N   1      29.488  16.741  10.511  0.00  0.00    -0.166 F 
HETATM   18  F   UNK N   1      29.738  18.968  10.349  0.00  0.00    -0.166 F 
HETATM   19  F   UNK N   1      28.059  17.947   9.250  0.00  0.00    -0.166 F 
ENDBRANCH  12  16
BRANCH  14  20
HETATM   20  C   UNK N   1      33.982  17.478   7.625  0.00  0.00     0.417 C 
HETATM   21  F   UNK N   1      34.417  16.306   8.220  0.00  0.00    -0.166 F 
HETATM   22  F   UNK N   1      34.542  17.577   6.365  0.00  0.00    -0.166 F 
HETATM   23  F   UNK N   1      34.404  18.554   8.385  0.00  0.00    -0.166 F 
ENDBRANCH  14  20
ENDBRANCH   8  10
ENDBRANCH   7   8
ENDBRANCH   4   7
BRANCH   3  24
HETATM   24  C   UNK N   1      25.555  16.266   5.205  0.00  0.00    -0.020 A 
HETATM   25  C   UNK N   1      24.699  15.831   6.227  0.00  0.00     0.012 A 
HETATM   26  C   UNK N   1      23.951  14.655   6.062  0.00  0.00     0.043 A 
HETATM   27  C   UNK N   1      24.062  13.911   4.882  0.00  0.00     0.116 A 
HETATM   28  F   UNK N   1      23.351  12.768   4.728  0.00  0.00    -0.206 F 
HETATM   29  C   UNK N   1      24.910  14.343   3.862  0.00  0.00     0.043 A 
HETATM   30  C   UNK N   1      25.650  15.516   4.023  0.00  0.00     0.012 A 
ENDBRANCH   3  24
BRANCH   2  31
HETATM   31  C   UNK N   1      25.245  18.884   3.747  0.00  0.00     0.351 C 
BRANCH  31  32
HETATM   32  C   UNK N   1      23.792  19.149   3.620  0.00  0.00     0.129 A 
HETATM   33  N   UNK N   1      23.249  19.877   2.626  0.00  0.00    -0.272 N 
HETATM   34  N   UNK N   1      21.934  19.746   2.733  0.00  0.00    -0.141 N 
HETATM   35  H   UNK N   1      23.735  20.404   1.950  0.00  0.00     0.189 HD
HETATM   36  C   UNK N   1      21.704  18.916   3.782  0.00  0.00     0.351 A 
HETATM   37  O   UNK N   1      20.600  18.544   4.139  0.00  0.00    -0.244 OA
HETATM   38  N   UNK N   1      22.856  18.521   4.365  0.00  0.00    -0.294 N 
ATOM     39  HN  UNK N   1      22.987  17.904   5.167  1.00  0.00     0.172 HD
BRANCH  34  40
HETATM   40  P   UNK N   1      20.678  20.465   1.618  0.00  0.00     0.372 P 
HETATM   41  O   UNK N   1      21.893  20.680   0.674  0.00  0.00    -0.636 OA
BRANCH  40  42
HETATM   42  O   UNK N   1      20.706  22.163   1.270  0.00  0.00    -0.311 OA
HETATM   43  H   UNK N   1      21.331  22.823   1.609  0.00  0.00     0.222 HD
ENDBRANCH  40  42
BRANCH  40  44
HETATM   44  O   UNK N   1      20.752  21.520   2.997  0.00  0.00    -0.311 OA
HETATM   45  H   UNK N   1      20.587  22.252   3.613  0.00  0.00     0.222 HD
ENDBRANCH  40  44
ENDBRANCH  34  40
ENDBRANCH  31  32
ENDBRANCH   2  31
TORSDOF 11
ENDMDL
MODEL 9
REMARK VINA RESULT:      -8.0     11.778     15.163
REMARK  11 active torsions:
REMARK  status: ('A' for Active; 'I' for Inactive)
REMARK    1  A    between atoms: P_1  and  O_12 
REMARK    2  A    between atoms: P_1  and  O_13 
REMARK    3  A    between atoms: P_1  and  N_19 
REMARK    4  A    between atoms: C_21  and  O_10 
REMARK    5  A    between atoms: C_26  and  O_10 
REMARK    6  A    between atoms: N_15  and  C_24 
REMARK    7  A    between atoms: C_20  and  C_25 
REMARK    8  A    between atoms: C_24  and  C_27 
REMARK    9  A    between atoms: C_26  and  C_30 
REMARK   10  A    between atoms: C_38  and  C_42 
REMARK   11  A    between atoms: C_39  and  C_41 
ROOT
HETATM    1  O   UNK N   1      35.863  10.917  12.850  0.00  0.00    -0.357 OA
HETATM    2  N   UNK N   1      36.722  13.472  13.031  0.00  0.00     0.111 N 
HETATM    3  C   UNK N   1      36.854  12.725  14.286  0.00  0.00     0.311 C 
HETATM    4  C   UNK N   1      36.017  11.411  14.172  0.00  0.00     0.298 C 
HETATM    5  C   UNK N   1      37.292  12.655  11.939  0.00  0.00     0.300 C 
HETATM    6  C   UNK N   1      37.049  11.147  12.126  0.00  0.00     0.201 C 
ENDROOT
BRANCH   4   7
HETATM    7  O   UNK N   1      36.285  10.383  15.089  0.00  0.00    -0.349 OA
BRANCH   7   8
HETATM    8  C   UNK N   1      35.110   9.679  15.401  0.00  0.00     0.153 C 
HETATM    9  C   UNK N   1      33.906  10.617  15.323  0.00  0.00     0.045 C 
BRANCH   8  10
HETATM   10  C   UNK N   1      35.334   9.133  16.772  0.00  0.00    -0.028 A 
HETATM   11  C   UNK N   1      34.409   9.341  17.803  0.00  0.00     0.025 A 
HETATM   12  C   UNK N   1      34.723   8.985  19.117  0.00  0.00     0.049 A 
HETATM   13  C   UNK N   1      35.971   8.410  19.397  0.00  0.00     0.032 A 
HETATM   14  C   UNK N   1      36.899   8.193  18.367  0.00  0.00     0.049 A 
HETATM   15  C   UNK N   1      36.576   8.567  17.063  0.00  0.00     0.025 A 
BRANCH  12  16
HETATM   16  C   UNK N   1      33.763   9.291  20.229  0.00  0.00     0.417 C 
HETATM   17  F   UNK N   1      32.470   9.129  19.765  0.00  0.00    -0.166 F 
HETATM   18  F   UNK N   1      33.955   8.438  21.304  0.00  0.00    -0.166 F 
HETATM   19  F   UNK N   1      33.934  10.594  20.656  0.00  0.00    -0.166 F 
ENDBRANCH  12  16
BRANCH  14  20
HETATM   20  C   UNK N   1      38.257   7.622  18.644  0.00  0.00     0.417 C 
HETATM   21  F   UNK N   1      38.137   6.296  19.022  0.00  0.00    -0.166 F 
HETATM   22  F   UNK N   1      39.021   7.695  17.494  0.00  0.00    -0.166 F 
HETATM   23  F   UNK N   1      38.899   8.323  19.650  0.00  0.00    -0.166 F 
ENDBRANCH  14  20
ENDBRANCH   8  10
ENDBRANCH   7   8
ENDBRANCH   4   7
BRANCH   3  24
HETATM   24  C   UNK N   1      36.620  13.624  15.475  0.00  0.00    -0.020 A 
HETATM   25  C   UNK N   1      35.710  13.303  16.493  0.00  0.00     0.012 A 
HETATM   26  C   UNK N   1      35.505  14.193  17.557  0.00  0.00     0.043 A 
HETATM   27  C   UNK N   1      36.202  15.406  17.603  0.00  0.00     0.116 A 
HETATM   28  F   UNK N   1      35.994  16.273  18.623  0.00  0.00    -0.206 F 
HETATM   29  C   UNK N   1      37.110  15.728  16.594  0.00  0.00     0.043 A 
HETATM   30  C   UNK N   1      37.319  14.839  15.537  0.00  0.00     0.012 A 
ENDBRANCH   3  24
BRANCH   2  31
HETATM   31  C   UNK N   1      35.303  13.780  12.771  0.00  0.00     0.351 C 
BRANCH  31  32
HETATM   32  C   UNK N   1      35.180  14.690  11.607  0.00  0.00     0.129 A 
HETATM   33  N   UNK N   1      34.368  14.457  10.558  0.00  0.00    -0.272 N 
HETATM   34  N   UNK N   1      34.383  15.555   9.815  0.00  0.00    -0.141 N 
HETATM   35  H   UNK N   1      33.862  13.632  10.379  0.00  0.00     0.189 HD
HETATM   36  C   UNK N   1      35.189  16.447  10.443  0.00  0.00     0.351 A 
HETATM   37  O   UNK N   1      35.397  17.584  10.055  0.00  0.00    -0.244 OA
HETATM   38  N   UNK N   1      35.711  15.933  11.578  0.00  0.00    -0.294 N 
ATOM     39  HN  UNK N   1      36.344  16.371  12.246  1.00  0.00     0.172 HD
BRANCH  34  40
HETATM   40  P   UNK N   1      33.421  15.844   8.289  0.00  0.00     0.372 P 
HETATM   41  O   UNK N   1      34.814  16.162   7.680  0.00  0.00    -0.636 OA
BRANCH  40  42
HETATM   42  O   UNK N   1      33.293  17.447   7.641  0.00  0.00    -0.311 OA
HETATM   43  H   UNK N   1      33.438  18.284   8.110  0.00  0.00     0.222 HD
ENDBRANCH  40  42
BRANCH  40  44
HETATM   44  O   UNK N   1      32.921  17.076   9.408  0.00  0.00    -0.311 OA
HETATM   45  H   UNK N   1      32.735  17.564  10.226  0.00  0.00     0.222 HD
ENDBRANCH  40  44
ENDBRANCH  34  40
ENDBRANCH  31  32
ENDBRANCH   2  31
TORSDOF 11
ENDMDL
