MODEL 1
REMARK VINA RESULT:      -6.3      0.000      0.000
REMARK  5 active torsions:
REMARK  status: ('A' for Active; 'I' for Inactive)
REMARK    1  A    between atoms: N_1  and  C_5 
REMARK    2  A    between atoms: N_1  and  C_7 
REMARK    3  A    between atoms: N_1  and  C_9 
REMARK    4  A    between atoms: C_5  and  C_6 
REMARK    5  A    between atoms: C_7  and  C_11 
ROOT
HETATM    1  N   UNK N   1      33.137  16.752   7.148  0.00  0.00    -0.370 N 
ENDROOT
BRANCH   1   2
HETATM    2  C   UNK N   1      34.414  17.149   7.750  0.00  0.00     0.199 C 
BRANCH   2   3
HETATM    3  C   UNK N   1      34.887  16.522   9.046  0.00  0.00     0.091 A 
HETATM    4  N   UNK N   1      34.882  17.124  10.303  0.00  0.00    -0.377 N 
HETATM    5  C   UNK N   1      35.410  16.198  11.267  0.00  0.00     0.140 A 
HETATM    6  H   UNK N   1      34.568  18.036  10.500  0.00  0.00     0.160 HD
HETATM    7  C   UNK N   1      35.734  14.952  10.407  0.00  0.00     0.140 A 
HETATM    8  N   UNK N   1      35.346  15.338   9.071  0.00  0.00    -0.377 N 
ATOM      9  HN  UNK N   1      35.429  14.736   8.252  1.00  0.00     0.160 HD
ENDBRANCH   2   3
ENDBRANCH   1   2
BRANCH   1  10
HETATM   10  C   UNK N   1      31.979  16.608   8.054  0.00  0.00     0.162 C 
BRANCH  10  11
HETATM   11  C   UNK N   1      30.614  17.275   8.071  0.00  0.00    -0.040 A 
HETATM   12  C   UNK N   1      29.684  17.254   7.034  0.00  0.00     0.009 A 
HETATM   13  C   UNK N   1      28.451  17.899   7.142  0.00  0.00     0.001 A 
HETATM   14  C   UNK N   1      28.129  18.584   8.311  0.00  0.00     0.000 A 
HETATM   15  C   UNK N   1      29.044  18.621   9.365  0.00  0.00     0.001 A 
HETATM   16  C   UNK N   1      30.278  17.970   9.244  0.00  0.00     0.009 A 
ENDBRANCH  10  11
ENDBRANCH   1  10
BRANCH   1  17
HETATM   17  C   UNK N   1      33.173  16.547   5.713  0.00  0.00     0.030 A 
HETATM   18  C   UNK N   1      33.781  15.382   5.193  0.00  0.00     0.029 A 
HETATM   19  C   UNK N   1      33.840  15.140   3.818  0.00  0.00     0.002 A 
HETATM   20  C   UNK N   1      33.291  16.060   2.927  0.00  0.00     0.000 A 
HETATM   21  C   UNK N   1      32.687  17.215   3.415  0.00  0.00     0.002 A 
HETATM   22  C   UNK N   1      32.635  17.445   4.791  0.00  0.00     0.029 A 
ENDBRANCH   1  17
TORSDOF 5
ENDMDL
MODEL 2
REMARK VINA RESULT:      -6.2      1.877      3.141
REMARK  5 active torsions:
REMARK  status: ('A' for Active; 'I' for Inactive)
REMARK    1  A    between atoms: N_1  and  C_5 
REMARK    2  A    between atoms: N_1  and  C_7 
REMARK    3  A    between atoms: N_1  and  C_9 
REMARK    4  A    between atoms: C_5  and  C_6 
REMARK    5  A    between atoms: C_7  and  C_11 
ROOT
HETATM    1  N   UNK N   1      30.537  16.927   6.820  0.00  0.00    -0.370 N 
ENDROOT
BRANCH   1   2
HETATM    2  C   UNK N   1      31.093  16.950   8.177  0.00  0.00     0.199 C 
BRANCH   2   3
HETATM    3  C   UNK N   1      32.551  17.288   8.411  0.00  0.00     0.091 A 
HETATM    4  N   UNK N   1      33.232  18.394   7.905  0.00  0.00    -0.377 N 
HETATM    5  C   UNK N   1      34.595  18.351   8.357  0.00  0.00     0.140 A 
HETATM    6  H   UNK N   1      32.843  19.093   7.331  0.00  0.00     0.160 HD
HETATM    7  C   UNK N   1      34.635  17.059   9.209  0.00  0.00     0.140 A 
HETATM    8  N   UNK N   1      33.290  16.542   9.125  0.00  0.00    -0.377 N 
ATOM      9  HN  UNK N   1      32.973  15.687   9.582  1.00  0.00     0.160 HD
ENDBRANCH   2   3
ENDBRANCH   1   2
BRANCH   1  10
HETATM   10  C   UNK N   1      29.108  17.272   6.670  0.00  0.00     0.162 C 
BRANCH  10  11
HETATM   11  C   UNK N   1      28.412  18.553   6.241  0.00  0.00    -0.040 A 
HETATM   12  C   UNK N   1      27.874  19.514   7.095  0.00  0.00     0.009 A 
HETATM   13  C   UNK N   1      27.252  20.663   6.606  0.00  0.00     0.001 A 
HETATM   14  C   UNK N   1      27.159  20.867   5.231  0.00  0.00     0.000 A 
HETATM   15  C   UNK N   1      27.690  19.920   4.354  0.00  0.00     0.001 A 
HETATM   16  C   UNK N   1      28.312  18.771   4.858  0.00  0.00     0.009 A 
ENDBRANCH  10  11
ENDBRANCH   1  10
BRANCH   1  17
HETATM   17  C   UNK N   1      31.476  16.563   5.778  0.00  0.00     0.030 A 
HETATM   18  C   UNK N   1      31.821  17.513   4.790  0.00  0.00     0.029 A 
HETATM   19  C   UNK N   1      32.722  17.209   3.766  0.00  0.00     0.002 A 
HETATM   20  C   UNK N   1      33.301  15.943   3.704  0.00  0.00     0.000 A 
HETATM   21  C   UNK N   1      32.977  14.990   4.666  0.00  0.00     0.002 A 
HETATM   22  C   UNK N   1      32.076  15.307   5.684  0.00  0.00     0.029 A 
ENDBRANCH   1  17
TORSDOF 5
ENDMDL
MODEL 3
REMARK VINA RESULT:      -6.2      5.966     10.026
REMARK  5 active torsions:
REMARK  status: ('A' for Active; 'I' for Inactive)
REMARK    1  A    between atoms: N_1  and  C_5 
REMARK    2  A    between atoms: N_1  and  C_7 
REMARK    3  A    between atoms: N_1  and  C_9 
REMARK    4  A    between atoms: C_5  and  C_6 
REMARK    5  A    between atoms: C_7  and  C_11 
ROOT
HETATM    1  N   UNK N   1      35.497  12.328  14.088  0.00  0.00    -0.370 N 
ENDROOT
BRANCH   1   2
HETATM    2  C   UNK N   1      36.356  13.225  13.306  0.00  0.00     0.199 C 
BRANCH   2   3
HETATM    3  C   UNK N   1      35.755  14.218  12.333  0.00  0.00     0.091 A 
HETATM    4  N   UNK N   1      34.563  14.064  11.628  0.00  0.00    -0.377 N 
HETATM    5  C   UNK N   1      34.347  15.228  10.814  0.00  0.00     0.140 A 
HETATM    6  H   UNK N   1      33.964  13.284  11.679  0.00  0.00     0.160 HD
HETATM    7  C   UNK N   1      35.583  16.105  11.130  0.00  0.00     0.140 A 
HETATM    8  N   UNK N   1      36.333  15.321  12.082  0.00  0.00    -0.377 N 
ATOM      9  HN  UNK N   1      37.216  15.615  12.500  1.00  0.00     0.160 HD
ENDBRANCH   2   3
ENDBRANCH   1   2
BRANCH   1  10
HETATM   10  C   UNK N   1      34.918  12.867  15.336  0.00  0.00     0.162 C 
BRANCH  10  11
HETATM   11  C   UNK N   1      35.093  12.468  16.791  0.00  0.00    -0.040 A 
HETATM   12  C   UNK N   1      35.293  11.172  17.263  0.00  0.00     0.009 A 
HETATM   13  C   UNK N   1      35.444  10.902  18.623  0.00  0.00     0.001 A 
HETATM   14  C   UNK N   1      35.396  11.945  19.544  0.00  0.00     0.000 A 
HETATM   15  C   UNK N   1      35.197  13.253  19.098  0.00  0.00     0.001 A 
HETATM   16  C   UNK N   1      35.047  13.510  17.730  0.00  0.00     0.009 A 
ENDBRANCH  10  11
ENDBRANCH   1  10
BRANCH   1  17
HETATM   17  C   UNK N   1      35.322  11.003  13.527  0.00  0.00     0.030 A 
HETATM   18  C   UNK N   1      36.233   9.978  13.871  0.00  0.00     0.029 A 
HETATM   19  C   UNK N   1      36.105   8.684  13.356  0.00  0.00     0.002 A 
HETATM   20  C   UNK N   1      35.061   8.384  12.483  0.00  0.00     0.000 A 
HETATM   21  C   UNK N   1      34.152   9.378  12.129  0.00  0.00     0.002 A 
HETATM   22  C   UNK N   1      34.291  10.666  12.651  0.00  0.00     0.029 A 
ENDBRANCH   1  17
TORSDOF 5
ENDMDL
MODEL 4
REMARK VINA RESULT:      -6.2      0.708      4.958
REMARK  5 active torsions:
REMARK  status: ('A' for Active; 'I' for Inactive)
REMARK    1  A    between atoms: N_1  and  C_5 
REMARK    2  A    between atoms: N_1  and  C_7 
REMARK    3  A    between atoms: N_1  and  C_9 
REMARK    4  A    between atoms: C_5  and  C_6 
REMARK    5  A    between atoms: C_7  and  C_11 
ROOT
HETATM    1  N   UNK N   1      32.124  16.882   7.901  0.00  0.00    -0.370 N 
ENDROOT
BRANCH   1   2
HETATM    2  C   UNK N   1      32.514  15.871   8.890  0.00  0.00     0.199 C 
BRANCH   2   3
HETATM    3  C   UNK N   1      33.905  15.871   9.490  0.00  0.00     0.091 A 
HETATM    4  N   UNK N   1      34.874  14.882   9.327  0.00  0.00    -0.377 N 
HETATM    5  C   UNK N   1      36.053  15.258  10.057  0.00  0.00     0.140 A 
HETATM    6  H   UNK N   1      34.768  14.059   8.797  0.00  0.00     0.160 HD
HETATM    7  C   UNK N   1      35.653  16.616  10.684  0.00  0.00     0.140 A 
HETATM    8  N   UNK N   1      34.301  16.828  10.225  0.00  0.00    -0.377 N 
ATOM      9  HN  UNK N   1      33.736  17.644  10.461  1.00  0.00     0.160 HD
ENDBRANCH   2   3
ENDBRANCH   1   2
BRANCH   1  10
HETATM   10  C   UNK N   1      33.093  17.184   6.827  0.00  0.00     0.162 C 
BRANCH  10  11
HETATM   11  C   UNK N   1      33.241  16.648   5.413  0.00  0.00    -0.040 A 
HETATM   12  C   UNK N   1      33.929  15.493   5.048  0.00  0.00     0.009 A 
HETATM   13  C   UNK N   1      34.011  15.079   3.719  0.00  0.00     0.001 A 
HETATM   14  C   UNK N   1      33.394  15.830   2.721  0.00  0.00     0.000 A 
HETATM   15  C   UNK N   1      32.699  16.991   3.060  0.00  0.00     0.001 A 
HETATM   16  C   UNK N   1      32.624  17.396   4.398  0.00  0.00     0.009 A 
ENDBRANCH  10  11
ENDBRANCH   1  10
BRANCH   1  17
HETATM   17  C   UNK N   1      30.814  17.468   8.107  0.00  0.00     0.030 A 
HETATM   18  C   UNK N   1      29.853  17.398   7.073  0.00  0.00     0.029 A 
HETATM   19  C   UNK N   1      28.577  17.948   7.224  0.00  0.00     0.002 A 
HETATM   20  C   UNK N   1      28.230  18.582   8.416  0.00  0.00     0.000 A 
HETATM   21  C   UNK N   1      29.161  18.663   9.448  0.00  0.00     0.002 A 
HETATM   22  C   UNK N   1      30.432  18.110   9.285  0.00  0.00     0.029 A 
ENDBRANCH   1  17
TORSDOF 5
ENDMDL
MODEL 5
REMARK VINA RESULT:      -6.2      6.892     10.998
REMARK  5 active torsions:
REMARK  status: ('A' for Active; 'I' for Inactive)
REMARK    1  A    between atoms: N_1  and  C_5 
REMARK    2  A    between atoms: N_1  and  C_7 
REMARK    3  A    between atoms: N_1  and  C_9 
REMARK    4  A    between atoms: C_5  and  C_6 
REMARK    5  A    between atoms: C_7  and  C_11 
ROOT
HETATM    1  N   UNK N   1      35.198  12.528  15.289  0.00  0.00    -0.370 N 
ENDROOT
BRANCH   1   2
HETATM    2  C   UNK N   1      36.050  13.598  14.760  0.00  0.00     0.199 C 
BRANCH   2   3
HETATM    3  C   UNK N   1      36.416  13.642  13.290  0.00  0.00     0.091 A 
HETATM    4  N   UNK N   1      37.380  12.860  12.657  0.00  0.00    -0.377 N 
HETATM    5  C   UNK N   1      37.420  13.205  11.263  0.00  0.00     0.140 A 
HETATM    6  H   UNK N   1      37.943  12.181  13.094  0.00  0.00     0.160 HD
HETATM    7  C   UNK N   1      36.340  14.308  11.149  0.00  0.00     0.140 A 
HETATM    8  N   UNK N   1      35.832  14.441  12.494  0.00  0.00    -0.377 N 
ATOM      9  HN  UNK N   1      35.098  15.093  12.769  1.00  0.00     0.160 HD
ENDBRANCH   2   3
ENDBRANCH   1   2
BRANCH   1  10
HETATM   10  C   UNK N   1      34.375  11.779  14.317  0.00  0.00     0.162 C 
BRANCH  10  11
HETATM   11  C   UNK N   1      34.602  10.458  13.601  0.00  0.00    -0.040 A 
HETATM   12  C   UNK N   1      35.408   9.415  14.051  0.00  0.00     0.009 A 
HETATM   13  C   UNK N   1      35.555   8.235  13.321  0.00  0.00     0.001 A 
HETATM   14  C   UNK N   1      34.883   8.083  12.110  0.00  0.00     0.000 A 
HETATM   15  C   UNK N   1      34.069   9.113  11.637  0.00  0.00     0.001 A 
HETATM   16  C   UNK N   1      33.930  10.292  12.379  0.00  0.00     0.009 A 
ENDBRANCH  10  11
ENDBRANCH   1  10
BRANCH   1  17
HETATM   17  C   UNK N   1      35.272  12.338  16.724  0.00  0.00     0.030 A 
HETATM   18  C   UNK N   1      35.105  13.449  17.581  0.00  0.00     0.029 A 
HETATM   19  C   UNK N   1      35.168  13.316  18.971  0.00  0.00     0.002 A 
HETATM   20  C   UNK N   1      35.399  12.065  19.539  0.00  0.00     0.000 A 
HETATM   21  C   UNK N   1      35.567  10.955  18.715  0.00  0.00     0.002 A 
HETATM   22  C   UNK N   1      35.502  11.102  17.328  0.00  0.00     0.029 A 
ENDBRANCH   1  17
TORSDOF 5
ENDMDL
MODEL 6
REMARK VINA RESULT:      -6.1      3.632      6.169
REMARK  5 active torsions:
REMARK  status: ('A' for Active; 'I' for Inactive)
REMARK    1  A    between atoms: N_1  and  C_5 
REMARK    2  A    between atoms: N_1  and  C_7 
REMARK    3  A    between atoms: N_1  and  C_9 
REMARK    4  A    between atoms: C_5  and  C_6 
REMARK    5  A    between atoms: C_7  and  C_11 
ROOT
HETATM    1  N   UNK N   1      28.506  17.087   4.455  0.00  0.00    -0.370 N 
ENDROOT
BRANCH   1   2
HETATM    2  C   UNK N   1      29.123  16.518   3.251  0.00  0.00     0.199 C 
BRANCH   2   3
HETATM    3  C   UNK N   1      30.621  16.304   3.177  0.00  0.00     0.091 A 
HETATM    4  N   UNK N   1      31.593  17.299   3.091  0.00  0.00    -0.377 N 
HETATM    5  C   UNK N   1      32.890  16.684   3.041  0.00  0.00     0.140 A 
HETATM    6  H   UNK N   1      31.420  18.268   3.069  0.00  0.00     0.160 HD
HETATM    7  C   UNK N   1      32.558  15.173   3.108  0.00  0.00     0.140 A 
HETATM    8  N   UNK N   1      31.117  15.135   3.188  0.00  0.00    -0.377 N 
ATOM      9  HN  UNK N   1      30.568  14.278   3.246  1.00  0.00     0.160 HD
ENDBRANCH   2   3
ENDBRANCH   1   2
BRANCH   1  10
HETATM   10  C   UNK N   1      28.943  16.543   5.758  0.00  0.00     0.162 C 
BRANCH  10  11
HETATM   11  C   UNK N   1      29.269  17.216   7.080  0.00  0.00    -0.040 A 
HETATM   12  C   UNK N   1      30.548  17.468   7.573  0.00  0.00     0.009 A 
HETATM   13  C   UNK N   1      30.749  18.094   8.803  0.00  0.00     0.001 A 
HETATM   14  C   UNK N   1      29.652  18.482   9.569  0.00  0.00     0.000 A 
HETATM   15  C   UNK N   1      28.360  18.242   9.098  0.00  0.00     0.001 A 
HETATM   16  C   UNK N   1      28.172  17.613   7.862  0.00  0.00     0.009 A 
ENDBRANCH  10  11
ENDBRANCH   1  10
BRANCH   1  17
HETATM   17  C   UNK N   1      27.529  18.129   4.209  0.00  0.00     0.030 A 
HETATM   18  C   UNK N   1      27.857  19.471   4.503  0.00  0.00     0.029 A 
HETATM   19  C   UNK N   1      26.948  20.511   4.283  0.00  0.00     0.002 A 
HETATM   20  C   UNK N   1      25.686  20.231   3.763  0.00  0.00     0.000 A 
HETATM   21  C   UNK N   1      25.340  18.915   3.466  0.00  0.00     0.002 A 
HETATM   22  C   UNK N   1      26.257  17.887   3.690  0.00  0.00     0.029 A 
ENDBRANCH   1  17
TORSDOF 5
ENDMDL
MODEL 7
REMARK VINA RESULT:      -6.1      5.967     11.304
REMARK  5 active torsions:
REMARK  status: ('A' for Active; 'I' for Inactive)
REMARK    1  A    between atoms: N_1  and  C_5 
REMARK    2  A    between atoms: N_1  and  C_7 
REMARK    3  A    between atoms: N_1  and  C_9 
REMARK    4  A    between atoms: C_5  and  C_6 
REMARK    5  A    between atoms: C_7  and  C_11 
ROOT
HETATM    1  N   UNK N   1      36.305  12.852  14.507  0.00  0.00    -0.370 N 
ENDROOT
BRANCH   1   2
HETATM    2  C   UNK N   1      35.185  13.071  13.585  0.00  0.00     0.199 C 
BRANCH   2   3
HETATM    3  C   UNK N   1      35.317  14.029  12.420  0.00  0.00     0.091 A 
HETATM    4  N   UNK N   1      36.350  14.942  12.216  0.00  0.00    -0.377 N 
HETATM    5  C   UNK N   1      36.105  15.661  10.997  0.00  0.00     0.140 A 
HETATM    6  H   UNK N   1      37.123  15.074  12.812  0.00  0.00     0.160 HD
HETATM    7  C   UNK N   1      34.775  15.048  10.495  0.00  0.00     0.140 A 
HETATM    8  N   UNK N   1      34.444  14.063  11.498  0.00  0.00    -0.377 N 
ATOM      9  HN  UNK N   1      33.614  13.471  11.470  1.00  0.00     0.160 HD
ENDBRANCH   2   3
ENDBRANCH   1   2
BRANCH   1  10
HETATM   10  C   UNK N   1      37.237  11.751  14.186  0.00  0.00     0.162 C 
BRANCH  10  11
HETATM   11  C   UNK N   1      37.592  10.473  14.927  0.00  0.00    -0.040 A 
HETATM   12  C   UNK N   1      36.893   9.936  16.006  0.00  0.00     0.009 A 
HETATM   13  C   UNK N   1      37.296   8.752  16.624  0.00  0.00     0.001 A 
HETATM   14  C   UNK N   1      38.425   8.079  16.161  0.00  0.00     0.000 A 
HETATM   15  C   UNK N   1      39.143   8.596  15.081  0.00  0.00     0.001 A 
HETATM   16  C   UNK N   1      38.727   9.785  14.470  0.00  0.00     0.009 A 
ENDBRANCH  10  11
ENDBRANCH   1  10
BRANCH   1  17
HETATM   17  C   UNK N   1      36.357  13.760  15.636  0.00  0.00     0.030 A 
HETATM   18  C   UNK N   1      35.537  13.516  16.761  0.00  0.00     0.029 A 
HETATM   19  C   UNK N   1      35.552  14.363  17.873  0.00  0.00     0.002 A 
HETATM   20  C   UNK N   1      36.390  15.476  17.887  0.00  0.00     0.000 A 
HETATM   21  C   UNK N   1      37.208  15.736  16.790  0.00  0.00     0.002 A 
HETATM   22  C   UNK N   1      37.183  14.883  15.685  0.00  0.00     0.029 A 
ENDBRANCH   1  17
TORSDOF 5
ENDMDL
MODEL 8
REMARK VINA RESULT:      -6.1      2.115      5.484
REMARK  5 active torsions:
REMARK  status: ('A' for Active; 'I' for Inactive)
REMARK    1  A    between atoms: N_1  and  C_5 
REMARK    2  A    between atoms: N_1  and  C_7 
REMARK    3  A    between atoms: N_1  and  C_9 
REMARK    4  A    between atoms: C_5  and  C_6 
REMARK    5  A    between atoms: C_7  and  C_11 
ROOT
HETATM    1  N   UNK N   1      29.368  17.537   6.634  0.00  0.00    -0.370 N 
ENDROOT
BRANCH   1   2
HETATM    2  C   UNK N   1      29.816  17.549   8.031  0.00  0.00     0.199 C 
BRANCH   2   3
HETATM    3  C   UNK N   1      31.246  17.198   8.389  0.00  0.00     0.091 A 
HETATM    4  N   UNK N   1      31.676  16.028   9.014  0.00  0.00    -0.377 N 
HETATM    5  C   UNK N   1      33.102  16.081   9.175  0.00  0.00     0.140 A 
HETATM    6  H   UNK N   1      31.096  15.286   9.300  0.00  0.00     0.160 HD
HETATM    7  C   UNK N   1      33.469  17.452   8.556  0.00  0.00     0.140 A 
HETATM    8  N   UNK N   1      32.201  17.992   8.127  0.00  0.00    -0.377 N 
ATOM      9  HN  UNK N   1      32.087  18.897   7.671  1.00  0.00     0.160 HD
ENDBRANCH   2   3
ENDBRANCH   1   2
BRANCH   1  10
HETATM   10  C   UNK N   1      29.816  16.408   5.792  0.00  0.00     0.162 C 
BRANCH  10  11
HETATM   11  C   UNK N   1      30.963  16.269   4.805  0.00  0.00    -0.040 A 
HETATM   12  C   UNK N   1      31.342  15.096   4.155  0.00  0.00     0.009 A 
HETATM   13  C   UNK N   1      32.412  15.067   3.262  0.00  0.00     0.001 A 
HETATM   14  C   UNK N   1      33.131  16.232   3.004  0.00  0.00     0.000 A 
HETATM   15  C   UNK N   1      32.772  17.421   3.642  0.00  0.00     0.001 A 
HETATM   16  C   UNK N   1      31.694  17.437   4.537  0.00  0.00     0.009 A 
ENDBRANCH  10  11
ENDBRANCH   1  10
BRANCH   1  17
HETATM   17  C   UNK N   1      28.529  18.654   6.249  0.00  0.00     0.030 A 
HETATM   18  C   UNK N   1      28.300  18.910   4.878  0.00  0.00     0.029 A 
HETATM   19  C   UNK N   1      27.498  19.975   4.457  0.00  0.00     0.002 A 
HETATM   20  C   UNK N   1      26.904  20.811   5.400  0.00  0.00     0.000 A 
HETATM   21  C   UNK N   1      27.114  20.578   6.757  0.00  0.00     0.002 A 
HETATM   22  C   UNK N   1      27.917  19.511   7.163  0.00  0.00     0.029 A 
ENDBRANCH   1  17
TORSDOF 5
ENDMDL
MODEL 9
REMARK VINA RESULT:      -6.0      3.200      6.263
REMARK  5 active torsions:
REMARK  status: ('A' for Active; 'I' for Inactive)
REMARK    1  A    between atoms: N_1  and  C_5 
REMARK    2  A    between atoms: N_1  and  C_7 
REMARK    3  A    between atoms: N_1  and  C_9 
REMARK    4  A    between atoms: C_5  and  C_6 
REMARK    5  A    between atoms: C_7  and  C_11 
ROOT
HETATM    1  N   UNK N   1      28.917  17.261   6.387  0.00  0.00    -0.370 N 
ENDROOT
BRANCH   1   2
HETATM    2  C   UNK N   1      28.399  16.074   5.697  0.00  0.00     0.199 C 
BRANCH   2   3
HETATM    3  C   UNK N   1      29.324  15.170   4.911  0.00  0.00     0.091 A 
HETATM    4  N   UNK N   1      29.952  14.018   5.384  0.00  0.00    -0.377 N 
HETATM    5  C   UNK N   1      30.743  13.449   4.330  0.00  0.00     0.140 A 
HETATM    6  H   UNK N   1      29.866  13.654   6.295  0.00  0.00     0.160 HD
HETATM    7  C   UNK N   1      30.502  14.424   3.152  0.00  0.00     0.140 A 
HETATM    8  N   UNK N   1      29.605  15.416   3.697  0.00  0.00    -0.377 N 
ATOM      9  HN  UNK N   1      29.244  16.213   3.174  1.00  0.00     0.160 HD
ENDBRANCH   2   3
ENDBRANCH   1   2
BRANCH   1  10
HETATM   10  C   UNK N   1      30.016  17.053   7.353  0.00  0.00     0.162 C 
BRANCH  10  11
HETATM   11  C   UNK N   1      31.515  17.277   7.249  0.00  0.00    -0.040 A 
HETATM   12  C   UNK N   1      32.286  17.114   6.099  0.00  0.00     0.009 A 
HETATM   13  C   UNK N   1      33.661  17.344   6.100  0.00  0.00     0.001 A 
HETATM   14  C   UNK N   1      34.294  17.748   7.274  0.00  0.00     0.000 A 
HETATM   15  C   UNK N   1      33.545  17.920   8.439  0.00  0.00     0.001 A 
HETATM   16  C   UNK N   1      32.164  17.685   8.424  0.00  0.00     0.009 A 
ENDBRANCH  10  11
ENDBRANCH   1  10
BRANCH   1  17
HETATM   17  C   UNK N   1      28.275  18.509   6.027  0.00  0.00     0.030 A 
HETATM   18  C   UNK N   1      28.056  18.810   4.663  0.00  0.00     0.029 A 
HETATM   19  C   UNK N   1      27.441  20.001   4.267  0.00  0.00     0.002 A 
HETATM   20  C   UNK N   1      27.028  20.922   5.228  0.00  0.00     0.000 A 
HETATM   21  C   UNK N   1      27.232  20.648   6.578  0.00  0.00     0.002 A 
HETATM   22  C   UNK N   1      27.848  19.455   6.960  0.00  0.00     0.029 A 
ENDBRANCH   1  17
TORSDOF 5
ENDMDL
