REMARK  7 active torsions:
REMARK  status: ('A' for Active; 'I' for Inactive)
REMARK    1  A    between atoms: O_2  and  C_15 
REMARK    2  A    between atoms: O_2  and  C_16 
REMARK    3  A    between atoms: O_3  and  C_17 
REMARK    4  A    between atoms: O_3  and  C_22 
REMARK    5  A    between atoms: N_5  and  C_14 
REMARK       I    between atoms: N_6  and  C_22 
REMARK    6  A    between atoms: C_14  and  C_15 
REMARK    7  A    between atoms: C_16  and  C_17 
ROOT
HETATM    1  S   UNK N   1       3.566  -5.891  -0.203  0.00  0.00    -0.084 SA
HETATM    2  O   UNK N   1       2.280  -0.699   0.511  0.00  0.00    -0.237 OA
HETATM    3  N   UNK N   1       3.395  -2.675   0.211  0.00  0.00    -0.241 N 
HETATM    4  N   UNK N   1       5.833  -2.541   0.122  0.00  0.00    -0.351 N 
ATOM      5  HN  UNK N   1       5.726  -1.537   0.268  1.00  0.00     0.166 HD
HETATM    6  C   UNK N   1       2.162  -3.458   0.196  0.00  0.00     0.063 A 
HETATM    7  C   UNK N   1       4.699  -3.308   0.063  0.00  0.00     0.134 A 
HETATM    8  C   UNK N   1       2.136  -4.863   0.008  0.00  0.00     0.033 A 
HETATM    9  C   UNK N   1       4.872  -4.698  -0.122  0.00  0.00     0.050 A 
HETATM   10  C   UNK N   1       3.336  -1.284   0.320  0.00  0.00     0.373 C 
HETATM   11  C   UNK N   1       0.907  -2.814   0.322  0.00  0.00     0.031 A 
HETATM   12  C   UNK N   1       0.913  -5.546  -0.042  0.00  0.00     0.021 A 
HETATM   13  C   UNK N   1       6.164  -5.218  -0.251  0.00  0.00     0.024 A 
HETATM   14  C   UNK N   1      -0.300  -3.503   0.271  0.00  0.00     0.002 A 
HETATM   15  C   UNK N   1      -0.297  -4.875   0.087  0.00  0.00     0.002 A 
HETATM   16  C   UNK N   1       7.278  -4.392  -0.196  0.00  0.00     0.018 A 
HETATM   17  C   UNK N   1       7.090  -3.035  -0.002  0.00  0.00     0.090 A 
ENDROOT
BRANCH  10  18
HETATM   18  O   UNK N   1       4.433  -0.528   0.137  0.00  0.00    -0.301 OA
BRANCH  18  19
HETATM   19  C   UNK N   1       4.642   0.017  -1.107  0.00  0.00     0.207 C 
BRANCH  19  20
HETATM   20  C   UNK N   1       5.372   1.332  -0.996  0.00  0.00     0.194 C 
BRANCH  20  21
HETATM   21  O   UNK N   1       4.722   2.176  -0.091  0.00  0.00    -0.387 OA
BRANCH  21  22
HETATM   22  C   UNK N   1       5.601   2.265   0.993  0.00  0.00     0.198 C 
BRANCH  22  23
HETATM   23  C   UNK N   1       6.385   3.572   0.936  0.00  0.00     0.298 C 
BRANCH  23  24
HETATM   24  N   UNK N   1       7.008   3.750  -0.376  0.00  0.00     0.090 N 
HETATM   25  C   UNK N   1       8.171   2.867  -0.556  0.00  0.00     0.272 C 
HETATM   26  C   UNK N   1       9.346   3.265   0.335  0.00  0.00     0.030 C 
HETATM   27  C   UNK N   1       9.723   4.712   0.060  0.00  0.00     0.003 C 
HETATM   28  C   UNK N   1       8.516   5.605   0.305  0.00  0.00     0.030 C 
HETATM   29  C   UNK N   1       7.357   5.159  -0.588  0.00  0.00     0.272 C 
ENDBRANCH  23  24
ENDBRANCH  22  23
ENDBRANCH  21  22
ENDBRANCH  20  21
ENDBRANCH  19  20
ENDBRANCH  18  19
ENDBRANCH  10  18
TORSDOF 7
