MODEL 1
REMARK VINA RESULT:      -7.1      0.000      0.000
REMARK  7 active torsions:
REMARK  status: ('A' for Active; 'I' for Inactive)
REMARK    1  A    between atoms: O_2  and  C_15 
REMARK    2  A    between atoms: O_2  and  C_16 
REMARK    3  A    between atoms: O_3  and  C_17 
REMARK    4  A    between atoms: O_3  and  C_22 
REMARK    5  A    between atoms: N_5  and  C_14 
REMARK       I    between atoms: N_6  and  C_22 
REMARK    6  A    between atoms: C_14  and  C_15 
REMARK    7  A    between atoms: C_16  and  C_17 
ROOT
HETATM    1  S   UNK N   1      29.086  16.947   5.570  0.00  0.00    -0.084 SA
HETATM    2  O   UNK N   1      34.281  17.800   6.756  0.00  0.00    -0.237 OA
HETATM    3  N   UNK N   1      32.006  17.568   6.847  0.00  0.00    -0.241 N 
HETATM    4  N   UNK N   1      30.963  17.959   9.022  0.00  0.00    -0.351 N 
ATOM      5  HN  UNK N   1      31.900  18.159   9.372  1.00  0.00     0.166 HD
HETATM    6  C   UNK N   1      31.902  17.256   5.424  0.00  0.00     0.063 A 
HETATM    7  C   UNK N   1      30.826  17.624   7.700  0.00  0.00     0.134 A 
HETATM    8  C   UNK N   1      30.674  16.958   4.781  0.00  0.00     0.033 A 
HETATM    9  C   UNK N   1      29.517  17.369   7.235  0.00  0.00     0.050 A 
HETATM   10  C   UNK N   1      33.260  17.771   7.427  0.00  0.00     0.373 C 
HETATM   11  C   UNK N   1      33.068  17.188   4.623  0.00  0.00     0.031 A 
HETATM   12  C   UNK N   1      30.654  16.622   3.420  0.00  0.00     0.021 A 
HETATM   13  C   UNK N   1      28.442  17.450   8.127  0.00  0.00     0.024 A 
HETATM   14  C   UNK N   1      33.034  16.853   3.273  0.00  0.00     0.002 A 
HETATM   15  C   UNK N   1      31.822  16.568   2.670  0.00  0.00     0.002 A 
HETATM   16  C   UNK N   1      28.641  17.782   9.460  0.00  0.00     0.018 A 
HETATM   17  C   UNK N   1      29.928  18.041   9.895  0.00  0.00     0.090 A 
ENDROOT
BRANCH  10  18
HETATM   18  O   UNK N   1      33.399  17.861   8.762  0.00  0.00    -0.301 OA
BRANCH  18  19
HETATM   19  C   UNK N   1      34.342  17.066   9.368  0.00  0.00     0.207 C 
BRANCH  19  20
HETATM   20  C   UNK N   1      33.941  15.614   9.294  0.00  0.00     0.194 C 
BRANCH  20  21
HETATM   21  O   UNK N   1      35.063  14.808   9.078  0.00  0.00    -0.387 OA
BRANCH  21  22
HETATM   22  C   UNK N   1      34.628  13.517   9.391  0.00  0.00     0.198 C 
BRANCH  22  23
HETATM   23  C   UNK N   1      34.953  13.184  10.844  0.00  0.00     0.298 C 
BRANCH  23  24
HETATM   24  N   UNK N   1      36.176  13.863  11.274  0.00  0.00     0.090 N 
HETATM   25  C   UNK N   1      37.281  12.916  11.493  0.00  0.00     0.272 C 
HETATM   26  C   UNK N   1      37.049  12.025  12.711  0.00  0.00     0.030 C 
HETATM   27  C   UNK N   1      36.833  12.893  13.941  0.00  0.00     0.003 C 
HETATM   28  C   UNK N   1      35.653  13.823  13.703  0.00  0.00     0.030 C 
HETATM   29  C   UNK N   1      35.915  14.680  12.464  0.00  0.00     0.272 C 
ENDBRANCH  23  24
ENDBRANCH  22  23
ENDBRANCH  21  22
ENDBRANCH  20  21
ENDBRANCH  19  20
ENDBRANCH  18  19
ENDBRANCH  10  18
TORSDOF 7
ENDMDL
MODEL 2
REMARK VINA RESULT:      -6.8      8.153     11.062
REMARK  7 active torsions:
REMARK  status: ('A' for Active; 'I' for Inactive)
REMARK    1  A    between atoms: O_2  and  C_15 
REMARK    2  A    between atoms: O_2  and  C_16 
REMARK    3  A    between atoms: O_3  and  C_17 
REMARK    4  A    between atoms: O_3  and  C_22 
REMARK    5  A    between atoms: N_5  and  C_14 
REMARK       I    between atoms: N_6  and  C_22 
REMARK    6  A    between atoms: C_14  and  C_15 
REMARK    7  A    between atoms: C_16  and  C_17 
ROOT
HETATM    1  S   UNK N   1      20.302  15.006   8.950  0.00  0.00    -0.084 SA
HETATM    2  O   UNK N   1      25.177  13.013   7.774  0.00  0.00    -0.237 OA
HETATM    3  N   UNK N   1      23.243  14.237   7.810  0.00  0.00    -0.241 N 
HETATM    4  N   UNK N   1      23.058  16.021   6.151  0.00  0.00    -0.351 N 
ATOM      5  HN  UNK N   1      23.979  15.731   5.820  1.00  0.00     0.166 HD
HETATM    6  C   UNK N   1      22.678  13.456   8.908  0.00  0.00     0.063 A 
HETATM    7  C   UNK N   1      22.508  15.339   7.204  0.00  0.00     0.134 A 
HETATM    8  C   UNK N   1      21.409  13.725   9.480  0.00  0.00     0.033 A 
HETATM    9  C   UNK N   1      21.224  15.747   7.633  0.00  0.00     0.050 A 
HETATM   10  C   UNK N   1      24.534  13.964   7.352  0.00  0.00     0.373 C 
HETATM   11  C   UNK N   1      23.423  12.403   9.491  0.00  0.00     0.031 A 
HETATM   12  C   UNK N   1      20.948  12.965  10.563  0.00  0.00     0.021 A 
HETATM   13  C   UNK N   1      20.592  16.815   6.989  0.00  0.00     0.024 A 
HETATM   14  C   UNK N   1      22.955  11.655  10.566  0.00  0.00     0.002 A 
HETATM   15  C   UNK N   1      21.712  11.938  11.105  0.00  0.00     0.002 A 
HETATM   16  C   UNK N   1      21.202  17.478   5.933  0.00  0.00     0.018 A 
HETATM   17  C   UNK N   1      22.453  17.058   5.519  0.00  0.00     0.090 A 
ENDROOT
BRANCH  10  18
HETATM   18  O   UNK N   1      25.150  14.787   6.487  0.00  0.00    -0.301 OA
BRANCH  18  19
HETATM   19  C   UNK N   1      26.215  14.294   5.772  0.00  0.00     0.207 C 
BRANCH  19  20
HETATM   20  C   UNK N   1      26.591  15.238   4.658  0.00  0.00     0.194 C 
BRANCH  20  21
HETATM   21  O   UNK N   1      25.445  15.740   4.036  0.00  0.00    -0.387 OA
BRANCH  21  22
HETATM   22  C   UNK N   1      25.863  16.943   3.457  0.00  0.00     0.198 C 
BRANCH  22  23
HETATM   23  C   UNK N   1      26.086  18.001   4.532  0.00  0.00     0.298 C 
BRANCH  23  24
HETATM   24  N   UNK N   1      27.277  18.800   4.238  0.00  0.00     0.090 N 
HETATM   25  C   UNK N   1      28.274  18.717   5.317  0.00  0.00     0.272 C 
HETATM   26  C   UNK N   1      27.810  19.418   6.592  0.00  0.00     0.030 C 
HETATM   27  C   UNK N   1      27.477  20.868   6.280  0.00  0.00     0.003 C 
HETATM   28  C   UNK N   1      26.407  20.921   5.200  0.00  0.00     0.030 C 
HETATM   29  C   UNK N   1      26.901  20.189   3.951  0.00  0.00     0.272 C 
ENDBRANCH  23  24
ENDBRANCH  22  23
ENDBRANCH  21  22
ENDBRANCH  20  21
ENDBRANCH  19  20
ENDBRANCH  18  19
ENDBRANCH  10  18
TORSDOF 7
ENDMDL
MODEL 3
REMARK VINA RESULT:      -6.6      9.458     13.288
REMARK  7 active torsions:
REMARK  status: ('A' for Active; 'I' for Inactive)
REMARK    1  A    between atoms: O_2  and  C_15 
REMARK    2  A    between atoms: O_2  and  C_16 
REMARK    3  A    between atoms: O_3  and  C_17 
REMARK    4  A    between atoms: O_3  and  C_22 
REMARK    5  A    between atoms: N_5  and  C_14 
REMARK       I    between atoms: N_6  and  C_22 
REMARK    6  A    between atoms: C_14  and  C_15 
REMARK    7  A    between atoms: C_16  and  C_17 
ROOT
HETATM    1  S   UNK N   1      25.767  16.443   5.453  0.00  0.00    -0.084 SA
HETATM    2  O   UNK N   1      22.839  20.391   3.224  0.00  0.00    -0.237 OA
HETATM    3  N   UNK N   1      23.529  18.459   4.240  0.00  0.00    -0.241 N 
HETATM    4  N   UNK N   1      21.777  16.866   4.841  0.00  0.00    -0.351 N 
ATOM      5  HN  UNK N   1      21.116  17.527   4.434  1.00  0.00     0.166 HD
HETATM    6  C   UNK N   1      24.939  18.833   4.167  0.00  0.00     0.063 A 
HETATM    7  C   UNK N   1      23.108  17.194   4.828  0.00  0.00     0.134 A 
HETATM    8  C   UNK N   1      25.985  18.025   4.681  0.00  0.00     0.033 A 
HETATM    9  C   UNK N   1      24.007  16.255   5.380  0.00  0.00     0.050 A 
HETATM   10  C   UNK N   1      22.549  19.344   3.785  0.00  0.00     0.373 C 
HETATM   11  C   UNK N   1      25.319  20.078   3.609  0.00  0.00     0.031 A 
HETATM   12  C   UNK N   1      27.314  18.466   4.619  0.00  0.00     0.021 A 
HETATM   13  C   UNK N   1      23.511  15.064   5.919  0.00  0.00     0.024 A 
HETATM   14  C   UNK N   1      26.641  20.505   3.553  0.00  0.00     0.002 A 
HETATM   15  C   UNK N   1      27.643  19.696   4.061  0.00  0.00     0.002 A 
HETATM   16  C   UNK N   1      22.151  14.788   5.917  0.00  0.00     0.018 A 
HETATM   17  C   UNK N   1      21.286  15.714   5.361  0.00  0.00     0.090 A 
ENDROOT
BRANCH  10  18
HETATM   18  O   UNK N   1      21.245  19.114   4.021  0.00  0.00    -0.301 OA
BRANCH  18  19
HETATM   19  C   UNK N   1      20.325  19.931   3.410  0.00  0.00     0.207 C 
BRANCH  19  20
HETATM   20  C   UNK N   1      19.629  19.204   2.287  0.00  0.00     0.194 C 
BRANCH  20  21
HETATM   21  O   UNK N   1      19.857  17.828   2.382  0.00  0.00    -0.387 OA
BRANCH  21  22
HETATM   22  C   UNK N   1      20.258  17.453   1.096  0.00  0.00     0.198 C 
BRANCH  22  23
HETATM   23  C   UNK N   1      19.771  16.043   0.778  0.00  0.00     0.298 C 
BRANCH  23  24
HETATM   24  N   UNK N   1      20.075  15.126   1.877  0.00  0.00     0.090 N 
HETATM   25  C   UNK N   1      21.489  14.718   1.878  0.00  0.00     0.272 C 
HETATM   26  C   UNK N   1      21.834  13.815   0.695  0.00  0.00     0.030 C 
HETATM   27  C   UNK N   1      20.924  12.597   0.706  0.00  0.00     0.003 C 
HETATM   28  C   UNK N   1      19.473  13.048   0.652  0.00  0.00     0.030 C 
HETATM   29  C   UNK N   1      19.175  13.967   1.838  0.00  0.00     0.272 C 
ENDBRANCH  23  24
ENDBRANCH  22  23
ENDBRANCH  21  22
ENDBRANCH  20  21
ENDBRANCH  19  20
ENDBRANCH  18  19
ENDBRANCH  10  18
TORSDOF 7
ENDMDL
MODEL 4
REMARK VINA RESULT:      -6.6      4.219     10.379
REMARK  7 active torsions:
REMARK  status: ('A' for Active; 'I' for Inactive)
REMARK    1  A    between atoms: O_2  and  C_15 
REMARK    2  A    between atoms: O_2  and  C_16 
REMARK    3  A    between atoms: O_3  and  C_17 
REMARK    4  A    between atoms: O_3  and  C_22 
REMARK    5  A    between atoms: N_5  and  C_14 
REMARK       I    between atoms: N_6  and  C_22 
REMARK    6  A    between atoms: C_14  and  C_15 
REMARK    7  A    between atoms: C_16  and  C_17 
ROOT
HETATM    1  S   UNK N   1      35.544   9.347  16.704  0.00  0.00    -0.084 SA
HETATM    2  O   UNK N   1      35.539  14.196  14.335  0.00  0.00    -0.237 OA
HETATM    3  N   UNK N   1      35.598  11.948  14.761  0.00  0.00    -0.241 N 
HETATM    4  N   UNK N   1      35.828  10.483  12.819  0.00  0.00    -0.351 N 
ATOM      5  HN  UNK N   1      35.854  11.331  12.253  1.00  0.00     0.166 HD
HETATM    6  C   UNK N   1      35.496  12.140  16.205  0.00  0.00     0.063 A 
HETATM    7  C   UNK N   1      35.695  10.616  14.176  0.00  0.00     0.134 A 
HETATM    8  C   UNK N   1      35.452  11.066  17.130  0.00  0.00     0.033 A 
HETATM    9  C   UNK N   1      35.679   9.428  14.940  0.00  0.00     0.050 A 
HETATM   10  C   UNK N   1      35.554  13.051  13.906  0.00  0.00     0.373 C 
HETATM   11  C   UNK N   1      35.383  13.444  16.744  0.00  0.00     0.031 A 
HETATM   12  C   UNK N   1      35.306  11.322  18.501  0.00  0.00     0.021 A 
HETATM   13  C   UNK N   1      35.781   8.193  14.292  0.00  0.00     0.024 A 
HETATM   14  C   UNK N   1      35.240  13.684  18.107  0.00  0.00     0.002 A 
HETATM   15  C   UNK N   1      35.200  12.618  18.989  0.00  0.00     0.002 A 
HETATM   16  C   UNK N   1      35.902   8.116  12.912  0.00  0.00     0.018 A 
HETATM   17  C   UNK N   1      35.928   9.290  12.180  0.00  0.00     0.090 A 
ENDROOT
BRANCH  10  18
HETATM   18  O   UNK N   1      35.446  12.892  12.575  0.00  0.00    -0.301 OA
BRANCH  18  19
HETATM   19  C   UNK N   1      35.245  14.013  11.805  0.00  0.00     0.207 C 
BRANCH  19  20
HETATM   20  C   UNK N   1      36.438  14.270  10.919  0.00  0.00     0.194 C 
BRANCH  20  21
HETATM   21  O   UNK N   1      36.521  15.627  10.594  0.00  0.00    -0.387 OA
BRANCH  21  22
HETATM   22  C   UNK N   1      35.204  16.088  10.692  0.00  0.00     0.198 C 
BRANCH  22  23
HETATM   23  C   UNK N   1      34.894  17.057   9.556  0.00  0.00     0.298 C 
BRANCH  23  24
HETATM   24  N   UNK N   1      33.492  16.954   9.151  0.00  0.00     0.090 N 
HETATM   25  C   UNK N   1      33.137  15.586   8.742  0.00  0.00     0.272 C 
HETATM   26  C   UNK N   1      33.806  15.180   7.430  0.00  0.00     0.030 C 
HETATM   27  C   UNK N   1      33.438  16.178   6.344  0.00  0.00     0.003 C 
HETATM   28  C   UNK N   1      33.864  17.574   6.773  0.00  0.00     0.030 C 
HETATM   29  C   UNK N   1      33.191  17.931   8.099  0.00  0.00     0.272 C 
ENDBRANCH  23  24
ENDBRANCH  22  23
ENDBRANCH  21  22
ENDBRANCH  20  21
ENDBRANCH  19  20
ENDBRANCH  18  19
ENDBRANCH  10  18
TORSDOF 7
ENDMDL
MODEL 5
REMARK VINA RESULT:      -6.5     10.097     14.285
REMARK  7 active torsions:
REMARK  status: ('A' for Active; 'I' for Inactive)
REMARK    1  A    between atoms: O_2  and  C_15 
REMARK    2  A    between atoms: O_2  and  C_16 
REMARK    3  A    between atoms: O_3  and  C_17 
REMARK    4  A    between atoms: O_3  and  C_22 
REMARK    5  A    between atoms: N_5  and  C_14 
REMARK       I    between atoms: N_6  and  C_22 
REMARK    6  A    between atoms: C_14  and  C_15 
REMARK    7  A    between atoms: C_16  and  C_17 
ROOT
HETATM    1  S   UNK N   1      24.818  13.428   8.176  0.00  0.00    -0.084 SA
HETATM    2  O   UNK N   1      19.714  15.146   8.523  0.00  0.00    -0.237 OA
HETATM    3  N   UNK N   1      21.896  14.822   7.915  0.00  0.00    -0.241 N 
HETATM    4  N   UNK N   1      22.714  16.171   6.050  0.00  0.00    -0.351 N 
ATOM      5  HN  UNK N   1      21.784  16.589   6.019  1.00  0.00     0.166 HD
HETATM    6  C   UNK N   1      22.123  13.832   8.965  0.00  0.00     0.063 A 
HETATM    7  C   UNK N   1      22.958  15.210   6.996  0.00  0.00     0.134 A 
HETATM    8  C   UNK N   1      23.358  13.161   9.148  0.00  0.00     0.033 A 
HETATM    9  C   UNK N   1      24.258  14.658   7.032  0.00  0.00     0.050 A 
HETATM   10  C   UNK N   1      20.628  15.381   7.746  0.00  0.00     0.373 C 
HETATM   11  C   UNK N   1      21.067  13.459   9.833  0.00  0.00     0.031 A 
HETATM   12  C   UNK N   1      23.492  12.188  10.147  0.00  0.00     0.021 A 
HETATM   13  C   UNK N   1      25.215  15.096   6.110  0.00  0.00     0.024 A 
HETATM   14  C   UNK N   1      21.212  12.491  10.821  0.00  0.00     0.002 A 
HETATM   15  C   UNK N   1      22.430  11.852  10.978  0.00  0.00     0.002 A 
HETATM   16  C   UNK N   1      24.910  16.064   5.164  0.00  0.00     0.018 A 
HETATM   17  C   UNK N   1      23.635  16.602   5.152  0.00  0.00     0.090 A 
ENDROOT
BRANCH  10  18
HETATM   18  O   UNK N   1      20.343  16.138   6.672  0.00  0.00    -0.301 OA
BRANCH  18  19
HETATM   19  C   UNK N   1      19.127  15.956   6.057  0.00  0.00     0.207 C 
BRANCH  19  20
HETATM   20  C   UNK N   1      19.279  15.985   4.557  0.00  0.00     0.194 C 
BRANCH  20  21
HETATM   21  O   UNK N   1      20.196  16.970   4.179  0.00  0.00    -0.387 OA
BRANCH  21  22
HETATM   22  C   UNK N   1      20.686  16.533   2.944  0.00  0.00     0.198 C 
BRANCH  22  23
HETATM   23  C   UNK N   1      19.847  15.372   2.421  0.00  0.00     0.298 C 
BRANCH  23  24
HETATM   24  N   UNK N   1      20.113  15.134   1.002  0.00  0.00     0.090 N 
HETATM   25  C   UNK N   1      18.922  14.634   0.296  0.00  0.00     0.272 C 
HETATM   26  C   UNK N   1      18.549  13.215   0.722  0.00  0.00     0.030 C 
HETATM   27  C   UNK N   1      19.734  12.290   0.498  0.00  0.00     0.003 C 
HETATM   28  C   UNK N   1      20.933  12.804   1.280  0.00  0.00     0.030 C 
HETATM   29  C   UNK N   1      21.259  14.233   0.841  0.00  0.00     0.272 C 
ENDBRANCH  23  24
ENDBRANCH  22  23
ENDBRANCH  21  22
ENDBRANCH  20  21
ENDBRANCH  19  20
ENDBRANCH  18  19
ENDBRANCH  10  18
TORSDOF 7
ENDMDL
MODEL 6
REMARK VINA RESULT:      -6.5      6.342      8.725
REMARK  7 active torsions:
REMARK  status: ('A' for Active; 'I' for Inactive)
REMARK    1  A    between atoms: O_2  and  C_15 
REMARK    2  A    between atoms: O_2  and  C_16 
REMARK    3  A    between atoms: O_3  and  C_17 
REMARK    4  A    between atoms: O_3  and  C_22 
REMARK    5  A    between atoms: N_5  and  C_14 
REMARK       I    between atoms: N_6  and  C_22 
REMARK    6  A    between atoms: C_14  and  C_15 
REMARK    7  A    between atoms: C_16  and  C_17 
ROOT
HETATM    1  S   UNK N   1      20.968  16.486   4.524  0.00  0.00    -0.084 SA
HETATM    2  O   UNK N   1      24.851  20.175   3.863  0.00  0.00    -0.237 OA
HETATM    3  N   UNK N   1      23.644  18.325   4.461  0.00  0.00    -0.241 N 
HETATM    4  N   UNK N   1      24.811  16.661   5.817  0.00  0.00    -0.351 N 
ATOM      5  HN  UNK N   1      25.620  17.281   5.779  1.00  0.00     0.166 HD
HETATM    6  C   UNK N   1      22.436  18.802   3.792  0.00  0.00     0.063 A 
HETATM    7  C   UNK N   1      23.668  17.052   5.170  0.00  0.00     0.134 A 
HETATM    8  C   UNK N   1      21.226  18.064   3.755  0.00  0.00     0.033 A 
HETATM    9  C   UNK N   1      22.555  16.186   5.251  0.00  0.00     0.050 A 
HETATM   10  C   UNK N   1      24.822  19.071   4.387  0.00  0.00     0.373 C 
HETATM   11  C   UNK N   1      22.447  20.034   3.094  0.00  0.00     0.031 A 
HETATM   12  C   UNK N   1      20.117  18.560   3.055  0.00  0.00     0.021 A 
HETATM   13  C   UNK N   1      22.669  14.985   5.958  0.00  0.00     0.024 A 
HETATM   14  C   UNK N   1      21.340  20.516   2.403  0.00  0.00     0.002 A 
HETATM   15  C   UNK N   1      20.171  19.775   2.382  0.00  0.00     0.002 A 
HETATM   16  C   UNK N   1      23.857  14.632   6.584  0.00  0.00     0.018 A 
HETATM   17  C   UNK N   1      24.932  15.499   6.505  0.00  0.00     0.090 A 
ENDROOT
BRANCH  10  18
HETATM   18  O   UNK N   1      25.990  18.565   4.818  0.00  0.00    -0.301 OA
BRANCH  18  19
HETATM   19  C   UNK N   1      26.996  19.444   5.142  0.00  0.00     0.207 C 
BRANCH  19  20
HETATM   20  C   UNK N   1      28.117  18.731   5.855  0.00  0.00     0.194 C 
BRANCH  20  21
HETATM   21  O   UNK N   1      27.861  17.358   5.918  0.00  0.00    -0.387 OA
BRANCH  21  22
HETATM   22  C   UNK N   1      28.528  16.933   7.071  0.00  0.00     0.198 C 
BRANCH  22  23
HETATM   23  C   UNK N   1      29.937  17.515   7.116  0.00  0.00     0.298 C 
BRANCH  23  24
HETATM   24  N   UNK N   1      30.929  16.463   7.338  0.00  0.00     0.090 N 
HETATM   25  C   UNK N   1      31.835  16.789   8.450  0.00  0.00     0.272 C 
HETATM   26  C   UNK N   1      32.771  17.949   8.116  0.00  0.00     0.030 C 
HETATM   27  C   UNK N   1      33.561  17.616   6.859  0.00  0.00     0.003 C 
HETATM   28  C   UNK N   1      32.598  17.336   5.716  0.00  0.00     0.030 C 
HETATM   29  C   UNK N   1      31.665  16.186   6.100  0.00  0.00     0.272 C 
ENDBRANCH  23  24
ENDBRANCH  22  23
ENDBRANCH  21  22
ENDBRANCH  20  21
ENDBRANCH  19  20
ENDBRANCH  18  19
ENDBRANCH  10  18
TORSDOF 7
ENDMDL
MODEL 7
REMARK VINA RESULT:      -6.4     10.200     13.272
REMARK  7 active torsions:
REMARK  status: ('A' for Active; 'I' for Inactive)
REMARK    1  A    between atoms: O_2  and  C_15 
REMARK    2  A    between atoms: O_2  and  C_16 
REMARK    3  A    between atoms: O_3  and  C_17 
REMARK    4  A    between atoms: O_3  and  C_22 
REMARK    5  A    between atoms: N_5  and  C_14 
REMARK       I    between atoms: N_6  and  C_22 
REMARK    6  A    between atoms: C_14  and  C_15 
REMARK    7  A    between atoms: C_16  and  C_17 
ROOT
HETATM    1  S   UNK N   1      24.716  13.473   8.104  0.00  0.00    -0.084 SA
HETATM    2  O   UNK N   1      19.612  15.217   8.274  0.00  0.00    -0.237 OA
HETATM    3  N   UNK N   1      21.803  14.854   7.719  0.00  0.00    -0.241 N 
HETATM    4  N   UNK N   1      22.651  16.089   5.789  0.00  0.00    -0.351 N 
ATOM      5  HN  UNK N   1      21.722  16.505   5.719  1.00  0.00     0.166 HD
HETATM    6  C   UNK N   1      22.011  13.928   8.829  0.00  0.00     0.063 A 
HETATM    7  C   UNK N   1      22.878  15.185   6.793  0.00  0.00     0.134 A 
HETATM    8  C   UNK N   1      23.242  13.267   9.069  0.00  0.00     0.033 A 
HETATM    9  C   UNK N   1      24.177  14.635   6.881  0.00  0.00     0.050 A 
HETATM   10  C   UNK N   1      20.538  15.404   7.498  0.00  0.00     0.373 C 
HETATM   11  C   UNK N   1      20.942  13.608   9.701  0.00  0.00     0.031 A 
HETATM   12  C   UNK N   1      23.359  12.354  10.126  0.00  0.00     0.021 A 
HETATM   13  C   UNK N   1      25.148  15.015   5.950  0.00  0.00     0.024 A 
HETATM   14  C   UNK N   1      21.071  12.701  10.747  0.00  0.00     0.002 A 
HETATM   15  C   UNK N   1      22.284  12.070  10.960  0.00  0.00     0.002 A 
HETATM   16  C   UNK N   1      24.859  15.926   4.944  0.00  0.00     0.018 A 
HETATM   17  C   UNK N   1      23.585  16.464   4.880  0.00  0.00     0.090 A 
ENDROOT
BRANCH  10  18
HETATM   18  O   UNK N   1      20.270  16.096   6.377  0.00  0.00    -0.301 OA
BRANCH  18  19
HETATM   19  C   UNK N   1      19.076  15.857   5.740  0.00  0.00     0.207 C 
BRANCH  19  20
HETATM   20  C   UNK N   1      19.220  14.735   4.742  0.00  0.00     0.194 C 
BRANCH  20  21
HETATM   21  O   UNK N   1      20.505  14.734   4.191  0.00  0.00    -0.387 OA
BRANCH  21  22
HETATM   22  C   UNK N   1      20.798  13.381   3.996  0.00  0.00     0.198 C 
BRANCH  22  23
HETATM   23  C   UNK N   1      22.285  13.193   3.715  0.00  0.00     0.298 C 
BRANCH  23  24
HETATM   24  N   UNK N   1      22.491  12.326   2.555  0.00  0.00     0.090 N 
HETATM   25  C   UNK N   1      23.918  12.165   2.236  0.00  0.00     0.272 C 
HETATM   26  C   UNK N   1      24.542  13.452   1.699  0.00  0.00     0.030 C 
HETATM   27  C   UNK N   1      23.767  13.919   0.477  0.00  0.00     0.003 C 
HETATM   28  C   UNK N   1      22.307  14.126   0.851  0.00  0.00     0.030 C 
HETATM   29  C   UNK N   1      21.729  12.822   1.404  0.00  0.00     0.272 C 
ENDBRANCH  23  24
ENDBRANCH  22  23
ENDBRANCH  21  22
ENDBRANCH  20  21
ENDBRANCH  19  20
ENDBRANCH  18  19
ENDBRANCH  10  18
TORSDOF 7
ENDMDL
MODEL 8
REMARK VINA RESULT:      -6.4      4.440     10.537
REMARK  7 active torsions:
REMARK  status: ('A' for Active; 'I' for Inactive)
REMARK    1  A    between atoms: O_2  and  C_15 
REMARK    2  A    between atoms: O_2  and  C_16 
REMARK    3  A    between atoms: O_3  and  C_17 
REMARK    4  A    between atoms: O_3  and  C_22 
REMARK    5  A    between atoms: N_5  and  C_14 
REMARK       I    between atoms: N_6  and  C_22 
REMARK    6  A    between atoms: C_14  and  C_15 
REMARK    7  A    between atoms: C_16  and  C_17 
ROOT
HETATM    1  S   UNK N   1      35.614   9.322  17.244  0.00  0.00    -0.084 SA
HETATM    2  O   UNK N   1      35.171  13.786  14.244  0.00  0.00    -0.237 OA
HETATM    3  N   UNK N   1      35.395  11.625  14.966  0.00  0.00    -0.241 N 
HETATM    4  N   UNK N   1      35.608   9.919  13.230  0.00  0.00    -0.351 N 
ATOM      5  HN  UNK N   1      35.549  10.681  12.555  1.00  0.00     0.166 HD
HETATM    6  C   UNK N   1      35.362  12.011  16.375  0.00  0.00     0.063 A 
HETATM    7  C   UNK N   1      35.543  10.233  14.563  0.00  0.00     0.134 A 
HETATM    8  C   UNK N   1      35.437  11.076  17.438  0.00  0.00     0.033 A 
HETATM    9  C   UNK N   1      35.644   9.164  15.481  0.00  0.00     0.050 A 
HETATM   10  C   UNK N   1      35.235  12.595  13.974  0.00  0.00     0.373 C 
HETATM   11  C   UNK N   1      35.198  13.370  16.738  0.00  0.00     0.031 A 
HETATM   12  C   UNK N   1      35.353  11.512  18.768  0.00  0.00     0.021 A 
HETATM   13  C   UNK N   1      35.787   7.858  15.001  0.00  0.00     0.024 A 
HETATM   14  C   UNK N   1      35.116  13.790  18.061  0.00  0.00     0.002 A 
HETATM   15  C   UNK N   1      35.193  12.856  19.081  0.00  0.00     0.002 A 
HETATM   16  C   UNK N   1      35.835   7.596  13.639  0.00  0.00     0.018 A 
HETATM   17  C   UNK N   1      35.747   8.656  12.755  0.00  0.00     0.090 A 
ENDROOT
BRANCH  10  18
HETATM   18  O   UNK N   1      35.062  12.247  12.687  0.00  0.00    -0.301 OA
BRANCH  18  19
HETATM   19  C   UNK N   1      35.862  12.844  11.743  0.00  0.00     0.207 C 
BRANCH  19  20
HETATM   20  C   UNK N   1      35.422  12.460  10.352  0.00  0.00     0.194 C 
BRANCH  20  21
HETATM   21  O   UNK N   1      34.219  13.095  10.029  0.00  0.00    -0.387 OA
BRANCH  21  22
HETATM   22  C   UNK N   1      34.283  13.274   8.643  0.00  0.00     0.198 C 
BRANCH  22  23
HETATM   23  C   UNK N   1      34.416  14.755   8.304  0.00  0.00     0.298 C 
BRANCH  23  24
HETATM   24  N   UNK N   1      33.750  15.583   9.311  0.00  0.00     0.090 N 
HETATM   25  C   UNK N   1      32.365  15.901   8.931  0.00  0.00     0.272 C 
HETATM   26  C   UNK N   1      32.293  16.852   7.738  0.00  0.00     0.030 C 
HETATM   27  C   UNK N   1      33.068  18.121   8.055  0.00  0.00     0.003 C 
HETATM   28  C   UNK N   1      34.508  17.765   8.392  0.00  0.00     0.030 C 
HETATM   29  C   UNK N   1      34.534  16.795   9.574  0.00  0.00     0.272 C 
ENDBRANCH  23  24
ENDBRANCH  22  23
ENDBRANCH  21  22
ENDBRANCH  20  21
ENDBRANCH  19  20
ENDBRANCH  18  19
ENDBRANCH  10  18
TORSDOF 7
ENDMDL
MODEL 9
REMARK VINA RESULT:      -6.4      5.841     10.667
REMARK  7 active torsions:
REMARK  status: ('A' for Active; 'I' for Inactive)
REMARK    1  A    between atoms: O_2  and  C_15 
REMARK    2  A    between atoms: O_2  and  C_16 
REMARK    3  A    between atoms: O_3  and  C_17 
REMARK    4  A    between atoms: O_3  and  C_22 
REMARK    5  A    between atoms: N_5  and  C_14 
REMARK       I    between atoms: N_6  and  C_22 
REMARK    6  A    between atoms: C_14  and  C_15 
REMARK    7  A    between atoms: C_16  and  C_17 
ROOT
HETATM    1  S   UNK N   1      32.109  17.190   7.457  0.00  0.00    -0.084 SA
HETATM    2  O   UNK N   1      28.301  17.557   3.652  0.00  0.00    -0.237 OA
HETATM    3  N   UNK N   1      29.441  17.516   5.636  0.00  0.00    -0.241 N 
HETATM    4  N   UNK N   1      28.121  17.910   7.653  0.00  0.00    -0.351 N 
ATOM      5  HN  UNK N   1      27.310  17.989   7.038  1.00  0.00     0.166 HD
HETATM    6  C   UNK N   1      30.714  17.208   4.987  0.00  0.00     0.063 A 
HETATM    7  C   UNK N   1      29.341  17.660   7.082  0.00  0.00     0.134 A 
HETATM    8  C   UNK N   1      31.932  17.062   5.697  0.00  0.00     0.033 A 
HETATM    9  C   UNK N   1      30.446  17.537   7.954  0.00  0.00     0.050 A 
HETATM   10  C   UNK N   1      28.298  17.726   4.862  0.00  0.00     0.373 C 
HETATM   11  C   UNK N   1      30.786  17.093   3.578  0.00  0.00     0.031 A 
HETATM   12  C   UNK N   1      33.126  16.813   5.006  0.00  0.00     0.021 A 
HETATM   13  C   UNK N   1      30.253  17.688   9.332  0.00  0.00     0.024 A 
HETATM   14  C   UNK N   1      31.977  16.846   2.904  0.00  0.00     0.002 A 
HETATM   15  C   UNK N   1      33.152  16.706   3.621  0.00  0.00     0.002 A 
HETATM   16  C   UNK N   1      28.996  17.953   9.855  0.00  0.00     0.018 A 
HETATM   17  C   UNK N   1      27.923  18.058   8.987  0.00  0.00     0.090 A 
ENDROOT
BRANCH  10  18
HETATM   18  O   UNK N   1      27.167  18.203   5.413  0.00  0.00    -0.301 OA
BRANCH  18  19
HETATM   19  C   UNK N   1      26.718  19.435   5.002  0.00  0.00     0.207 C 
BRANCH  19  20
HETATM   20  C   UNK N   1      25.256  19.373   4.638  0.00  0.00     0.194 C 
BRANCH  20  21
HETATM   21  O   UNK N   1      25.034  19.986   3.402  0.00  0.00    -0.387 OA
BRANCH  21  22
HETATM   22  C   UNK N   1      23.645  20.122   3.325  0.00  0.00     0.198 C 
BRANCH  22  23
HETATM   23  C   UNK N   1      22.960  18.834   3.772  0.00  0.00     0.298 C 
BRANCH  23  24
HETATM   24  N   UNK N   1      21.589  19.098   4.211  0.00  0.00     0.090 N 
HETATM   25  C   UNK N   1      20.838  17.854   4.444  0.00  0.00     0.272 C 
HETATM   26  C   UNK N   1      20.546  17.100   3.149  0.00  0.00     0.030 C 
HETATM   27  C   UNK N   1      19.793  18.010   2.192  0.00  0.00     0.003 C 
HETATM   28  C   UNK N   1      20.616  19.261   1.929  0.00  0.00     0.030 C 
HETATM   29  C   UNK N   1      20.906  19.973   3.251  0.00  0.00     0.272 C 
ENDBRANCH  23  24
ENDBRANCH  22  23
ENDBRANCH  21  22
ENDBRANCH  20  21
ENDBRANCH  19  20
ENDBRANCH  18  19
ENDBRANCH  10  18
TORSDOF 7
ENDMDL
