MODEL 1
REMARK VINA RESULT:      -6.3      0.000      0.000
REMARK  7 active torsions:
REMARK  status: ('A' for Active; 'I' for Inactive)
REMARK    1  A    between atoms: O_2  and  C_7 
REMARK    2  A    between atoms: O_3  and  C_11 
REMARK    3  A    between atoms: O_3  and  C_12 
REMARK    4  A    between atoms: N_4  and  C_5 
REMARK    5  A    between atoms: N_4  and  C_6 
REMARK    6  A    between atoms: C_6  and  C_7 
REMARK    7  A    between atoms: C_7  and  C_11 
ROOT
HETATM    1  C   UNK N   1      34.968  15.361  11.545  0.00  0.00     0.159 C 
ENDROOT
BRANCH   1   2
HETATM    2  O   UNK N   1      33.681  14.856  11.358  0.00  0.00    -0.392 OA
HETATM    3  H   UNK N   1      33.396  14.399  10.552  0.00  0.00     0.210 HD
ENDBRANCH   1   2
BRANCH   1   4
HETATM    4  C   UNK N   1      35.395  16.067  10.277  0.00  0.00     0.148 C 
BRANCH   4   5
HETATM    5  N   UNK N   1      34.512  17.194   9.989  0.00  0.00    -0.411 N 
HETATM    6  H   UNK N   1      34.264  17.922  10.659  0.00  0.00     0.154 HD
BRANCH   5   7
HETATM    7  C   UNK N   1      34.031  17.134   8.604  0.00  0.00     0.014 C 
HETATM    8  C   UNK N   1      34.456  18.398   7.888  0.00  0.00     0.037 C 
HETATM    9  C   UNK N   1      32.510  17.052   8.545  0.00  0.00     0.037 C 
HETATM   10  C   UNK N   1      34.639  15.948   7.871  0.00  0.00     0.037 C 
ENDBRANCH   5   7
ENDBRANCH   4   5
ENDBRANCH   1   4
BRANCH   1  11
HETATM   11  C   UNK N   1      35.950  14.229  11.798  0.00  0.00     0.209 C 
BRANCH  11  12
HETATM   12  O   UNK N   1      36.462  14.285  13.077  0.00  0.00    -0.347 OA
BRANCH  12  13
HETATM   13  C   UNK N   1      35.927  13.587  14.108  0.00  0.00     0.091 A 
HETATM   14  C   UNK N   1      35.030  12.528  13.879  0.00  0.00     0.045 A 
HETATM   15  C   UNK N   1      34.493  11.811  14.948  0.00  0.00    -0.059 A 
HETATM   16  C   UNK N   1      34.840  12.148  16.259  0.00  0.00     0.008 A 
HETATM   17  C   UNK N   1      33.555  10.688  14.691  0.00  0.00     0.048 C 
HETATM   18  C   UNK N   1      35.727  13.201  16.498  0.00  0.00     0.027 A 
HETATM   19  C   UNK N   1      36.273  13.919  15.429  0.00  0.00     0.067 A 
HETATM   20 Cl   UNK N   1      37.378  15.242  15.762  0.00  0.00    -0.081 Cl
ENDBRANCH  12  13
ENDBRANCH  11  12
ENDBRANCH   1  11
TORSDOF 7
ENDMDL
MODEL 2
REMARK VINA RESULT:      -5.9      7.458      9.657
REMARK  7 active torsions:
REMARK  status: ('A' for Active; 'I' for Inactive)
REMARK    1  A    between atoms: O_2  and  C_7 
REMARK    2  A    between atoms: O_3  and  C_11 
REMARK    3  A    between atoms: O_3  and  C_12 
REMARK    4  A    between atoms: N_4  and  C_5 
REMARK    5  A    between atoms: N_4  and  C_6 
REMARK    6  A    between atoms: C_6  and  C_7 
REMARK    7  A    between atoms: C_7  and  C_11 
ROOT
HETATM    1  C   UNK N   1      28.577  18.454   8.611  0.00  0.00     0.159 C 
ENDROOT
BRANCH   1   2
HETATM    2  O   UNK N   1      27.437  18.136   9.352  0.00  0.00    -0.392 OA
HETATM    3  H   UNK N   1      27.273  17.261   9.735  0.00  0.00     0.210 HD
ENDBRANCH   1   2
BRANCH   1   4
HETATM    4  C   UNK N   1      28.164  19.322   7.443  0.00  0.00     0.148 C 
BRANCH   4   5
HETATM    5  N   UNK N   1      27.167  18.643   6.621  0.00  0.00    -0.411 N 
HETATM    6  H   UNK N   1      26.809  17.705   6.800  0.00  0.00     0.154 HD
BRANCH   5   7
HETATM    7  C   UNK N   1      26.749  19.497   5.504  0.00  0.00     0.014 C 
HETATM    8  C   UNK N   1      26.530  20.902   6.022  0.00  0.00     0.037 C 
HETATM    9  C   UNK N   1      25.439  19.014   4.893  0.00  0.00     0.037 C 
HETATM   10  C   UNK N   1      27.827  19.551   4.432  0.00  0.00     0.037 C 
ENDBRANCH   5   7
ENDBRANCH   4   5
ENDBRANCH   1   4
BRANCH   1  11
HETATM   11  C   UNK N   1      29.211  17.192   8.049  0.00  0.00     0.209 C 
BRANCH  11  12
HETATM   12  O   UNK N   1      29.706  17.402   6.779  0.00  0.00    -0.347 OA
BRANCH  12  13
HETATM   13  C   UNK N   1      31.034  17.401   6.505  0.00  0.00     0.091 A 
HETATM   14  C   UNK N   1      31.983  17.621   7.519  0.00  0.00     0.045 A 
HETATM   15  C   UNK N   1      33.347  17.610   7.226  0.00  0.00    -0.059 A 
HETATM   16  C   UNK N   1      33.777  17.385   5.916  0.00  0.00     0.008 A 
HETATM   17  C   UNK N   1      34.340  17.832   8.309  0.00  0.00     0.048 C 
HETATM   18  C   UNK N   1      32.842  17.170   4.900  0.00  0.00     0.027 A 
HETATM   19  C   UNK N   1      31.474  17.175   5.190  0.00  0.00     0.067 A 
HETATM   20 Cl   UNK N   1      30.323  16.910   3.891  0.00  0.00    -0.081 Cl
ENDBRANCH  12  13
ENDBRANCH  11  12
ENDBRANCH   1  11
TORSDOF 7
ENDMDL
MODEL 3
REMARK VINA RESULT:      -5.9      7.643      9.599
REMARK  7 active torsions:
REMARK  status: ('A' for Active; 'I' for Inactive)
REMARK    1  A    between atoms: O_2  and  C_7 
REMARK    2  A    between atoms: O_3  and  C_11 
REMARK    3  A    between atoms: O_3  and  C_12 
REMARK    4  A    between atoms: N_4  and  C_5 
REMARK    5  A    between atoms: N_4  and  C_6 
REMARK    6  A    between atoms: C_6  and  C_7 
REMARK    7  A    between atoms: C_7  and  C_11 
ROOT
HETATM    1  C   UNK N   1      28.585  18.382   8.733  0.00  0.00     0.159 C 
ENDROOT
BRANCH   1   2
HETATM    2  O   UNK N   1      27.430  17.946   9.383  0.00  0.00    -0.392 OA
HETATM    3  H   UNK N   1      27.258  17.018   9.606  0.00  0.00     0.210 HD
ENDBRANCH   1   2
BRANCH   1   4
HETATM    4  C   UNK N   1      28.198  19.438   7.722  0.00  0.00     0.148 C 
BRANCH   4   5
HETATM    5  N   UNK N   1      27.185  18.927   6.803  0.00  0.00    -0.411 N 
HETATM    6  H   UNK N   1      26.660  18.064   6.941  0.00  0.00     0.154 HD
BRANCH   5   7
HETATM    7  C   UNK N   1      27.026  19.828   5.655  0.00  0.00     0.014 C 
HETATM    8  C   UNK N   1      25.682  19.561   5.012  0.00  0.00     0.037 C 
HETATM    9  C   UNK N   1      28.103  19.586   4.604  0.00  0.00     0.037 C 
HETATM   10  C   UNK N   1      27.058  21.282   6.100  0.00  0.00     0.037 C 
ENDBRANCH   5   7
ENDBRANCH   4   5
ENDBRANCH   1   4
BRANCH   1  11
HETATM   11  C   UNK N   1      29.233  17.233   7.978  0.00  0.00     0.209 C 
BRANCH  11  12
HETATM   12  O   UNK N   1      30.608  17.334   7.993  0.00  0.00    -0.347 OA
BRANCH  12  13
HETATM   13  C   UNK N   1      31.356  17.280   6.864  0.00  0.00     0.091 A 
HETATM   14  C   UNK N   1      30.768  16.999   5.618  0.00  0.00     0.045 A 
HETATM   15  C   UNK N   1      31.547  16.954   4.461  0.00  0.00    -0.059 A 
HETATM   16  C   UNK N   1      32.923  17.184   4.538  0.00  0.00     0.008 A 
HETATM   17  C   UNK N   1      30.910  16.667   3.150  0.00  0.00     0.048 C 
HETATM   18  C   UNK N   1      33.518  17.459   5.771  0.00  0.00     0.027 A 
HETATM   19  C   UNK N   1      32.740  17.511   6.933  0.00  0.00     0.067 A 
HETATM   20 Cl   UNK N   1      33.518  17.852   8.469  0.00  0.00    -0.081 Cl
ENDBRANCH  12  13
ENDBRANCH  11  12
ENDBRANCH   1  11
TORSDOF 7
ENDMDL
MODEL 4
REMARK VINA RESULT:      -5.8      6.785     10.399
REMARK  7 active torsions:
REMARK  status: ('A' for Active; 'I' for Inactive)
REMARK    1  A    between atoms: O_2  and  C_7 
REMARK    2  A    between atoms: O_3  and  C_11 
REMARK    3  A    between atoms: O_3  and  C_12 
REMARK    4  A    between atoms: N_4  and  C_5 
REMARK    5  A    between atoms: N_4  and  C_6 
REMARK    6  A    between atoms: C_6  and  C_7 
REMARK    7  A    between atoms: C_7  and  C_11 
ROOT
HETATM    1  C   UNK N   1      29.230  17.709   9.767  0.00  0.00     0.159 C 
ENDROOT
BRANCH   1   2
HETATM    2  O   UNK N   1      29.743  18.841  10.403  0.00  0.00    -0.392 OA
HETATM    3  H   UNK N   1      29.738  18.964  11.365  0.00  0.00     0.210 HD
ENDBRANCH   1   2
BRANCH   1   4
HETATM    4  C   UNK N   1      30.321  17.103   8.912  0.00  0.00     0.148 C 
BRANCH   4   5
HETATM    5  N   UNK N   1      31.439  18.032   8.765  0.00  0.00    -0.411 N 
HETATM    6  H   UNK N   1      31.456  18.982   9.135  0.00  0.00     0.154 HD
BRANCH   5   7
HETATM    7  C   UNK N   1      32.533  17.409   8.012  0.00  0.00     0.014 C 
HETATM    8  C   UNK N   1      32.869  16.080   8.654  0.00  0.00     0.037 C 
HETATM    9  C   UNK N   1      33.790  18.271   8.039  0.00  0.00     0.037 C 
HETATM   10  C   UNK N   1      32.119  17.148   6.572  0.00  0.00     0.037 C 
ENDBRANCH   5   7
ENDBRANCH   4   5
ENDBRANCH   1   4
BRANCH   1  11
HETATM   11  C   UNK N   1      28.082  18.094   8.849  0.00  0.00     0.209 C 
BRANCH  11  12
HETATM   12  O   UNK N   1      28.468  19.056   7.939  0.00  0.00    -0.347 OA
BRANCH  12  13
HETATM   13  C   UNK N   1      28.091  19.023   6.638  0.00  0.00     0.091 A 
HETATM   14  C   UNK N   1      28.594  18.042   5.763  0.00  0.00     0.045 A 
HETATM   15  C   UNK N   1      28.192  18.012   4.427  0.00  0.00    -0.059 A 
HETATM   16  C   UNK N   1      27.289  18.965   3.949  0.00  0.00     0.008 A 
HETATM   17  C   UNK N   1      28.722  16.964   3.518  0.00  0.00     0.048 C 
HETATM   18  C   UNK N   1      26.788  19.946   4.808  0.00  0.00     0.027 A 
HETATM   19  C   UNK N   1      27.183  19.977   6.150  0.00  0.00     0.067 A 
HETATM   20 Cl   UNK N   1      26.542  21.226   7.203  0.00  0.00    -0.081 Cl
ENDBRANCH  12  13
ENDBRANCH  11  12
ENDBRANCH   1  11
TORSDOF 7
ENDMDL
MODEL 5
REMARK VINA RESULT:      -5.8      2.399      3.411
REMARK  7 active torsions:
REMARK  status: ('A' for Active; 'I' for Inactive)
REMARK    1  A    between atoms: O_2  and  C_7 
REMARK    2  A    between atoms: O_3  and  C_11 
REMARK    3  A    between atoms: O_3  and  C_12 
REMARK    4  A    between atoms: N_4  and  C_5 
REMARK    5  A    between atoms: N_4  and  C_6 
REMARK    6  A    between atoms: C_6  and  C_7 
REMARK    7  A    between atoms: C_7  and  C_11 
ROOT
HETATM    1  C   UNK N   1      36.217  13.029  12.406  0.00  0.00     0.159 C 
ENDROOT
BRANCH   1   2
HETATM    2  O   UNK N   1      37.368  13.672  11.948  0.00  0.00    -0.392 OA
HETATM    3  H   UNK N   1      37.383  14.260  11.177  0.00  0.00     0.210 HD
ENDBRANCH   1   2
BRANCH   1   4
HETATM    4  C   UNK N   1      35.195  13.023  11.291  0.00  0.00     0.148 C 
BRANCH   4   5
HETATM    5  N   UNK N   1      34.365  14.223  11.344  0.00  0.00    -0.411 N 
HETATM    6  H   UNK N   1      33.791  14.496  12.142  0.00  0.00     0.154 HD
BRANCH   5   7
HETATM    7  C   UNK N   1      34.471  14.981  10.093  0.00  0.00     0.014 C 
HETATM    8  C   UNK N   1      33.085  15.151   9.509  0.00  0.00     0.037 C 
HETATM    9  C   UNK N   1      35.324  14.246   9.066  0.00  0.00     0.037 C 
HETATM   10  C   UNK N   1      35.050  16.365  10.346  0.00  0.00     0.037 C 
ENDBRANCH   5   7
ENDBRANCH   4   5
ENDBRANCH   1   4
BRANCH   1  11
HETATM   11  C   UNK N   1      35.619  13.789  13.579  0.00  0.00     0.209 C 
BRANCH  11  12
HETATM   12  O   UNK N   1      34.572  13.093  14.145  0.00  0.00    -0.347 OA
BRANCH  12  13
HETATM   13  C   UNK N   1      34.714  12.344  15.266  0.00  0.00     0.091 A 
HETATM   14  C   UNK N   1      34.985  12.944  16.509  0.00  0.00     0.045 A 
HETATM   15  C   UNK N   1      35.121  12.163  17.657  0.00  0.00    -0.059 A 
HETATM   16  C   UNK N   1      34.994  10.774  17.575  0.00  0.00     0.008 A 
HETATM   17  C   UNK N   1      35.396  12.811  18.965  0.00  0.00     0.048 C 
HETATM   18  C   UNK N   1      34.729  10.168  16.345  0.00  0.00     0.027 A 
HETATM   19  C   UNK N   1      34.586  10.947  15.191  0.00  0.00     0.067 A 
HETATM   20 Cl   UNK N   1      34.262  10.155  13.659  0.00  0.00    -0.081 Cl
ENDBRANCH  12  13
ENDBRANCH  11  12
ENDBRANCH   1  11
TORSDOF 7
ENDMDL
MODEL 6
REMARK VINA RESULT:      -5.8      1.890      2.496
REMARK  7 active torsions:
REMARK  status: ('A' for Active; 'I' for Inactive)
REMARK    1  A    between atoms: O_2  and  C_7 
REMARK    2  A    between atoms: O_3  and  C_11 
REMARK    3  A    between atoms: O_3  and  C_12 
REMARK    4  A    between atoms: N_4  and  C_5 
REMARK    5  A    between atoms: N_4  and  C_6 
REMARK    6  A    between atoms: C_6  and  C_7 
REMARK    7  A    between atoms: C_7  and  C_11 
ROOT
HETATM    1  C   UNK N   1      35.889  15.553  10.546  0.00  0.00     0.159 C 
ENDROOT
BRANCH   1   2
HETATM    2  O   UNK N   1      37.248  15.816  10.731  0.00  0.00    -0.392 OA
HETATM    3  H   UNK N   1      37.939  15.138  10.668  0.00  0.00     0.210 HD
ENDBRANCH   1   2
BRANCH   1   4
HETATM    4  C   UNK N   1      35.191  16.851  10.207  0.00  0.00     0.148 C 
BRANCH   4   5
HETATM    5  N   UNK N   1      33.830  16.601   9.742  0.00  0.00    -0.411 N 
HETATM    6  H   UNK N   1      33.123  16.087  10.268  0.00  0.00     0.154 HD
BRANCH   5   7
HETATM    7  C   UNK N   1      33.619  17.191   8.415  0.00  0.00     0.014 C 
HETATM    8  C   UNK N   1      34.551  18.373   8.257  0.00  0.00     0.037 C 
HETATM    9  C   UNK N   1      32.191  17.696   8.250  0.00  0.00     0.037 C 
HETATM   10  C   UNK N   1      33.940  16.186   7.319  0.00  0.00     0.037 C 
ENDBRANCH   5   7
ENDBRANCH   4   5
ENDBRANCH   1   4
BRANCH   1  11
HETATM   11  C   UNK N   1      35.275  15.018  11.829  0.00  0.00     0.209 C 
BRANCH  11  12
HETATM   12  O   UNK N   1      35.872  13.837  12.217  0.00  0.00    -0.347 OA
BRANCH  12  13
HETATM   13  C   UNK N   1      35.351  13.038  13.179  0.00  0.00     0.091 A 
HETATM   14  C   UNK N   1      35.431  13.393  14.538  0.00  0.00     0.045 A 
HETATM   15  C   UNK N   1      34.884  12.566  15.520  0.00  0.00    -0.059 A 
HETATM   16  C   UNK N   1      34.256  11.373  15.155  0.00  0.00     0.008 A 
HETATM   17  C   UNK N   1      34.965  12.960  16.950  0.00  0.00     0.048 C 
HETATM   18  C   UNK N   1      34.175  11.008  13.809  0.00  0.00     0.027 A 
HETATM   19  C   UNK N   1      34.717  11.836  12.820  0.00  0.00     0.067 A 
HETATM   20 Cl   UNK N   1      34.608  11.347  11.138  0.00  0.00    -0.081 Cl
ENDBRANCH  12  13
ENDBRANCH  11  12
ENDBRANCH   1  11
TORSDOF 7
ENDMDL
MODEL 7
REMARK VINA RESULT:      -5.7     17.602     20.844
REMARK  7 active torsions:
REMARK  status: ('A' for Active; 'I' for Inactive)
REMARK    1  A    between atoms: O_2  and  C_7 
REMARK    2  A    between atoms: O_3  and  C_11 
REMARK    3  A    between atoms: O_3  and  C_12 
REMARK    4  A    between atoms: N_4  and  C_5 
REMARK    5  A    between atoms: N_4  and  C_6 
REMARK    6  A    between atoms: C_6  and  C_7 
REMARK    7  A    between atoms: C_7  and  C_11 
ROOT
HETATM    1  C   UNK N   1      29.465  22.777  -2.532  0.00  0.00     0.159 C 
ENDROOT
BRANCH   1   2
HETATM    2  O   UNK N   1      30.366  23.141  -1.530  0.00  0.00    -0.392 OA
HETATM    3  H   UNK N   1      31.005  23.865  -1.620  0.00  0.00     0.210 HD
ENDBRANCH   1   2
BRANCH   1   4
HETATM    4  C   UNK N   1      30.205  21.961  -3.569  0.00  0.00     0.148 C 
BRANCH   4   5
HETATM    5  N   UNK N   1      31.336  21.261  -2.966  0.00  0.00    -0.411 N 
HETATM    6  H   UNK N   1      31.340  20.869  -2.024  0.00  0.00     0.154 HD
BRANCH   5   7
HETATM    7  C   UNK N   1      32.464  21.198  -3.901  0.00  0.00     0.014 C 
HETATM    8  C   UNK N   1      33.710  20.813  -3.133  0.00  0.00     0.037 C 
HETATM    9  C   UNK N   1      32.719  22.550  -4.559  0.00  0.00     0.037 C 
HETATM   10  C   UNK N   1      32.223  20.143  -4.970  0.00  0.00     0.037 C 
ENDBRANCH   5   7
ENDBRANCH   4   5
ENDBRANCH   1   4
BRANCH   1  11
HETATM   11  C   UNK N   1      28.915  24.014  -3.223  0.00  0.00     0.209 C 
BRANCH  11  12
HETATM   12  O   UNK N   1      27.628  23.806  -3.673  0.00  0.00    -0.347 OA
BRANCH  12  13
HETATM   13  C   UNK N   1      26.878  24.794  -4.219  0.00  0.00     0.091 A 
HETATM   14  C   UNK N   1      26.791  26.059  -3.610  0.00  0.00     0.045 A 
HETATM   15  C   UNK N   1      26.022  27.071  -4.186  0.00  0.00    -0.059 A 
HETATM   16  C   UNK N   1      25.327  26.829  -5.373  0.00  0.00     0.008 A 
HETATM   17  C   UNK N   1      25.949  28.405  -3.538  0.00  0.00     0.048 C 
HETATM   18  C   UNK N   1      25.403  25.574  -5.984  0.00  0.00     0.027 A 
HETATM   19  C   UNK N   1      26.177  24.558  -5.414  0.00  0.00     0.067 A 
HETATM   20 Cl   UNK N   1      26.246  22.991  -6.200  0.00  0.00    -0.081 Cl
ENDBRANCH  12  13
ENDBRANCH  11  12
ENDBRANCH   1  11
TORSDOF 7
ENDMDL
MODEL 8
REMARK VINA RESULT:      -5.6      3.179      4.304
REMARK  7 active torsions:
REMARK  status: ('A' for Active; 'I' for Inactive)
REMARK    1  A    between atoms: O_2  and  C_7 
REMARK    2  A    between atoms: O_3  and  C_11 
REMARK    3  A    between atoms: O_3  and  C_12 
REMARK    4  A    between atoms: N_4  and  C_5 
REMARK    5  A    between atoms: N_4  and  C_6 
REMARK    6  A    between atoms: C_6  and  C_7 
REMARK    7  A    between atoms: C_7  and  C_11 
ROOT
HETATM    1  C   UNK N   1      35.730  13.901  12.952  0.00  0.00     0.159 C 
ENDROOT
BRANCH   1   2
HETATM    2  O   UNK N   1      34.460  13.494  12.541  0.00  0.00    -0.392 OA
HETATM    3  H   UNK N   1      34.226  13.319  11.616  0.00  0.00     0.210 HD
ENDBRANCH   1   2
BRANCH   1   4
HETATM    4  C   UNK N   1      36.756  12.985  12.321  0.00  0.00     0.148 C 
BRANCH   4   5
HETATM    5  N   UNK N   1      37.605  13.723  11.390  0.00  0.00    -0.411 N 
HETATM    6  H   UNK N   1      38.095  14.589  11.615  0.00  0.00     0.154 HD
BRANCH   5   7
HETATM    7  C   UNK N   1      37.658  13.047  10.089  0.00  0.00     0.014 C 
HETATM    8  C   UNK N   1      37.092  13.976   9.036  0.00  0.00     0.037 C 
HETATM    9  C   UNK N   1      36.819  11.774  10.089  0.00  0.00     0.037 C 
HETATM   10  C   UNK N   1      39.093  12.718   9.708  0.00  0.00     0.037 C 
ENDBRANCH   5   7
ENDBRANCH   4   5
ENDBRANCH   1   4
BRANCH   1  11
HETATM   11  C   UNK N   1      35.863  13.775  14.460  0.00  0.00     0.209 C 
BRANCH  11  12
HETATM   12  O   UNK N   1      34.756  13.166  15.013  0.00  0.00    -0.347 OA
BRANCH  12  13
HETATM   13  C   UNK N   1      34.848  12.234  15.993  0.00  0.00     0.091 A 
HETATM   14  C   UNK N   1      35.160  12.602  17.314  0.00  0.00     0.045 A 
HETATM   15  C   UNK N   1      35.244  11.635  18.317  0.00  0.00    -0.059 A 
HETATM   16  C   UNK N   1      35.022  10.290  18.009  0.00  0.00     0.008 A 
HETATM   17  C   UNK N   1      35.563  12.039  19.710  0.00  0.00     0.048 C 
HETATM   18  C   UNK N   1      34.717   9.914  16.699  0.00  0.00     0.027 A 
HETATM   19  C   UNK N   1      34.626  10.880  15.691  0.00  0.00     0.067 A 
HETATM   20 Cl   UNK N   1      34.248  10.376  14.053  0.00  0.00    -0.081 Cl
ENDBRANCH  12  13
ENDBRANCH  11  12
ENDBRANCH   1  11
TORSDOF 7
ENDMDL
MODEL 9
REMARK VINA RESULT:      -5.5      1.947      2.770
REMARK  7 active torsions:
REMARK  status: ('A' for Active; 'I' for Inactive)
REMARK    1  A    between atoms: O_2  and  C_7 
REMARK    2  A    between atoms: O_3  and  C_11 
REMARK    3  A    between atoms: O_3  and  C_12 
REMARK    4  A    between atoms: N_4  and  C_5 
REMARK    5  A    between atoms: N_4  and  C_6 
REMARK    6  A    between atoms: C_6  and  C_7 
REMARK    7  A    between atoms: C_7  and  C_11 
ROOT
HETATM    1  C   UNK N   1      35.750  15.386  10.292  0.00  0.00     0.159 C 
ENDROOT
BRANCH   1   2
HETATM    2  O   UNK N   1      36.803  16.120  10.839  0.00  0.00    -0.392 OA
HETATM    3  H   UNK N   1      37.696  16.141  10.461  0.00  0.00     0.210 HD
ENDBRANCH   1   2
BRANCH   1   4
HETATM    4  C   UNK N   1      34.829  16.339   9.562  0.00  0.00     0.148 C 
BRANCH   4   5
HETATM    5  N   UNK N   1      34.813  16.050   8.131  0.00  0.00    -0.411 N 
HETATM    6  H   UNK N   1      35.551  15.553   7.632  0.00  0.00     0.154 HD
BRANCH   5   7
HETATM    7  C   UNK N   1      33.590  16.571   7.511  0.00  0.00     0.014 C 
HETATM    8  C   UNK N   1      33.045  17.687   8.376  0.00  0.00     0.037 C 
HETATM    9  C   UNK N   1      32.516  15.494   7.404  0.00  0.00     0.037 C 
HETATM   10  C   UNK N   1      33.884  17.143   6.132  0.00  0.00     0.037 C 
ENDBRANCH   5   7
ENDBRANCH   4   5
ENDBRANCH   1   4
BRANCH   1  11
HETATM   11  C   UNK N   1      34.944  14.716  11.392  0.00  0.00     0.209 C 
BRANCH  11  12
HETATM   12  O   UNK N   1      35.669  13.715  12.006  0.00  0.00    -0.347 OA
BRANCH  12  13
HETATM   13  C   UNK N   1      35.815  13.641  13.352  0.00  0.00     0.091 A 
HETATM   14  C   UNK N   1      36.547  14.615  14.055  0.00  0.00     0.045 A 
HETATM   15  C   UNK N   1      36.684  14.532  15.441  0.00  0.00    -0.059 A 
HETATM   16  C   UNK N   1      36.097  13.473  16.139  0.00  0.00     0.008 A 
HETATM   17  C   UNK N   1      37.450  15.574  16.173  0.00  0.00     0.048 C 
HETATM   18  C   UNK N   1      35.373  12.498  15.449  0.00  0.00     0.027 A 
HETATM   19  C   UNK N   1      35.227  12.579  14.060  0.00  0.00     0.067 A 
HETATM   20 Cl   UNK N   1      34.318  11.335  13.220  0.00  0.00    -0.081 Cl
ENDBRANCH  12  13
ENDBRANCH  11  12
ENDBRANCH   1  11
TORSDOF 7
ENDMDL
