MODEL 1
REMARK VINA RESULT:      -5.6      0.000      0.000
REMARK  6 active torsions:
REMARK  status: ('A' for Active; 'I' for Inactive)
REMARK    1  A    between atoms: N_2  and  C_6 
REMARK    2  A    between atoms: N_2  and  C_8 
REMARK    3  A    between atoms: N_2  and  C_9 
REMARK    4  A    between atoms: N_3  and  C_7 
REMARK    5  A    between atoms: C_6  and  C_7 
REMARK    6  A    between atoms: C_8  and  C_10 
ROOT
HETATM    1  N   UNK N   1      30.861  16.314   6.462  0.00  0.00    -0.361 N 
ENDROOT
BRANCH   1   2
HETATM    2  C   UNK N   1      31.469  16.235   7.776  0.00  0.00     0.155 C 
BRANCH   2   3
HETATM    3  C   UNK N   1      31.968  17.595   8.238  0.00  0.00     0.291 C 
BRANCH   3   4
HETATM    4  N   UNK N   1      33.342  17.471   8.699  0.00  0.00     0.081 N 
HETATM    5  C   UNK N   1      33.591  16.060   8.949  0.00  0.00     0.309 C 
HETATM    6  C   UNK N   1      34.209  17.866   7.605  0.00  0.00     0.309 C 
ENDBRANCH   3   4
ENDBRANCH   2   3
ENDBRANCH   1   2
BRANCH   1   7
HETATM    7  C   UNK N   1      29.413  16.351   6.282  0.00  0.00     0.162 C 
BRANCH   7   8
HETATM    8  C   UNK N   1      28.805  17.717   6.228  0.00  0.00    -0.040 A 
HETATM    9  C   UNK N   1      28.566  18.358   5.005  0.00  0.00     0.010 A 
HETATM   10  C   UNK N   1      27.959  19.617   4.982  0.00  0.00     0.024 A 
HETATM   11  C   UNK N   1      27.582  20.234   6.180  0.00  0.00     0.034 A 
HETATM   12 Cl   UNK N   1      26.822  21.809   6.155  0.00  0.00    -0.084 Cl
HETATM   13  C   UNK N   1      27.808  19.588   7.399  0.00  0.00     0.024 A 
HETATM   14  C   UNK N   1      28.413  18.331   7.422  0.00  0.00     0.010 A 
ENDBRANCH   7   8
ENDBRANCH   1   7
BRANCH   1  15
HETATM   15  C   UNK N   1      31.683  16.198   5.302  0.00  0.00     0.103 A 
HETATM   16  N   UNK N   1      32.193  14.984   4.944  0.00  0.00    -0.352 N 
HETATM   17  C   UNK N   1      33.002  14.835   3.861  0.00  0.00     0.089 A 
ATOM     18  HN  UNK N   1      31.960  14.165   5.504  1.00  0.00     0.166 HD
HETATM   19  C   UNK N   1      33.323  15.939   3.070  0.00  0.00     0.017 A 
HETATM   20  C   UNK N   1      32.809  17.191   3.404  0.00  0.00     0.005 A 
HETATM   21  C   UNK N   1      31.994  17.328   4.527  0.00  0.00     0.048 A 
ENDBRANCH   1  15
TORSDOF 6
ENDMDL
MODEL 2
REMARK VINA RESULT:      -5.6      3.122      5.843
REMARK  6 active torsions:
REMARK  status: ('A' for Active; 'I' for Inactive)
REMARK    1  A    between atoms: N_2  and  C_6 
REMARK    2  A    between atoms: N_2  and  C_8 
REMARK    3  A    between atoms: N_2  and  C_9 
REMARK    4  A    between atoms: N_3  and  C_7 
REMARK    5  A    between atoms: C_6  and  C_7 
REMARK    6  A    between atoms: C_8  and  C_10 
ROOT
HETATM    1  N   UNK N   1      32.682  17.116   8.072  0.00  0.00    -0.361 N 
ENDROOT
BRANCH   1   2
HETATM    2  C   UNK N   1      33.290  16.248   9.062  0.00  0.00     0.155 C 
BRANCH   2   3
HETATM    3  C   UNK N   1      34.611  16.814   9.558  0.00  0.00     0.291 C 
BRANCH   3   4
HETATM    4  N   UNK N   1      34.987  16.146  10.794  0.00  0.00     0.081 N 
HETATM    5  C   UNK N   1      34.138  14.973  10.928  0.00  0.00     0.309 C 
HETATM    6  C   UNK N   1      36.348  15.668  10.637  0.00  0.00     0.309 C 
ENDBRANCH   3   4
ENDBRANCH   2   3
ENDBRANCH   1   2
BRANCH   1   7
HETATM    7  C   UNK N   1      33.456  17.714   6.989  0.00  0.00     0.162 C 
BRANCH   7   8
HETATM    8  C   UNK N   1      33.632  16.859   5.774  0.00  0.00    -0.040 A 
HETATM    9  C   UNK N   1      34.399  15.687   5.815  0.00  0.00     0.010 A 
HETATM   10  C   UNK N   1      34.513  14.886   4.675  0.00  0.00     0.024 A 
HETATM   11  C   UNK N   1      33.856  15.250   3.495  0.00  0.00     0.034 A 
HETATM   12 Cl   UNK N   1      33.996  14.250   2.067  0.00  0.00    -0.084 Cl
HETATM   13  C   UNK N   1      33.080  16.412   3.458  0.00  0.00     0.024 A 
HETATM   14  C   UNK N   1      32.964  17.212   4.596  0.00  0.00     0.010 A 
ENDBRANCH   7   8
ENDBRANCH   1   7
BRANCH   1  15
HETATM   15  C   UNK N   1      31.325  17.524   8.239  0.00  0.00     0.103 A 
HETATM   16  N   UNK N   1      30.952  18.214   9.355  0.00  0.00    -0.352 N 
HETATM   17  C   UNK N   1      29.664  18.599   9.565  0.00  0.00     0.089 A 
ATOM     18  HN  UNK N   1      31.658  18.448  10.052  1.00  0.00     0.166 HD
HETATM   19  C   UNK N   1      28.682  18.304   8.618  0.00  0.00     0.017 A 
HETATM   20  C   UNK N   1      29.035  17.609   7.463  0.00  0.00     0.005 A 
HETATM   21  C   UNK N   1      30.357  17.208   7.271  0.00  0.00     0.048 A 
ENDBRANCH   1  15
TORSDOF 6
ENDMDL
MODEL 3
REMARK VINA RESULT:      -5.5      3.216      6.387
REMARK  6 active torsions:
REMARK  status: ('A' for Active; 'I' for Inactive)
REMARK    1  A    between atoms: N_2  and  C_6 
REMARK    2  A    between atoms: N_2  and  C_8 
REMARK    3  A    between atoms: N_2  and  C_9 
REMARK    4  A    between atoms: N_3  and  C_7 
REMARK    5  A    between atoms: C_6  and  C_7 
REMARK    6  A    between atoms: C_8  and  C_10 
ROOT
HETATM    1  N   UNK N   1      28.855  17.228   5.047  0.00  0.00    -0.361 N 
ENDROOT
BRANCH   1   2
HETATM    2  C   UNK N   1      28.786  16.608   3.738  0.00  0.00     0.155 C 
BRANCH   2   3
HETATM    3  C   UNK N   1      27.577  15.695   3.621  0.00  0.00     0.291 C 
BRANCH   3   4
HETATM    4  N   UNK N   1      26.569  16.337   2.792  0.00  0.00     0.081 N 
HETATM    5  C   UNK N   1      26.157  15.374   1.784  0.00  0.00     0.309 C 
HETATM    6  C   UNK N   1      25.412  16.592   3.630  0.00  0.00     0.309 C 
ENDBRANCH   3   4
ENDBRANCH   2   3
ENDBRANCH   1   2
BRANCH   1   7
HETATM    7  C   UNK N   1      29.392  16.525   6.208  0.00  0.00     0.162 C 
BRANCH   7   8
HETATM    8  C   UNK N   1      30.733  16.991   6.681  0.00  0.00    -0.040 A 
HETATM    9  C   UNK N   1      31.823  17.077   5.805  0.00  0.00     0.010 A 
HETATM   10  C   UNK N   1      33.054  17.555   6.265  0.00  0.00     0.024 A 
HETATM   11  C   UNK N   1      33.196  17.955   7.598  0.00  0.00     0.034 A 
HETATM   12 Cl   UNK N   1      34.734  18.554   8.176  0.00  0.00    -0.084 Cl
HETATM   13  C   UNK N   1      32.105  17.882   8.469  0.00  0.00     0.024 A 
HETATM   14  C   UNK N   1      30.875  17.406   8.009  0.00  0.00     0.010 A 
ENDBRANCH   7   8
ENDBRANCH   1   7
BRANCH   1  15
HETATM   15  C   UNK N   1      28.246  18.502   5.252  0.00  0.00     0.103 A 
HETATM   16  N   UNK N   1      27.950  19.297   4.184  0.00  0.00    -0.352 N 
HETATM   17  C   UNK N   1      27.392  20.528   4.336  0.00  0.00     0.089 A 
ATOM     18  HN  UNK N   1      28.152  18.959   3.244  1.00  0.00     0.166 HD
HETATM   19  C   UNK N   1      27.092  21.008   5.612  0.00  0.00     0.017 A 
HETATM   20  C   UNK N   1      27.373  20.214   6.723  0.00  0.00     0.005 A 
HETATM   21  C   UNK N   1      27.959  18.960   6.549  0.00  0.00     0.048 A 
ENDBRANCH   1  15
TORSDOF 6
ENDMDL
MODEL 4
REMARK VINA RESULT:      -5.5     12.368     14.191
REMARK  6 active torsions:
REMARK  status: ('A' for Active; 'I' for Inactive)
REMARK    1  A    between atoms: N_2  and  C_6 
REMARK    2  A    between atoms: N_2  and  C_8 
REMARK    3  A    between atoms: N_2  and  C_9 
REMARK    4  A    between atoms: N_3  and  C_7 
REMARK    5  A    between atoms: C_6  and  C_7 
REMARK    6  A    between atoms: C_8  and  C_10 
ROOT
HETATM    1  N   UNK N   1      26.983  23.753  -5.656  0.00  0.00    -0.361 N 
ENDROOT
BRANCH   1   2
HETATM    2  C   UNK N   1      28.402  24.032  -5.555  0.00  0.00     0.155 C 
BRANCH   2   3
HETATM    3  C   UNK N   1      29.066  23.155  -4.507  0.00  0.00     0.291 C 
BRANCH   3   4
HETATM    4  N   UNK N   1      29.251  23.923  -3.285  0.00  0.00     0.081 N 
HETATM    5  C   UNK N   1      29.787  23.019  -2.280  0.00  0.00     0.309 C 
HETATM    6  C   UNK N   1      30.272  24.920  -3.545  0.00  0.00     0.309 C 
ENDBRANCH   3   4
ENDBRANCH   2   3
ENDBRANCH   1   2
BRANCH   1   7
HETATM    7  C   UNK N   1      26.017  24.302  -4.710  0.00  0.00     0.162 C 
BRANCH   7   8
HETATM    8  C   UNK N   1      26.086  25.782  -4.504  0.00  0.00    -0.040 A 
HETATM    9  C   UNK N   1      26.471  26.327  -3.272  0.00  0.00     0.010 A 
HETATM   10  C   UNK N   1      26.565  27.714  -3.120  0.00  0.00     0.024 A 
HETATM   11  C   UNK N   1      26.284  28.557  -4.199  0.00  0.00     0.034 A 
HETATM   12 Cl   UNK N   1      26.402  30.292  -4.013  0.00  0.00    -0.084 Cl
HETATM   13  C   UNK N   1      25.913  28.013  -5.432  0.00  0.00     0.024 A 
HETATM   14  C   UNK N   1      25.820  26.628  -5.585  0.00  0.00     0.010 A 
ENDBRANCH   7   8
ENDBRANCH   1   7
BRANCH   1  15
HETATM   15  C   UNK N   1      26.525  22.795  -6.609  0.00  0.00     0.103 A 
HETATM   16  N   UNK N   1      25.220  22.396  -6.604  0.00  0.00    -0.352 N 
HETATM   17  C   UNK N   1      24.749  21.466  -7.479  0.00  0.00     0.089 A 
ATOM     18  HN  UNK N   1      24.580  22.806  -5.926  1.00  0.00     0.166 HD
HETATM   19  C   UNK N   1      25.603  20.901  -8.427  0.00  0.00     0.017 A 
HETATM   20  C   UNK N   1      26.939  21.296  -8.464  0.00  0.00     0.005 A 
HETATM   21  C   UNK N   1      27.409  22.239  -7.550  0.00  0.00     0.048 A 
ENDBRANCH   1  15
TORSDOF 6
ENDMDL
MODEL 5
REMARK VINA RESULT:      -5.4      2.991      6.055
REMARK  6 active torsions:
REMARK  status: ('A' for Active; 'I' for Inactive)
REMARK    1  A    between atoms: N_2  and  C_6 
REMARK    2  A    between atoms: N_2  and  C_8 
REMARK    3  A    between atoms: N_2  and  C_9 
REMARK    4  A    between atoms: N_3  and  C_7 
REMARK    5  A    between atoms: C_6  and  C_7 
REMARK    6  A    between atoms: C_8  and  C_10 
ROOT
HETATM    1  N   UNK N   1      28.608  17.585   5.145  0.00  0.00    -0.361 N 
ENDROOT
BRANCH   1   2
HETATM    2  C   UNK N   1      28.560  17.140   3.766  0.00  0.00     0.155 C 
BRANCH   2   3
HETATM    3  C   UNK N   1      28.540  15.623   3.674  0.00  0.00     0.291 C 
BRANCH   3   4
HETATM    4  N   UNK N   1      29.385  15.198   2.569  0.00  0.00     0.081 N 
HETATM    5  C   UNK N   1      30.537  14.518   3.139  0.00  0.00     0.309 C 
HETATM    6  C   UNK N   1      28.645  14.209   1.808  0.00  0.00     0.309 C 
ENDBRANCH   3   4
ENDBRANCH   2   3
ENDBRANCH   1   2
BRANCH   1   7
HETATM    7  C   UNK N   1      29.147  16.746   6.210  0.00  0.00     0.162 C 
BRANCH   7   8
HETATM    8  C   UNK N   1      30.524  17.099   6.675  0.00  0.00    -0.040 A 
HETATM    9  C   UNK N   1      31.617  17.071   5.797  0.00  0.00     0.010 A 
HETATM   10  C   UNK N   1      32.886  17.446   6.249  0.00  0.00     0.024 A 
HETATM   11  C   UNK N   1      33.064  17.857   7.574  0.00  0.00     0.034 A 
HETATM   12 Cl   UNK N   1      34.650  18.327   8.141  0.00  0.00    -0.084 Cl
HETATM   13  C   UNK N   1      31.973  17.897   8.446  0.00  0.00     0.024 A 
HETATM   14  C   UNK N   1      30.705  17.524   7.995  0.00  0.00     0.010 A 
ENDBRANCH   7   8
ENDBRANCH   1   7
BRANCH   1  15
HETATM   15  C   UNK N   1      27.974  18.811   5.507  0.00  0.00     0.103 A 
HETATM   16  N   UNK N   1      27.643  19.052   6.808  0.00  0.00    -0.352 N 
HETATM   17  C   UNK N   1      27.015  20.196   7.191  0.00  0.00     0.089 A 
ATOM     18  HN  UNK N   1      27.872  18.354   7.514  1.00  0.00     0.166 HD
HETATM   19  C   UNK N   1      26.704  21.174   6.245  0.00  0.00     0.017 A 
HETATM   20  C   UNK N   1      27.039  20.961   4.909  0.00  0.00     0.005 A 
HETATM   21  C   UNK N   1      27.668  19.776   4.531  0.00  0.00     0.048 A 
ENDBRANCH   1  15
TORSDOF 6
ENDMDL
MODEL 6
REMARK VINA RESULT:      -5.3      2.781      5.370
REMARK  6 active torsions:
REMARK  status: ('A' for Active; 'I' for Inactive)
REMARK    1  A    between atoms: N_2  and  C_6 
REMARK    2  A    between atoms: N_2  and  C_8 
REMARK    3  A    between atoms: N_2  and  C_9 
REMARK    4  A    between atoms: N_3  and  C_7 
REMARK    5  A    between atoms: C_6  and  C_7 
REMARK    6  A    between atoms: C_8  and  C_10 
ROOT
HETATM    1  N   UNK N   1      33.524  17.358   7.862  0.00  0.00    -0.361 N 
ENDROOT
BRANCH   1   2
HETATM    2  C   UNK N   1      32.266  17.897   8.342  0.00  0.00     0.155 C 
BRANCH   2   3
HETATM    3  C   UNK N   1      31.312  16.790   8.760  0.00  0.00     0.291 C 
BRANCH   3   4
HETATM    4  N   UNK N   1      29.945  17.280   8.686  0.00  0.00     0.081 N 
HETATM    5  C   UNK N   1      29.918  18.589   9.318  0.00  0.00     0.309 C 
HETATM    6  C   UNK N   1      29.627  17.481   7.284  0.00  0.00     0.309 C 
ENDBRANCH   3   4
ENDBRANCH   2   3
ENDBRANCH   1   2
BRANCH   1   7
HETATM    7  C   UNK N   1      33.879  17.365   6.447  0.00  0.00     0.162 C 
BRANCH   7   8
HETATM    8  C   UNK N   1      32.853  16.788   5.522  0.00  0.00    -0.040 A 
HETATM    9  C   UNK N   1      32.258  17.567   4.521  0.00  0.00     0.010 A 
HETATM   10  C   UNK N   1      31.333  16.992   3.645  0.00  0.00     0.024 A 
HETATM   11  C   UNK N   1      31.007  15.636   3.762  0.00  0.00     0.034 A 
HETATM   12 Cl   UNK N   1      29.851  14.913   2.668  0.00  0.00    -0.084 Cl
HETATM   13  C   UNK N   1      31.611  14.856   4.752  0.00  0.00     0.024 A 
HETATM   14  C   UNK N   1      32.536  15.431   5.627  0.00  0.00     0.010 A 
ENDBRANCH   7   8
ENDBRANCH   1   7
BRANCH   1  15
HETATM   15  C   UNK N   1      34.378  16.662   8.769  0.00  0.00     0.103 A 
HETATM   16  N   UNK N   1      34.645  17.190   9.998  0.00  0.00    -0.352 N 
HETATM   17  C   UNK N   1      35.474  16.572  10.882  0.00  0.00     0.089 A 
ATOM     18  HN  UNK N   1      34.212  18.074  10.262  1.00  0.00     0.166 HD
HETATM   19  C   UNK N   1      36.069  15.353  10.549  0.00  0.00     0.017 A 
HETATM   20  C   UNK N   1      35.806  14.783   9.305  0.00  0.00     0.005 A 
HETATM   21  C   UNK N   1      34.966  15.439   8.405  0.00  0.00     0.048 A 
ENDBRANCH   1  15
TORSDOF 6
ENDMDL
MODEL 7
REMARK VINA RESULT:      -5.2      1.089      3.375
REMARK  6 active torsions:
REMARK  status: ('A' for Active; 'I' for Inactive)
REMARK    1  A    between atoms: N_2  and  C_6 
REMARK    2  A    between atoms: N_2  and  C_8 
REMARK    3  A    between atoms: N_2  and  C_9 
REMARK    4  A    between atoms: N_3  and  C_7 
REMARK    5  A    between atoms: C_6  and  C_7 
REMARK    6  A    between atoms: C_8  and  C_10 
ROOT
HETATM    1  N   UNK N   1      30.897  16.269   5.451  0.00  0.00    -0.361 N 
ENDROOT
BRANCH   1   2
HETATM    2  C   UNK N   1      31.354  16.032   4.096  0.00  0.00     0.155 C 
BRANCH   2   3
HETATM    3  C   UNK N   1      31.820  14.597   3.911  0.00  0.00     0.291 C 
BRANCH   3   4
HETATM    4  N   UNK N   1      33.154  14.596   3.332  0.00  0.00     0.081 N 
HETATM    5  C   UNK N   1      33.403  15.930   2.811  0.00  0.00     0.309 C 
HETATM    6  C   UNK N   1      34.099  14.380   4.412  0.00  0.00     0.309 C 
ENDBRANCH   3   4
ENDBRANCH   2   3
ENDBRANCH   1   2
BRANCH   1   7
HETATM    7  C   UNK N   1      29.479  16.304   5.794  0.00  0.00     0.162 C 
BRANCH   7   8
HETATM    8  C   UNK N   1      28.871  17.668   5.887  0.00  0.00    -0.040 A 
HETATM    9  C   UNK N   1      28.573  18.410   4.736  0.00  0.00     0.010 A 
HETATM   10  C   UNK N   1      27.968  19.665   4.851  0.00  0.00     0.024 A 
HETATM   11  C   UNK N   1      27.653  20.177   6.113  0.00  0.00     0.034 A 
HETATM   12 Cl   UNK N   1      26.895  21.747   6.261  0.00  0.00    -0.084 Cl
HETATM   13  C   UNK N   1      27.938  19.431   7.261  0.00  0.00     0.024 A 
HETATM   14  C   UNK N   1      28.541  18.177   7.146  0.00  0.00     0.010 A 
ENDBRANCH   7   8
ENDBRANCH   1   7
BRANCH   1  15
HETATM   15  C   UNK N   1      31.844  16.631   6.455  0.00  0.00     0.103 A 
HETATM   16  N   UNK N   1      31.699  16.166   7.730  0.00  0.00    -0.352 N 
HETATM   17  C   UNK N   1      32.564  16.508   8.723  0.00  0.00     0.089 A 
ATOM     18  HN  UNK N   1      30.919  15.546   7.945  1.00  0.00     0.166 HD
HETATM   19  C   UNK N   1      33.647  17.344   8.450  0.00  0.00     0.017 A 
HETATM   20  C   UNK N   1      33.828  17.827   7.155  0.00  0.00     0.005 A 
HETATM   21  C   UNK N   1      32.922  17.479   6.153  0.00  0.00     0.048 A 
ENDBRANCH   1  15
TORSDOF 6
ENDMDL
MODEL 8
REMARK VINA RESULT:      -5.2      3.373      5.594
REMARK  6 active torsions:
REMARK  status: ('A' for Active; 'I' for Inactive)
REMARK    1  A    between atoms: N_2  and  C_6 
REMARK    2  A    between atoms: N_2  and  C_8 
REMARK    3  A    between atoms: N_2  and  C_9 
REMARK    4  A    between atoms: N_3  and  C_7 
REMARK    5  A    between atoms: C_6  and  C_7 
REMARK    6  A    between atoms: C_8  and  C_10 
ROOT
HETATM    1  N   UNK N   1      28.487  17.266   5.231  0.00  0.00    -0.361 N 
ENDROOT
BRANCH   1   2
HETATM    2  C   UNK N   1      28.491  18.715   5.194  0.00  0.00     0.155 C 
BRANCH   2   3
HETATM    3  C   UNK N   1      27.600  19.299   6.279  0.00  0.00     0.291 C 
BRANCH   3   4
HETATM    4  N   UNK N   1      26.685  20.260   5.684  0.00  0.00     0.081 N 
HETATM    5  C   UNK N   1      27.009  21.567   6.235  0.00  0.00     0.309 C 
HETATM    6  C   UNK N   1      26.973  20.317   4.263  0.00  0.00     0.309 C 
ENDBRANCH   3   4
ENDBRANCH   2   3
ENDBRANCH   1   2
BRANCH   1   7
HETATM    7  C   UNK N   1      29.070  16.519   6.341  0.00  0.00     0.162 C 
BRANCH   7   8
HETATM    8  C   UNK N   1      30.441  16.951   6.759  0.00  0.00    -0.040 A 
HETATM    9  C   UNK N   1      31.520  16.909   5.866  0.00  0.00     0.010 A 
HETATM   10  C   UNK N   1      32.780  17.356   6.272  0.00  0.00     0.024 A 
HETATM   11  C   UNK N   1      32.964  17.854   7.566  0.00  0.00     0.034 A 
HETATM   12 Cl   UNK N   1      34.539  18.415   8.076  0.00  0.00    -0.084 Cl
HETATM   13  C   UNK N   1      31.884  17.908   8.452  0.00  0.00     0.024 A 
HETATM   14  C   UNK N   1      30.625  17.462   8.047  0.00  0.00     0.010 A 
ENDBRANCH   7   8
ENDBRANCH   1   7
BRANCH   1  15
HETATM   15  C   UNK N   1      28.043  16.539   4.087  0.00  0.00     0.103 A 
HETATM   16  N   UNK N   1      26.736  16.606   3.700  0.00  0.00    -0.352 N 
HETATM   17  C   UNK N   1      26.266  15.908   2.631  0.00  0.00     0.089 A 
ATOM     18  HN  UNK N   1      26.093  17.196   4.227  1.00  0.00     0.166 HD
HETATM   19  C   UNK N   1      27.129  15.104   1.885  0.00  0.00     0.017 A 
HETATM   20  C   UNK N   1      28.472  15.023   2.249  0.00  0.00     0.005 A 
HETATM   21  C   UNK N   1      28.934  15.733   3.357  0.00  0.00     0.048 A 
ENDBRANCH   1  15
TORSDOF 6
ENDMDL
MODEL 9
REMARK VINA RESULT:      -5.2      8.719     11.893
REMARK  6 active torsions:
REMARK  status: ('A' for Active; 'I' for Inactive)
REMARK    1  A    between atoms: N_2  and  C_6 
REMARK    2  A    between atoms: N_2  and  C_8 
REMARK    3  A    between atoms: N_2  and  C_9 
REMARK    4  A    between atoms: N_3  and  C_7 
REMARK    5  A    between atoms: C_6  and  C_7 
REMARK    6  A    between atoms: C_8  and  C_10 
ROOT
HETATM    1  N   UNK N   1      35.230  11.755  13.183  0.00  0.00    -0.361 N 
ENDROOT
BRANCH   1   2
HETATM    2  C   UNK N   1      36.219  10.775  12.778  0.00  0.00     0.155 C 
BRANCH   2   3
HETATM    3  C   UNK N   1      37.506  10.925  13.573  0.00  0.00     0.291 C 
BRANCH   3   4
HETATM    4  N   UNK N   1      37.638   9.802  14.489  0.00  0.00     0.081 N 
HETATM    5  C   UNK N   1      37.038   8.644  13.846  0.00  0.00     0.309 C 
HETATM    6  C   UNK N   1      39.054   9.520  14.633  0.00  0.00     0.309 C 
ENDBRANCH   3   4
ENDBRANCH   2   3
ENDBRANCH   1   2
BRANCH   1   7
HETATM    7  C   UNK N   1      34.160  11.432  14.121  0.00  0.00     0.162 C 
BRANCH   7   8
HETATM    8  C   UNK N   1      34.520  11.528  15.570  0.00  0.00    -0.040 A 
HETATM    9  C   UNK N   1      34.747  10.380  16.340  0.00  0.00     0.010 A 
HETATM   10  C   UNK N   1      35.122  10.500  17.681  0.00  0.00     0.024 A 
HETATM   11  C   UNK N   1      35.280  11.767  18.253  0.00  0.00     0.034 A 
HETATM   12 Cl   UNK N   1      35.750  11.921  19.930  0.00  0.00    -0.084 Cl
HETATM   13  C   UNK N   1      35.067  12.913  17.481  0.00  0.00     0.024 A 
HETATM   14  C   UNK N   1      34.693  12.793  16.141  0.00  0.00     0.010 A 
ENDBRANCH   7   8
ENDBRANCH   1   7
BRANCH   1  15
HETATM   15  C   UNK N   1      35.202  13.028  12.538  0.00  0.00     0.103 A 
HETATM   16  N   UNK N   1      34.420  13.219  11.438  0.00  0.00    -0.352 N 
HETATM   17  C   UNK N   1      34.384  14.408  10.778  0.00  0.00     0.089 A 
ATOM     18  HN  UNK N   1      33.846  12.448  11.098  1.00  0.00     0.166 HD
HETATM   19  C   UNK N   1      35.150  15.483  11.231  0.00  0.00     0.017 A 
HETATM   20  C   UNK N   1      35.952  15.322  12.360  0.00  0.00     0.005 A 
HETATM   21  C   UNK N   1      35.989  14.091  13.015  0.00  0.00     0.048 A 
ENDBRANCH   1  15
TORSDOF 6
ENDMDL
