MODEL 1
REMARK VINA RESULT:      -7.0      0.000      0.000
REMARK  28 active torsions:
REMARK  status: ('A' for Active; 'I' for Inactive)
REMARK    1  A    between atoms: O_15  and  C_81 
REMARK       I    between atoms: N_18  and  C_39 
REMARK       I    between atoms: N_19  and  C_38 
REMARK    2  A    between atoms: C_41  and  N_19 
REMARK       I    between atoms: N_21  and  C_45 
REMARK    3  A    between atoms: N_21  and  C_52 
REMARK    4  A    between atoms: N_23  and  C_50 
REMARK    5  A    between atoms: C_57  and  N_27 
REMARK       I    between atoms: N_27  and  C_70 
REMARK       I    between atoms: N_28  and  C_56 
REMARK       I    between atoms: N_29  and  C_61 
REMARK       I    between atoms: N_30  and  C_68 
REMARK    6  A    between atoms: N_31  and  C_73 
REMARK       I    between atoms: N_31  and  C_82 
REMARK    7  A    between atoms: N_32  and  C_83 
REMARK       I    between atoms: N_32  and  C_84 
REMARK    8  A    between atoms: N_33  and  C_85 
REMARK    9  A    between atoms: C_34  and  C_38 
REMARK   10  A    between atoms: C_40  and  C_39 
REMARK   11  A    between atoms: C_41  and  C_43 
REMARK   12  A    between atoms: C_41  and  C_45 
REMARK   13  A    between atoms: C_43  and  C_44 
REMARK   14  A    between atoms: C_44  and  C_48 
REMARK   15  A    between atoms: C_47  and  C_49 
REMARK   16  A    between atoms: C_48  and  C_50 
REMARK   17  A    between atoms: C_49  and  C_56 
REMARK   18  A    between atoms: C_51  and  C_55 
REMARK   19  A    between atoms: C_52  and  C_61 
REMARK   20  A    between atoms: C_55  and  C_62 
REMARK   21  A    between atoms: C_58  and  C_64 
REMARK   22  A    between atoms: C_60  and  C_66 
REMARK   23  A    between atoms: C_62  and  C_68 
REMARK   24  A    between atoms: C_64  and  C_67 
REMARK   25  A    between atoms: C_66  and  C_69 
REMARK   26  A    between atoms: C_70  and  C_73 
REMARK   27  A    between atoms: C_82  and  C_83 
REMARK   28  A    between atoms: C_84  and  C_85 
ROOT
HETATM    1  S   UNK N   1      33.872  13.079   4.615  0.00  0.00    -0.095 SA
HETATM    2  S   UNK N   1      32.219  13.802   3.505  0.00  0.00    -0.095 SA
HETATM    3  O   UNK N   1      30.867   9.257   7.202  0.00  0.00    -0.271 OA
HETATM    4  O   UNK N   1      29.457   9.405   3.089  0.00  0.00    -0.271 OA
HETATM    5  O   UNK N   1      28.772  12.181   3.373  0.00  0.00    -0.271 OA
HETATM    6  O   UNK N   1      30.501  17.386   3.624  0.00  0.00    -0.271 OA
HETATM    7  O   UNK N   1      26.347  15.661   1.826  0.00  0.00    -0.271 OA
HETATM    8  N   UNK N   1      31.498   9.878   5.128  0.00  0.00    -0.345 N 
HETATM    9  N   UNK N   1      28.661   8.626   5.036  0.00  0.00    -0.346 N 
HETATM   10  N   UNK N   1      26.960  11.169   4.225  0.00  0.00    -0.346 N 
HETATM   11  N   UNK N   1      26.580  14.170   3.456  0.00  0.00    -0.346 N 
HETATM   12  N   UNK N   1      29.187  15.575   3.706  0.00  0.00    -0.346 N 
HETATM   13  C   UNK N   1      32.301  11.022   5.524  0.00  0.00     0.186 C 
HETATM   14  C   UNK N   1      33.252  11.390   4.397  0.00  0.00     0.120 C 
HETATM   15  C   UNK N   1      30.800   9.088   5.995  0.00  0.00     0.241 C 
HETATM   16  C   UNK N   1      29.894   8.024   5.487  0.00  0.00     0.185 C 
HETATM   17  C   UNK N   1      27.217   9.927   3.531  0.00  0.00     0.177 C 
HETATM   18  C   UNK N   1      28.529   9.319   3.880  0.00  0.00     0.241 C 
HETATM   19  C   UNK N   1      31.288  14.201   5.017  0.00  0.00     0.120 C 
HETATM   20  C   UNK N   1      31.124  15.710   5.135  0.00  0.00     0.186 C 
HETATM   21  C   UNK N   1      27.329  13.592   4.545  0.00  0.00     0.180 C 
HETATM   22  C   UNK N   1      27.771  12.249   4.073  0.00  0.00     0.241 C 
HETATM   23  C   UNK N   1      27.968  16.269   3.415  0.00  0.00     0.180 C 
HETATM   24  C   UNK N   1      30.343  16.227   3.979  0.00  0.00     0.242 C 
HETATM   25  C   UNK N   1      26.934  15.327   2.840  0.00  0.00     0.241 C 
HETATM   26  H   UNK N   1      31.453   9.659   4.169  0.00  0.00     0.163 HD
HETATM   27  H   UNK N   1      27.864   8.525   5.606  0.00  0.00     0.163 HD
HETATM   28  H   UNK N   1      26.180  11.233   4.822  0.00  0.00     0.163 HD
HETATM   29  H   UNK N   1      25.773  13.702   3.143  0.00  0.00     0.163 HD
HETATM   30  H   UNK N   1      29.185  14.590   3.706  0.00  0.00     0.163 HD
ENDROOT
BRANCH  13  31
HETATM   31  C   UNK N   1      33.064  10.728   6.780  0.00  0.00     0.244 C 
HETATM   32  O   UNK N   1      32.846  11.399   7.771  0.00  0.00    -0.271 OA
HETATM   33  N   UNK N   1      34.063   9.796   6.758  0.00  0.00    -0.337 N 
HETATM   34  C   UNK N   1      34.946   9.573   7.865  0.00  0.00     0.179 C 
HETATM   35  C   UNK N   1      34.312   8.932   5.649  0.00  0.00     0.127 C 
HETATM   36  C   UNK N   1      36.031   8.661   7.334  0.00  0.00     0.037 C 
HETATM   37  C   UNK N   1      35.354   7.947   6.172  0.00  0.00     0.022 C 
BRANCH  34  38
HETATM   38  C   UNK N   1      35.450  10.820   8.523  0.00  0.00     0.241 C 
HETATM   39  O   UNK N   1      36.075  11.643   7.872  0.00  0.00    -0.271 OA
HETATM   40  N   UNK N   1      35.165  11.082   9.829  0.00  0.00    -0.346 N 
HETATM   41  H   UNK N   1      35.526  11.924  10.189  0.00  0.00     0.163 HD
BRANCH  40  42
HETATM   42  C   UNK N   1      34.385  10.263  10.762  0.00  0.00     0.176 C 
BRANCH  42  43
HETATM   43  C   UNK N   1      34.842   8.794  11.011  0.00  0.00     0.035 C 
BRANCH  43  44
HETATM   44  C   UNK N   1      33.749   7.760  10.700  0.00  0.00     0.004 C 
BRANCH  44  45
HETATM   45  C   UNK N   1      32.452   8.362  10.204  0.00  0.00     0.019 C 
BRANCH  45  46
HETATM   46  C   UNK N   1      31.434   7.238  10.116  0.00  0.00     0.111 C 
BRANCH  46  47
HETATM   47  N   UNK N   1      30.228   7.703   9.459  0.00  0.00    -0.430 N 
HETATM   48  H   UNK N   1      30.106   8.679   9.190  0.00  0.00     0.149 HD
HETATM   49  H   UNK N   1      29.481   7.037   9.261  0.00  0.00     0.149 HD
ENDBRANCH  46  47
ENDBRANCH  45  46
ENDBRANCH  44  45
ENDBRANCH  43  44
ENDBRANCH  42  43
BRANCH  42  50
HETATM   50  C   UNK N   1      34.278  10.977  12.060  0.00  0.00     0.240 C 
HETATM   51  O   UNK N   1      33.898  10.382  13.057  0.00  0.00    -0.271 OA
HETATM   52  N   UNK N   1      34.726  12.252  12.133  0.00  0.00    -0.351 N 
HETATM   53  H   UNK N   1      34.888  12.743  11.295  0.00  0.00     0.163 HD
BRANCH  52  54
HETATM   54  C   UNK N   1      34.975  12.915  13.377  0.00  0.00     0.225 C 
BRANCH  54  55
HETATM   55  C   UNK N   1      36.386  13.402  13.323  0.00  0.00     0.233 C 
HETATM   56  O   UNK N   1      37.243  12.727  12.778  0.00  0.00    -0.272 OA
HETATM   57  N   UNK N   1      36.735  14.516  13.996  0.00  0.00    -0.369 N 
HETATM   58  H   UNK N   1      37.131  15.246  14.525  0.00  0.00     0.159 HD
HETATM   59  H   UNK N   1      35.912  15.010  13.774  0.00  0.00     0.159 HD
ENDBRANCH  54  55
ENDBRANCH  52  54
ENDBRANCH  42  50
ENDBRANCH  40  42
ENDBRANCH  34  38
ENDBRANCH  13  31
BRANCH  16  60
HETATM   60  C   UNK N   1      30.564   7.116   4.448  0.00  0.00     0.137 C 
BRANCH  60  61
HETATM   61  C   UNK N   1      31.443   6.076   5.069  0.00  0.00     0.217 C 
HETATM   62  O   UNK N   1      31.039   5.401   6.003  0.00  0.00    -0.274 OA
HETATM   63  N   UNK N   1      32.673   5.854   4.568  0.00  0.00    -0.370 N 
HETATM   64  H   UNK N   1      33.144   6.548   4.053  0.00  0.00     0.159 HD
HETATM   65  H   UNK N   1      33.108   4.984   4.720  0.00  0.00     0.159 HD
ENDBRANCH  60  61
ENDBRANCH  16  60
BRANCH  20  66
HETATM   66  N   UNK N   1      30.209  16.032   6.191  0.00  0.00    -0.346 N 
HETATM   67  C   UNK N   1      30.418  16.825   7.249  0.00  0.00     0.236 C 
HETATM   68  O   UNK N   1      29.435  17.284   7.817  0.00  0.00    -0.272 OA
HETATM   69  H   UNK N   1      29.317  15.619   6.130  0.00  0.00     0.163 HD
BRANCH  67  70
HETATM   70  C   UNK N   1      31.783  17.062   7.832  0.00  0.00     0.225 C 
BRANCH  70  71
HETATM   71  N   UNK N   1      31.874  16.084   8.884  0.00  0.00    -0.351 N 
HETATM   72  C   UNK N   1      32.793  15.104   8.892  0.00  0.00     0.235 C 
HETATM   73  O   UNK N   1      33.296  14.706   7.855  0.00  0.00    -0.272 OA
HETATM   74  H   UNK N   1      31.235  16.136   9.630  0.00  0.00     0.163 HD
BRANCH  72  75
HETATM   75  C   UNK N   1      33.424  14.775  10.200  0.00  0.00     0.225 C 
BRANCH  75  76
HETATM   76  N   UNK N   1      34.293  15.891  10.533  0.00  0.00    -0.351 N 
HETATM   77  C   UNK N   1      35.641  15.842  10.343  0.00  0.00     0.235 C 
HETATM   78  O   UNK N   1      36.315  16.843  10.528  0.00  0.00    -0.272 OA
HETATM   79  H   UNK N   1      33.895  16.710  10.907  0.00  0.00     0.163 HD
BRANCH  77  80
HETATM   80  C   UNK N   1      36.313  14.577   9.903  0.00  0.00     0.214 C 
BRANCH  80  81
HETATM   81  N   UNK N   1      36.341  14.517   8.452  0.00  0.00    -0.422 N 
HETATM   82  H   UNK N   1      37.089  14.955   7.916  0.00  0.00     0.150 HD
HETATM   83  H   UNK N   1      35.595  14.026   7.960  0.00  0.00     0.150 HD
ENDBRANCH  80  81
ENDBRANCH  77  80
ENDBRANCH  75  76
ENDBRANCH  72  75
ENDBRANCH  70  71
ENDBRANCH  67  70
ENDBRANCH  20  66
BRANCH  17  84
HETATM   84  C   UNK N   1      26.094   8.922   3.745  0.00  0.00     0.044 C 
BRANCH  84  85
HETATM   85  C   UNK N   1      25.077   9.431   4.758  0.00  0.00     0.105 C 
BRANCH  85  86
HETATM   86  C   UNK N   1      24.650   8.355   5.710  0.00  0.00     0.215 C 
HETATM   87  O   UNK N   1      23.465   8.117   5.883  0.00  0.00    -0.274 OA
HETATM   88  N   UNK N   1      25.579   7.679   6.407  0.00  0.00    -0.370 N 
HETATM   89  H   UNK N   1      25.737   6.730   6.621  0.00  0.00     0.159 HD
HETATM   90  H   UNK N   1      26.265   8.270   6.794  0.00  0.00     0.159 HD
ENDBRANCH  85  86
ENDBRANCH  84  85
ENDBRANCH  17  84
BRANCH  23  91
HETATM   91  C   UNK N   1      27.434  16.852   4.741  0.00  0.00     0.073 C 
BRANCH  91  92
HETATM   92  C   UNK N   1      26.663  18.075   4.424  0.00  0.00    -0.056 A 
HETATM   93  C   UNK N   1      27.338  19.196   3.943  0.00  0.00     0.010 A 
HETATM   94  C   UNK N   1      26.621  20.249   3.381  0.00  0.00     0.037 A 
HETATM   95  C   UNK N   1      25.230  20.167   3.276  0.00  0.00     0.065 A 
HETATM   96  C   UNK N   1      24.550  19.055   3.781  0.00  0.00     0.037 A 
HETATM   97  C   UNK N   1      25.267  18.005   4.352  0.00  0.00     0.010 A 
BRANCH  95  98
HETATM   98  O   UNK N   1      24.549  21.151   2.672  0.00  0.00    -0.361 OA
HETATM   99  H   UNK N   1      23.612  21.138   2.652  0.00  0.00     0.217 HD
ENDBRANCH  95  98
ENDBRANCH  91  92
ENDBRANCH  23  91
BRANCH  21 100
HETATM  100  C   UNK N   1      26.530  13.582   5.843  0.00  0.00     0.073 C 
BRANCH 100 101
HETATM  101  C   UNK N   1      25.114  14.016   5.621  0.00  0.00    -0.056 A 
HETATM  102  C   UNK N   1      24.612  15.168   6.240  0.00  0.00     0.007 A 
HETATM  103  C   UNK N   1      23.276  15.535   6.063  0.00  0.00     0.001 A 
HETATM  104  C   UNK N   1      22.439  14.748   5.267  0.00  0.00     0.000 A 
HETATM  105  C   UNK N   1      22.939  13.610   4.630  0.00  0.00     0.001 A 
HETATM  106  C   UNK N   1      24.273  13.239   4.815  0.00  0.00     0.007 A 
ENDBRANCH 100 101
ENDBRANCH  21 100
TORSDOF 28
ENDMDL
MODEL 2
REMARK VINA RESULT:      -6.9      2.569     12.257
REMARK  28 active torsions:
REMARK  status: ('A' for Active; 'I' for Inactive)
REMARK    1  A    between atoms: O_15  and  C_81 
REMARK       I    between atoms: N_18  and  C_39 
REMARK       I    between atoms: N_19  and  C_38 
REMARK    2  A    between atoms: C_41  and  N_19 
REMARK       I    between atoms: N_21  and  C_45 
REMARK    3  A    between atoms: N_21  and  C_52 
REMARK    4  A    between atoms: N_23  and  C_50 
REMARK    5  A    between atoms: C_57  and  N_27 
REMARK       I    between atoms: N_27  and  C_70 
REMARK       I    between atoms: N_28  and  C_56 
REMARK       I    between atoms: N_29  and  C_61 
REMARK       I    between atoms: N_30  and  C_68 
REMARK    6  A    between atoms: N_31  and  C_73 
REMARK       I    between atoms: N_31  and  C_82 
REMARK    7  A    between atoms: N_32  and  C_83 
REMARK       I    between atoms: N_32  and  C_84 
REMARK    8  A    between atoms: N_33  and  C_85 
REMARK    9  A    between atoms: C_34  and  C_38 
REMARK   10  A    between atoms: C_40  and  C_39 
REMARK   11  A    between atoms: C_41  and  C_43 
REMARK   12  A    between atoms: C_41  and  C_45 
REMARK   13  A    between atoms: C_43  and  C_44 
REMARK   14  A    between atoms: C_44  and  C_48 
REMARK   15  A    between atoms: C_47  and  C_49 
REMARK   16  A    between atoms: C_48  and  C_50 
REMARK   17  A    between atoms: C_49  and  C_56 
REMARK   18  A    between atoms: C_51  and  C_55 
REMARK   19  A    between atoms: C_52  and  C_61 
REMARK   20  A    between atoms: C_55  and  C_62 
REMARK   21  A    between atoms: C_58  and  C_64 
REMARK   22  A    between atoms: C_60  and  C_66 
REMARK   23  A    between atoms: C_62  and  C_68 
REMARK   24  A    between atoms: C_64  and  C_67 
REMARK   25  A    between atoms: C_66  and  C_69 
REMARK   26  A    between atoms: C_70  and  C_73 
REMARK   27  A    between atoms: C_82  and  C_83 
REMARK   28  A    between atoms: C_84  and  C_85 
ROOT
HETATM    1  S   UNK N   1      34.350  12.381   4.735  0.00  0.00    -0.095 SA
HETATM    2  S   UNK N   1      35.557  11.206   6.019  0.00  0.00    -0.095 SA
HETATM    3  O   UNK N   1      32.329  15.397   8.877  0.00  0.00    -0.271 OA
HETATM    4  O   UNK N   1      36.536  14.710   9.747  0.00  0.00    -0.271 OA
HETATM    5  O   UNK N   1      36.124  11.866   9.730  0.00  0.00    -0.271 OA
HETATM    6  O   UNK N   1      35.349   7.307   6.771  0.00  0.00    -0.271 OA
HETATM    7  O   UNK N   1      37.645   7.811  11.007  0.00  0.00    -0.271 OA
HETATM    8  N   UNK N   1      34.286  14.873   7.887  0.00  0.00    -0.345 N 
HETATM    9  N   UNK N   1      34.732  15.338  10.923  0.00  0.00    -0.346 N 
HETATM   10  N   UNK N   1      35.519  12.408  11.821  0.00  0.00    -0.346 N 
HETATM   11  N   UNK N   1      36.109   9.381  11.339  0.00  0.00    -0.346 N 
HETATM   12  N   UNK N   1      35.518   8.715   8.503  0.00  0.00    -0.346 N 
HETATM   13  C   UNK N   1      33.738  13.996   6.868  0.00  0.00     0.186 C 
HETATM   14  C   UNK N   1      34.742  13.840   5.737  0.00  0.00     0.120 C 
HETATM   15  C   UNK N   1      33.546  15.491   8.853  0.00  0.00     0.241 C 
HETATM   16  C   UNK N   1      34.210  16.259   9.939  0.00  0.00     0.185 C 
HETATM   17  C   UNK N   1      36.271  13.642  11.815  0.00  0.00     0.177 C 
HETATM   18  C   UNK N   1      35.844  14.585  10.747  0.00  0.00     0.241 C 
HETATM   19  C   UNK N   1      34.115  10.644   6.977  0.00  0.00     0.120 C 
HETATM   20  C   UNK N   1      33.907   9.151   6.763  0.00  0.00     0.186 C 
HETATM   21  C   UNK N   1      34.998  10.180  10.885  0.00  0.00     0.180 C 
HETATM   22  C   UNK N   1      35.519  11.570  10.750  0.00  0.00     0.241 C 
HETATM   23  C   UNK N   1      35.872   7.716   9.467  0.00  0.00     0.180 C 
HETATM   24  C   UNK N   1      35.093   8.399   7.256  0.00  0.00     0.242 C 
HETATM   25  C   UNK N   1      36.606   8.331  10.637  0.00  0.00     0.241 C 
HETATM   26  H   UNK N   1      35.258  15.031   7.882  0.00  0.00     0.163 HD
HETATM   27  H   UNK N   1      34.247  15.252  11.776  0.00  0.00     0.163 HD
HETATM   28  H   UNK N   1      34.994  12.168  12.619  0.00  0.00     0.163 HD
HETATM   29  H   UNK N   1      36.528   9.608  12.199  0.00  0.00     0.163 HD
HETATM   30  H   UNK N   1      35.586   9.664   8.755  0.00  0.00     0.163 HD
ENDROOT
BRANCH  13  31
HETATM   31  C   UNK N   1      32.440  14.533   6.346  0.00  0.00     0.244 C 
HETATM   32  O   UNK N   1      31.415  13.917   6.573  0.00  0.00    -0.271 OA
HETATM   33  N   UNK N   1      32.443  15.632   5.535  0.00  0.00    -0.337 N 
HETATM   34  C   UNK N   1      31.270  16.110   4.863  0.00  0.00     0.179 C 
HETATM   35  C   UNK N   1      33.601  16.433   5.295  0.00  0.00     0.127 C 
HETATM   36  C   UNK N   1      31.764  17.163   3.895  0.00  0.00     0.037 C 
HETATM   37  C   UNK N   1      33.068  17.637   4.524  0.00  0.00     0.022 C 
BRANCH  34  38
HETATM   38  C   UNK N   1      30.428  15.040   4.239  0.00  0.00     0.241 C 
HETATM   39  O   UNK N   1      30.929  14.250   3.453  0.00  0.00    -0.271 OA
HETATM   40  N   UNK N   1      29.120  14.894   4.586  0.00  0.00    -0.346 N 
HETATM   41  H   UNK N   1      28.633  14.165   4.138  0.00  0.00     0.163 HD
BRANCH  40  42
HETATM   42  C   UNK N   1      28.348  15.689   5.546  0.00  0.00     0.176 C 
BRANCH  42  43
HETATM   43  C   UNK N   1      28.231  17.224   5.304  0.00  0.00     0.035 C 
BRANCH  43  44
HETATM   44  C   UNK N   1      28.626  18.061   6.530  0.00  0.00     0.004 C 
BRANCH  44  45
HETATM   45  C   UNK N   1      29.173  17.248   7.683  0.00  0.00     0.019 C 
BRANCH  45  46
HETATM   46  C   UNK N   1      28.176  17.350   8.824  0.00  0.00     0.111 C 
BRANCH  46  47
HETATM   47  N   UNK N   1      27.653  18.700   8.914  0.00  0.00    -0.430 N 
HETATM   48  H   UNK N   1      28.269  19.510   8.983  0.00  0.00     0.149 HD
HETATM   49  H   UNK N   1      26.643  18.844   8.911  0.00  0.00     0.149 HD
ENDBRANCH  46  47
ENDBRANCH  45  46
ENDBRANCH  44  45
ENDBRANCH  43  44
ENDBRANCH  42  43
BRANCH  42  50
HETATM   50  C   UNK N   1      26.990  15.102   5.680  0.00  0.00     0.240 C 
HETATM   51  O   UNK N   1      26.237  15.495   6.558  0.00  0.00    -0.271 OA
HETATM   52  N   UNK N   1      26.572  14.223   4.740  0.00  0.00    -0.351 N 
HETATM   53  H   UNK N   1      27.241  13.822   4.139  0.00  0.00     0.163 HD
BRANCH  52  54
HETATM   54  C   UNK N   1      25.198  13.853   4.584  0.00  0.00     0.225 C 
BRANCH  54  55
HETATM   55  C   UNK N   1      24.796  14.287   3.213  0.00  0.00     0.233 C 
HETATM   56  O   UNK N   1      23.632  14.196   2.861  0.00  0.00    -0.272 OA
HETATM   57  N   UNK N   1      25.740  14.648   2.321  0.00  0.00    -0.369 N 
HETATM   58  H   UNK N   1      26.335  14.829   1.558  0.00  0.00     0.159 HD
HETATM   59  H   UNK N   1      26.292  15.134   2.975  0.00  0.00     0.159 HD
ENDBRANCH  54  55
ENDBRANCH  52  54
ENDBRANCH  42  50
ENDBRANCH  40  42
ENDBRANCH  34  38
ENDBRANCH  13  31
BRANCH  16  60
HETATM   60  C   UNK N   1      35.243  17.264   9.413  0.00  0.00     0.137 C 
BRANCH  60  61
HETATM   61  C   UNK N   1      34.620  18.380   8.633  0.00  0.00     0.217 C 
HETATM   62  O   UNK N   1      35.276  19.363   8.328  0.00  0.00    -0.274 OA
HETATM   63  N   UNK N   1      33.340  18.280   8.230  0.00  0.00    -0.370 N 
HETATM   64  H   UNK N   1      32.705  17.689   8.695  0.00  0.00     0.159 HD
HETATM   65  H   UNK N   1      33.033  18.807   7.456  0.00  0.00     0.159 HD
ENDBRANCH  60  61
ENDBRANCH  16  60
BRANCH  20  66
HETATM   66  N   UNK N   1      32.922   8.648   7.675  0.00  0.00    -0.346 N 
HETATM   67  C   UNK N   1      31.873   7.861   7.404  0.00  0.00     0.236 C 
HETATM   68  O   UNK N   1      31.383   7.230   8.331  0.00  0.00    -0.272 OA
HETATM   69  H   UNK N   1      33.030   8.913   8.617  0.00  0.00     0.163 HD
BRANCH  67  70
HETATM   70  C   UNK N   1      31.209   7.826   6.055  0.00  0.00     0.225 C 
BRANCH  70  71
HETATM   71  N   UNK N   1      30.242   8.890   6.130  0.00  0.00    -0.351 N 
HETATM   72  C   UNK N   1      30.185   9.888   5.233  0.00  0.00     0.235 C 
HETATM   73  O   UNK N   1      31.168  10.211   4.588  0.00  0.00    -0.272 OA
HETATM   74  H   UNK N   1      29.594   8.885   6.870  0.00  0.00     0.163 HD
BRANCH  72  75
HETATM   75  C   UNK N   1      28.832  10.340   4.803  0.00  0.00     0.225 C 
BRANCH  75  76
HETATM   76  N   UNK N   1      29.037  11.478   3.922  0.00  0.00    -0.351 N 
HETATM   77  C   UNK N   1      28.134  11.825   2.964  0.00  0.00     0.235 C 
HETATM   78  O   UNK N   1      28.293  12.854   2.326  0.00  0.00    -0.272 OA
HETATM   79  H   UNK N   1      29.855  12.016   4.022  0.00  0.00     0.163 HD
BRANCH  77  80
HETATM   80  C   UNK N   1      26.941  10.964   2.681  0.00  0.00     0.214 C 
BRANCH  80  81
HETATM   81  N   UNK N   1      26.365  11.333   1.400  0.00  0.00    -0.422 N 
HETATM   82  H   UNK N   1      25.369  11.534   1.301  0.00  0.00     0.150 HD
HETATM   83  H   UNK N   1      26.969  11.393   0.581  0.00  0.00     0.150 HD
ENDBRANCH  80  81
ENDBRANCH  77  80
ENDBRANCH  75  76
ENDBRANCH  72  75
ENDBRANCH  70  71
ENDBRANCH  67  70
ENDBRANCH  20  66
BRANCH  17  84
HETATM   84  C   UNK N   1      36.235  14.329  13.173  0.00  0.00     0.044 C 
BRANCH  84  85
HETATM   85  C   UNK N   1      36.584  13.360  14.296  0.00  0.00     0.105 C 
BRANCH  85  86
HETATM   86  C   UNK N   1      36.710  14.057  15.616  0.00  0.00     0.215 C 
HETATM   87  O   UNK N   1      37.565  14.912  15.785  0.00  0.00    -0.274 OA
HETATM   88  N   UNK N   1      35.902  13.706  16.632  0.00  0.00    -0.370 N 
HETATM   89  H   UNK N   1      35.369  14.196  17.300  0.00  0.00     0.159 HD
HETATM   90  H   UNK N   1      35.823  12.730  16.731  0.00  0.00     0.159 HD
ENDBRANCH  85  86
ENDBRANCH  84  85
ENDBRANCH  17  84
BRANCH  23  91
HETATM   91  C   UNK N   1      34.564   7.072   9.975  0.00  0.00     0.073 C 
BRANCH  91  92
HETATM   92  C   UNK N   1      34.917   5.812  10.668  0.00  0.00    -0.056 A 
HETATM   93  C   UNK N   1      35.784   4.916  10.046  0.00  0.00     0.010 A 
HETATM   94  C   UNK N   1      36.344   3.871  10.777  0.00  0.00     0.037 A 
HETATM   95  C   UNK N   1      36.058   3.742  12.139  0.00  0.00     0.065 A 
HETATM   96  C   UNK N   1      35.168   4.624  12.758  0.00  0.00     0.037 A 
HETATM   97  C   UNK N   1      34.599   5.664  12.024  0.00  0.00     0.010 A 
BRANCH  95  98
HETATM   98  O   UNK N   1      36.652   2.778  12.856  0.00  0.00    -0.361 OA
HETATM   99  H   UNK N   1      36.154   2.251  13.449  0.00  0.00     0.217 HD
ENDBRANCH  95  98
ENDBRANCH  91  92
ENDBRANCH  23  91
BRANCH  21 100
HETATM  100  C   UNK N   1      33.784  10.038  11.796  0.00  0.00     0.073 C 
BRANCH 100 101
HETATM  101  C   UNK N   1      34.184   9.956  13.236  0.00  0.00    -0.056 A 
HETATM  102  C   UNK N   1      33.705  10.887  14.168  0.00  0.00     0.007 A 
HETATM  103  C   UNK N   1      34.125  10.827  15.500  0.00  0.00     0.001 A 
HETATM  104  C   UNK N   1      35.026   9.837  15.901  0.00  0.00     0.000 A 
HETATM  105  C   UNK N   1      35.491   8.894  14.981  0.00  0.00     0.001 A 
HETATM  106  C   UNK N   1      35.078   8.959  13.648  0.00  0.00     0.007 A 
ENDBRANCH 100 101
ENDBRANCH  21 100
TORSDOF 28
ENDMDL
MODEL 3
REMARK VINA RESULT:      -6.9      3.407     11.563
REMARK  28 active torsions:
REMARK  status: ('A' for Active; 'I' for Inactive)
REMARK    1  A    between atoms: O_15  and  C_81 
REMARK       I    between atoms: N_18  and  C_39 
REMARK       I    between atoms: N_19  and  C_38 
REMARK    2  A    between atoms: C_41  and  N_19 
REMARK       I    between atoms: N_21  and  C_45 
REMARK    3  A    between atoms: N_21  and  C_52 
REMARK    4  A    between atoms: N_23  and  C_50 
REMARK    5  A    between atoms: C_57  and  N_27 
REMARK       I    between atoms: N_27  and  C_70 
REMARK       I    between atoms: N_28  and  C_56 
REMARK       I    between atoms: N_29  and  C_61 
REMARK       I    between atoms: N_30  and  C_68 
REMARK    6  A    between atoms: N_31  and  C_73 
REMARK       I    between atoms: N_31  and  C_82 
REMARK    7  A    between atoms: N_32  and  C_83 
REMARK       I    between atoms: N_32  and  C_84 
REMARK    8  A    between atoms: N_33  and  C_85 
REMARK    9  A    between atoms: C_34  and  C_38 
REMARK   10  A    between atoms: C_40  and  C_39 
REMARK   11  A    between atoms: C_41  and  C_43 
REMARK   12  A    between atoms: C_41  and  C_45 
REMARK   13  A    between atoms: C_43  and  C_44 
REMARK   14  A    between atoms: C_44  and  C_48 
REMARK   15  A    between atoms: C_47  and  C_49 
REMARK   16  A    between atoms: C_48  and  C_50 
REMARK   17  A    between atoms: C_49  and  C_56 
REMARK   18  A    between atoms: C_51  and  C_55 
REMARK   19  A    between atoms: C_52  and  C_61 
REMARK   20  A    between atoms: C_55  and  C_62 
REMARK   21  A    between atoms: C_58  and  C_64 
REMARK   22  A    between atoms: C_60  and  C_66 
REMARK   23  A    between atoms: C_62  and  C_68 
REMARK   24  A    between atoms: C_64  and  C_67 
REMARK   25  A    between atoms: C_66  and  C_69 
REMARK   26  A    between atoms: C_70  and  C_73 
REMARK   27  A    between atoms: C_82  and  C_83 
REMARK   28  A    between atoms: C_84  and  C_85 
ROOT
HETATM    1  S   UNK N   1      26.579  13.211   2.505  0.00  0.00    -0.095 SA
HETATM    2  S   UNK N   1      28.649  13.015   2.102  0.00  0.00    -0.095 SA
HETATM    3  O   UNK N   1      27.428  16.070   7.135  0.00  0.00    -0.271 OA
HETATM    4  O   UNK N   1      30.376  17.438   4.244  0.00  0.00    -0.271 OA
HETATM    5  O   UNK N   1      31.443  14.782   4.001  0.00  0.00    -0.271 OA
HETATM    6  O   UNK N   1      30.868   9.719   1.954  0.00  0.00    -0.271 OA
HETATM    7  O   UNK N   1      34.944  12.201   2.789  0.00  0.00    -0.271 OA
HETATM    8  N   UNK N   1      27.831  16.170   4.919  0.00  0.00    -0.345 N 
HETATM    9  N   UNK N   1      30.140  17.541   6.472  0.00  0.00    -0.346 N 
HETATM   10  N   UNK N   1      32.506  15.541   5.825  0.00  0.00    -0.346 N 
HETATM   11  N   UNK N   1      33.771  13.019   4.489  0.00  0.00    -0.346 N 
HETATM   12  N   UNK N   1      31.635  11.464   3.130  0.00  0.00    -0.346 N 
HETATM   13  C   UNK N   1      27.190  14.915   4.567  0.00  0.00     0.186 C 
HETATM   14  C   UNK N   1      26.873  14.905   3.081  0.00  0.00     0.120 C 
HETATM   15  C   UNK N   1      27.940  16.651   6.191  0.00  0.00     0.241 C 
HETATM   16  C   UNK N   1      28.735  17.876   6.471  0.00  0.00     0.185 C 
HETATM   17  C   UNK N   1      32.303  16.928   5.476  0.00  0.00     0.177 C 
HETATM   18  C   UNK N   1      30.867  17.300   5.355  0.00  0.00     0.241 C 
HETATM   19  C   UNK N   1      28.950  12.173   3.687  0.00  0.00     0.120 C 
HETATM   20  C   UNK N   1      29.358  10.729   3.431  0.00  0.00     0.186 C 
HETATM   21  C   UNK N   1      32.545  13.139   5.239  0.00  0.00     0.180 C 
HETATM   22  C   UNK N   1      32.066  14.534   5.024  0.00  0.00     0.241 C 
HETATM   23  C   UNK N   1      32.981  10.986   3.234  0.00  0.00     0.180 C 
HETATM   24  C   UNK N   1      30.628  10.691   2.656  0.00  0.00     0.242 C 
HETATM   25  C   UNK N   1      33.942  12.128   3.479  0.00  0.00     0.241 C 
HETATM   26  H   UNK N   1      28.213  16.710   4.189  0.00  0.00     0.163 HD
HETATM   27  H   UNK N   1      30.600  17.485   7.341  0.00  0.00     0.163 HD
HETATM   28  H   UNK N   1      32.973  15.319   6.663  0.00  0.00     0.163 HD
HETATM   29  H   UNK N   1      34.521  13.613   4.720  0.00  0.00     0.163 HD
HETATM   30  H   UNK N   1      31.434  12.386   3.411  0.00  0.00     0.163 HD
ENDROOT
BRANCH  13  31
HETATM   31  C   UNK N   1      25.942  14.711   5.371  0.00  0.00     0.244 C 
HETATM   32  O   UNK N   1      25.904  13.799   6.177  0.00  0.00    -0.271 OA
HETATM   33  N   UNK N   1      24.839  15.473   5.108  0.00  0.00    -0.337 N 
HETATM   34  C   UNK N   1      23.562  15.232   5.714  0.00  0.00     0.179 C 
HETATM   35  C   UNK N   1      24.849  16.598   4.229  0.00  0.00     0.127 C 
HETATM   36  C   UNK N   1      22.591  16.121   4.966  0.00  0.00     0.037 C 
HETATM   37  C   UNK N   1      23.477  17.237   4.428  0.00  0.00     0.022 C 
BRANCH  34  38
HETATM   38  C   UNK N   1      23.161  13.791   5.776  0.00  0.00     0.241 C 
HETATM   39  O   UNK N   1      23.199  13.103   4.768  0.00  0.00    -0.271 OA
HETATM   40  N   UNK N   1      22.815  13.216   6.961  0.00  0.00    -0.346 N 
HETATM   41  H   UNK N   1      22.570  12.263   6.924  0.00  0.00     0.163 HD
BRANCH  40  42
HETATM   42  C   UNK N   1      22.764  13.843   8.286  0.00  0.00     0.176 C 
BRANCH  42  43
HETATM   43  C   UNK N   1      21.389  13.913   9.014  0.00  0.00     0.035 C 
BRANCH  43  44
HETATM   44  C   UNK N   1      20.378  14.832   8.311  0.00  0.00     0.004 C 
BRANCH  44  45
HETATM   45  C   UNK N   1      20.535  16.298   8.652  0.00  0.00     0.019 C 
BRANCH  45  46
HETATM   46  C   UNK N   1      19.149  16.846   8.947  0.00  0.00     0.111 C 
BRANCH  46  47
HETATM   47  N   UNK N   1      19.199  18.289   9.083  0.00  0.00    -0.430 N 
HETATM   48  H   UNK N   1      18.829  18.909   8.362  0.00  0.00     0.149 HD
HETATM   49  H   UNK N   1      19.614  18.695   9.921  0.00  0.00     0.149 HD
ENDBRANCH  46  47
ENDBRANCH  45  46
ENDBRANCH  44  45
ENDBRANCH  43  44
ENDBRANCH  42  43
BRANCH  42  50
HETATM   50  C   UNK N   1      23.763  13.188   9.169  0.00  0.00     0.240 C 
HETATM   51  O   UNK N   1      24.948  13.464   9.064  0.00  0.00    -0.271 OA
HETATM   52  N   UNK N   1      23.316  12.385  10.163  0.00  0.00    -0.351 N 
HETATM   53  H   UNK N   1      22.383  12.071  10.131  0.00  0.00     0.163 HD
BRANCH  52  54
HETATM   54  C   UNK N   1      24.143  11.973  11.256  0.00  0.00     0.225 C 
BRANCH  54  55
HETATM   55  C   UNK N   1      23.261  11.927  12.460  0.00  0.00     0.233 C 
HETATM   56  O   UNK N   1      23.744  12.043  13.574  0.00  0.00    -0.272 OA
HETATM   57  N   UNK N   1      21.956  11.619  12.323  0.00  0.00    -0.369 N 
HETATM   58  H   UNK N   1      21.024  11.305  12.364  0.00  0.00     0.159 HD
HETATM   59  H   UNK N   1      21.833  12.143  11.498  0.00  0.00     0.159 HD
ENDBRANCH  54  55
ENDBRANCH  52  54
ENDBRANCH  42  50
ENDBRANCH  40  42
ENDBRANCH  34  38
ENDBRANCH  13  31
BRANCH  16  60
HETATM   60  C   UNK N   1      28.371  19.046   5.548  0.00  0.00     0.137 C 
BRANCH  60  61
HETATM   61  C   UNK N   1      27.103  19.731   5.954  0.00  0.00     0.217 C 
HETATM   62  O   UNK N   1      26.222  19.937   5.135  0.00  0.00    -0.274 OA
HETATM   63  N   UNK N   1      26.917  20.086   7.239  0.00  0.00    -0.370 N 
HETATM   64  H   UNK N   1      27.681  20.227   7.843  0.00  0.00     0.159 HD
HETATM   65  H   UNK N   1      26.001  20.206   7.580  0.00  0.00     0.159 HD
ENDBRANCH  60  61
ENDBRANCH  16  60
BRANCH  20  66
HETATM   66  N   UNK N   1      29.813  10.115   4.645  0.00  0.00    -0.346 N 
HETATM   67  C   UNK N   1      29.741   8.825   4.993  0.00  0.00     0.236 C 
HETATM   68  O   UNK N   1      30.507   8.429   5.863  0.00  0.00    -0.272 OA
HETATM   69  H   UNK N   1      30.230  10.718   5.303  0.00  0.00     0.163 HD
BRANCH  67  70
HETATM   70  C   UNK N   1      28.687   7.895   4.459  0.00  0.00     0.225 C 
BRANCH  70  71
HETATM   71  N   UNK N   1      27.578   8.096   5.353  0.00  0.00    -0.351 N 
HETATM   72  C   UNK N   1      26.379   8.540   4.941  0.00  0.00     0.235 C 
HETATM   73  O   UNK N   1      26.271   9.205   3.925  0.00  0.00    -0.272 OA
HETATM   74  H   UNK N   1      27.703   7.899   6.309  0.00  0.00     0.163 HD
BRANCH  72  75
HETATM   75  C   UNK N   1      25.174   7.912   5.551  0.00  0.00     0.225 C 
BRANCH  75  76
HETATM   76  N   UNK N   1      24.566   8.922   6.401  0.00  0.00    -0.351 N 
HETATM   77  C   UNK N   1      23.425   9.576   6.048  0.00  0.00     0.235 C 
HETATM   78  O   UNK N   1      22.889  10.332   6.843  0.00  0.00    -0.272 OA
HETATM   79  H   UNK N   1      24.993   9.141   7.261  0.00  0.00     0.163 HD
BRANCH  77  80
HETATM   80  C   UNK N   1      22.810   9.379   4.695  0.00  0.00     0.214 C 
BRANCH  80  81
HETATM   81  N   UNK N   1      23.341  10.365   3.770  0.00  0.00    -0.422 N 
HETATM   82  H   UNK N   1      23.695  11.264   4.095  0.00  0.00     0.150 HD
HETATM   83  H   UNK N   1      23.358  10.152   2.773  0.00  0.00     0.150 HD
ENDBRANCH  80  81
ENDBRANCH  77  80
ENDBRANCH  75  76
ENDBRANCH  72  75
ENDBRANCH  70  71
ENDBRANCH  67  70
ENDBRANCH  20  66
BRANCH  17  84
HETATM   84  C   UNK N   1      33.011  17.862   6.447  0.00  0.00     0.044 C 
BRANCH  84  85
HETATM   85  C   UNK N   1      34.130  17.145   7.192  0.00  0.00     0.105 C 
BRANCH  85  86
HETATM   86  C   UNK N   1      34.544  17.886   8.427  0.00  0.00     0.215 C 
HETATM   87  O   UNK N   1      35.050  18.994   8.343  0.00  0.00    -0.274 OA
HETATM   88  N   UNK N   1      34.394  17.306   9.631  0.00  0.00    -0.370 N 
HETATM   89  H   UNK N   1      34.052  17.597  10.507  0.00  0.00     0.159 HD
HETATM   90  H   UNK N   1      34.697  16.369   9.638  0.00  0.00     0.159 HD
ENDBRANCH  85  86
ENDBRANCH  84  85
ENDBRANCH  17  84
BRANCH  23  91
HETATM   91  C   UNK N   1      33.041  10.012   4.430  0.00  0.00     0.073 C 
BRANCH  91  92
HETATM   92  C   UNK N   1      33.986   8.926   4.087  0.00  0.00    -0.056 A 
HETATM   93  C   UNK N   1      34.504   8.131   5.108  0.00  0.00     0.010 A 
HETATM   94  C   UNK N   1      35.166   6.946   4.796  0.00  0.00     0.037 A 
HETATM   95  C   UNK N   1      35.284   6.544   3.462  0.00  0.00     0.065 A 
HETATM   96  C   UNK N   1      34.787   7.353   2.436  0.00  0.00     0.037 A 
HETATM   97  C   UNK N   1      34.133   8.544   2.748  0.00  0.00     0.010 A 
BRANCH  95  98
HETATM   98  O   UNK N   1      35.860   5.369   3.169  0.00  0.00    -0.361 OA
HETATM   99  H   UNK N   1      35.898   4.686   3.809  0.00  0.00     0.217 HD
ENDBRANCH  95  98
ENDBRANCH  91  92
ENDBRANCH  23  91
BRANCH  21 100
HETATM  100  C   UNK N   1      32.731  12.746   6.701  0.00  0.00     0.073 C 
BRANCH 100 101
HETATM  101  C   UNK N   1      34.177  12.557   7.040  0.00  0.00    -0.056 A 
HETATM  102  C   UNK N   1      35.002  13.659   7.301  0.00  0.00     0.007 A 
HETATM  103  C   UNK N   1      36.361  13.471   7.569  0.00  0.00     0.001 A 
HETATM  104  C   UNK N   1      36.895  12.179   7.575  0.00  0.00     0.000 A 
HETATM  105  C   UNK N   1      36.074  11.076   7.336  0.00  0.00     0.001 A 
HETATM  106  C   UNK N   1      34.717  11.265   7.060  0.00  0.00     0.007 A 
ENDBRANCH 100 101
ENDBRANCH  21 100
TORSDOF 28
ENDMDL
MODEL 4
REMARK VINA RESULT:      -6.8      2.210      3.430
REMARK  28 active torsions:
REMARK  status: ('A' for Active; 'I' for Inactive)
REMARK    1  A    between atoms: O_15  and  C_81 
REMARK       I    between atoms: N_18  and  C_39 
REMARK       I    between atoms: N_19  and  C_38 
REMARK    2  A    between atoms: C_41  and  N_19 
REMARK       I    between atoms: N_21  and  C_45 
REMARK    3  A    between atoms: N_21  and  C_52 
REMARK    4  A    between atoms: N_23  and  C_50 
REMARK    5  A    between atoms: C_57  and  N_27 
REMARK       I    between atoms: N_27  and  C_70 
REMARK       I    between atoms: N_28  and  C_56 
REMARK       I    between atoms: N_29  and  C_61 
REMARK       I    between atoms: N_30  and  C_68 
REMARK    6  A    between atoms: N_31  and  C_73 
REMARK       I    between atoms: N_31  and  C_82 
REMARK    7  A    between atoms: N_32  and  C_83 
REMARK       I    between atoms: N_32  and  C_84 
REMARK    8  A    between atoms: N_33  and  C_85 
REMARK    9  A    between atoms: C_34  and  C_38 
REMARK   10  A    between atoms: C_40  and  C_39 
REMARK   11  A    between atoms: C_41  and  C_43 
REMARK   12  A    between atoms: C_41  and  C_45 
REMARK   13  A    between atoms: C_43  and  C_44 
REMARK   14  A    between atoms: C_44  and  C_48 
REMARK   15  A    between atoms: C_47  and  C_49 
REMARK   16  A    between atoms: C_48  and  C_50 
REMARK   17  A    between atoms: C_49  and  C_56 
REMARK   18  A    between atoms: C_51  and  C_55 
REMARK   19  A    between atoms: C_52  and  C_61 
REMARK   20  A    between atoms: C_55  and  C_62 
REMARK   21  A    between atoms: C_58  and  C_64 
REMARK   22  A    between atoms: C_60  and  C_66 
REMARK   23  A    between atoms: C_62  and  C_68 
REMARK   24  A    between atoms: C_64  and  C_67 
REMARK   25  A    between atoms: C_66  and  C_69 
REMARK   26  A    between atoms: C_70  and  C_73 
REMARK   27  A    between atoms: C_82  and  C_83 
REMARK   28  A    between atoms: C_84  and  C_85 
ROOT
HETATM    1  S   UNK N   1      30.999  12.974   2.013  0.00  0.00    -0.095 SA
HETATM    2  S   UNK N   1      28.912  12.942   1.651  0.00  0.00    -0.095 SA
HETATM    3  O   UNK N   1      30.615   9.632   6.373  0.00  0.00    -0.271 OA
HETATM    4  O   UNK N   1      27.798   8.164   3.402  0.00  0.00    -0.271 OA
HETATM    5  O   UNK N   1      26.403  10.676   3.413  0.00  0.00    -0.271 OA
HETATM    6  O   UNK N   1      26.297  15.932   1.827  0.00  0.00    -0.271 OA
HETATM    7  O   UNK N   1      22.582  12.892   2.477  0.00  0.00    -0.271 OA
HETATM    8  N   UNK N   1      30.179   9.679   4.162  0.00  0.00    -0.345 N 
HETATM    9  N   UNK N   1      28.094   7.895   5.609  0.00  0.00    -0.346 N 
HETATM   10  N   UNK N   1      25.483   9.631   5.171  0.00  0.00    -0.346 N 
HETATM   11  N   UNK N   1      23.884  12.081   4.083  0.00  0.00    -0.346 N 
HETATM   12  N   UNK N   1      25.780  14.007   2.847  0.00  0.00    -0.346 N 
HETATM   13  C   UNK N   1      30.651  11.030   3.918  0.00  0.00     0.186 C 
HETATM   14  C   UNK N   1      30.931  11.213   2.436  0.00  0.00     0.120 C 
HETATM   15  C   UNK N   1      30.159   9.077   5.386  0.00  0.00     0.241 C 
HETATM   16  C   UNK N   1      29.530   7.742   5.563  0.00  0.00     0.185 C 
HETATM   17  C   UNK N   1      25.850   8.316   4.695  0.00  0.00     0.177 C 
HETATM   18  C   UNK N   1      27.318   8.141   4.526  0.00  0.00     0.241 C 
HETATM   19  C   UNK N   1      28.543  13.595   3.310  0.00  0.00     0.120 C 
HETATM   20  C   UNK N   1      27.953  14.994   3.190  0.00  0.00     0.186 C 
HETATM   21  C   UNK N   1      25.132  12.050   4.806  0.00  0.00     0.180 C 
HETATM   22  C   UNK N   1      25.777  10.751   4.460  0.00  0.00     0.241 C 
HETATM   23  C   UNK N   1      24.387  14.300   3.009  0.00  0.00     0.180 C 
HETATM   24  C   UNK N   1      26.672  14.940   2.435  0.00  0.00     0.242 C 
HETATM   25  C   UNK N   1      23.582  13.029   3.160  0.00  0.00     0.241 C 
HETATM   26  H   UNK N   1      29.852   9.162   3.390  0.00  0.00     0.163 HD
HETATM   27  H   UNK N   1      27.650   7.816   6.485  0.00  0.00     0.163 HD
HETATM   28  H   UNK N   1      25.011   9.716   6.031  0.00  0.00     0.163 HD
HETATM   29  H   UNK N   1      23.220  11.379   4.268  0.00  0.00     0.163 HD
HETATM   30  H   UNK N   1      26.100  13.097   3.042  0.00  0.00     0.163 HD
ENDROOT
BRANCH  13  31
HETATM   31  C   UNK N   1      31.881  11.319   4.725  0.00  0.00     0.244 C 
HETATM   32  O   UNK N   1      31.849  12.215   5.547  0.00  0.00    -0.271 OA
HETATM   33  N   UNK N   1      33.041  10.652   4.445  0.00  0.00    -0.337 N 
HETATM   34  C   UNK N   1      34.296  10.982   5.053  0.00  0.00     0.179 C 
HETATM   35  C   UNK N   1      33.118   9.546   3.545  0.00  0.00     0.127 C 
HETATM   36  C   UNK N   1      35.333  10.188   4.288  0.00  0.00     0.037 C 
HETATM   37  C   UNK N   1      34.537   9.016   3.729  0.00  0.00     0.022 C 
BRANCH  34  38
HETATM   38  C   UNK N   1      34.581  12.450   5.143  0.00  0.00     0.241 C 
HETATM   39  O   UNK N   1      34.740  13.103   4.123  0.00  0.00    -0.271 OA
HETATM   40  N   UNK N   1      34.601  13.082   6.348  0.00  0.00    -0.346 N 
HETATM   41  H   UNK N   1      34.788  14.049   6.326  0.00  0.00     0.163 HD
BRANCH  40  42
HETATM   42  C   UNK N   1      34.375  12.500   7.675  0.00  0.00     0.176 C 
BRANCH  42  43
HETATM   43  C   UNK N   1      35.568  11.788   8.379  0.00  0.00     0.035 C 
BRANCH  43  44
HETATM   44  C   UNK N   1      35.141  10.567   9.207  0.00  0.00     0.004 C 
BRANCH  44  45
HETATM   45  C   UNK N   1      34.064   9.726   8.557  0.00  0.00     0.019 C 
BRANCH  45  46
HETATM   46  C   UNK N   1      32.900   9.649   9.531  0.00  0.00     0.111 C 
BRANCH  46  47
HETATM   47  N   UNK N   1      32.991  10.715  10.509  0.00  0.00    -0.430 N 
HETATM   48  H   UNK N   1      32.610  10.614  11.450  0.00  0.00     0.149 HD
HETATM   49  H   UNK N   1      33.449  11.589  10.251  0.00  0.00     0.149 HD
ENDBRANCH  46  47
ENDBRANCH  45  46
ENDBRANCH  44  45
ENDBRANCH  43  44
ENDBRANCH  42  43
BRANCH  42  50
HETATM   50  C   UNK N   1      33.818  13.544   8.573  0.00  0.00     0.240 C 
HETATM   51  O   UNK N   1      32.628  13.544   8.849  0.00  0.00    -0.271 OA
HETATM   52  N   UNK N   1      34.675  14.406   9.168  0.00  0.00    -0.351 N 
HETATM   53  H   UNK N   1      35.593  14.473   8.820  0.00  0.00     0.163 HD
BRANCH  52  54
HETATM   54  C   UNK N   1      34.301  15.222  10.283  0.00  0.00     0.225 C 
BRANCH  54  55
HETATM   55  C   UNK N   1      35.516  16.003  10.662  0.00  0.00     0.233 C 
HETATM   56  O   UNK N   1      35.567  17.200  10.434  0.00  0.00    -0.272 OA
HETATM   57  N   UNK N   1      36.606  15.361  11.128  0.00  0.00    -0.369 N 
HETATM   58  H   UNK N   1      37.489  15.002  11.374  0.00  0.00     0.159 HD
HETATM   59  H   UNK N   1      36.099  14.721  11.677  0.00  0.00     0.159 HD
ENDBRANCH  54  55
ENDBRANCH  52  54
ENDBRANCH  42  50
ENDBRANCH  40  42
ENDBRANCH  34  38
ENDBRANCH  13  31
BRANCH  16  60
HETATM   60  C   UNK N   1      30.016   6.713   4.534  0.00  0.00     0.137 C 
BRANCH  60  61
HETATM   61  C   UNK N   1      31.097   5.826   5.069  0.00  0.00     0.217 C 
HETATM   62  O   UNK N   1      30.842   4.688   5.430  0.00  0.00    -0.274 OA
HETATM   63  N   UNK N   1      32.366   6.272   5.114  0.00  0.00    -0.370 N 
HETATM   64  H   UNK N   1      32.565   7.236   5.135  0.00  0.00     0.159 HD
HETATM   65  H   UNK N   1      33.107   5.624   5.125  0.00  0.00     0.159 HD
ENDBRANCH  60  61
ENDBRANCH  16  60
BRANCH  20  66
HETATM   66  N   UNK N   1      27.452  15.435   4.459  0.00  0.00    -0.346 N 
HETATM   67  C   UNK N   1      27.791  16.536   5.142  0.00  0.00     0.236 C 
HETATM   68  O   UNK N   1      27.004  16.943   5.987  0.00  0.00    -0.272 OA
HETATM   69  H   UNK N   1      26.775  14.857   4.880  0.00  0.00     0.163 HD
BRANCH  67  70
HETATM   70  C   UNK N   1      29.132  17.199   5.001  0.00  0.00     0.225 C 
BRANCH  70  71
HETATM   71  N   UNK N   1      30.041  16.247   5.583  0.00  0.00    -0.351 N 
HETATM   72  C   UNK N   1      31.224  15.934   5.030  0.00  0.00     0.235 C 
HETATM   73  O   UNK N   1      31.415  16.074   3.833  0.00  0.00    -0.272 OA
HETATM   74  H   UNK N   1      29.784  15.805   6.424  0.00  0.00     0.163 HD
BRANCH  72  75
HETATM   75  C   UNK N   1      32.381  15.757   5.951  0.00  0.00     0.225 C 
BRANCH  75  76
HETATM   76  N   UNK N   1      31.966  16.283   7.241  0.00  0.00    -0.351 N 
HETATM   77  C   UNK N   1      32.620  17.311   7.849  0.00  0.00     0.235 C 
HETATM   78  O   UNK N   1      32.167  17.795   8.875  0.00  0.00    -0.272 OA
HETATM   79  H   UNK N   1      31.186  15.884   7.690  0.00  0.00     0.163 HD
BRANCH  77  80
HETATM   80  C   UNK N   1      33.889  17.864   7.276  0.00  0.00     0.214 C 
BRANCH  80  81
HETATM   81  N   UNK N   1      34.562  18.677   8.274  0.00  0.00    -0.422 N 
HETATM   82  H   UNK N   1      34.306  19.652   8.428  0.00  0.00     0.150 HD
HETATM   83  H   UNK N   1      35.308  18.263   8.832  0.00  0.00     0.150 HD
ENDBRANCH  80  81
ENDBRANCH  77  80
ENDBRANCH  75  76
ENDBRANCH  72  75
ENDBRANCH  70  71
ENDBRANCH  67  70
ENDBRANCH  20  66
BRANCH  17  84
HETATM   84  C   UNK N   1      25.285   7.218   5.586  0.00  0.00     0.044 C 
BRANCH  84  85
HETATM   85  C   UNK N   1      24.517   7.800   6.766  0.00  0.00     0.105 C 
BRANCH  85  86
HETATM   86  C   UNK N   1      23.556   6.809   7.350  0.00  0.00     0.215 C 
HETATM   87  O   UNK N   1      22.412   6.736   6.930  0.00  0.00    -0.274 OA
HETATM   88  N   UNK N   1      23.948   6.026   8.370  0.00  0.00    -0.370 N 
HETATM   89  H   UNK N   1      23.863   5.070   8.588  0.00  0.00     0.159 HD
HETATM   90  H   UNK N   1      24.435   6.527   9.064  0.00  0.00     0.159 HD
ENDBRANCH  85  86
ENDBRANCH  84  85
ENDBRANCH  17  84
BRANCH  23  91
HETATM   91  C   UNK N   1      24.233  15.149   4.289  0.00  0.00     0.073 C 
BRANCH  91  92
HETATM   92  C   UNK N   1      23.502  16.385   3.931  0.00  0.00    -0.056 A 
HETATM   93  C   UNK N   1      22.121  16.328   3.751  0.00  0.00     0.010 A 
HETATM   94  C   UNK N   1      21.380  17.506   3.688  0.00  0.00     0.037 A 
HETATM   95  C   UNK N   1      22.020  18.740   3.834  0.00  0.00     0.065 A 
HETATM   96  C   UNK N   1      23.409  18.799   3.989  0.00  0.00     0.037 A 
HETATM   97  C   UNK N   1      24.151  17.620   4.042  0.00  0.00     0.010 A 
BRANCH  95  98
HETATM   98  O   UNK N   1      21.297  19.868   3.843  0.00  0.00    -0.361 OA
HETATM   99  H   UNK N   1      21.011  20.243   4.652  0.00  0.00     0.217 HD
ENDBRANCH  95  98
ENDBRANCH  91  92
ENDBRANCH  23  91
BRANCH  21 100
HETATM  100  C   UNK N   1      24.931  12.285   6.299  0.00  0.00     0.073 C 
BRANCH 100 101
HETATM  101  C   UNK N   1      23.500  12.585   6.621  0.00  0.00    -0.056 A 
HETATM  102  C   UNK N   1      22.523  11.584   6.544  0.00  0.00     0.007 A 
HETATM  103  C   UNK N   1      21.183  11.889   6.800  0.00  0.00     0.001 A 
HETATM  104  C   UNK N   1      20.820  13.197   7.133  0.00  0.00     0.000 A 
HETATM  105  C   UNK N   1      21.792  14.195   7.232  0.00  0.00     0.001 A 
HETATM  106  C   UNK N   1      23.130  13.891   6.967  0.00  0.00     0.007 A 
ENDBRANCH 100 101
ENDBRANCH  21 100
TORSDOF 28
ENDMDL
MODEL 5
REMARK VINA RESULT:      -6.7      2.301     11.018
REMARK  28 active torsions:
REMARK  status: ('A' for Active; 'I' for Inactive)
REMARK    1  A    between atoms: O_15  and  C_81 
REMARK       I    between atoms: N_18  and  C_39 
REMARK       I    between atoms: N_19  and  C_38 
REMARK    2  A    between atoms: C_41  and  N_19 
REMARK       I    between atoms: N_21  and  C_45 
REMARK    3  A    between atoms: N_21  and  C_52 
REMARK    4  A    between atoms: N_23  and  C_50 
REMARK    5  A    between atoms: C_57  and  N_27 
REMARK       I    between atoms: N_27  and  C_70 
REMARK       I    between atoms: N_28  and  C_56 
REMARK       I    between atoms: N_29  and  C_61 
REMARK       I    between atoms: N_30  and  C_68 
REMARK    6  A    between atoms: N_31  and  C_73 
REMARK       I    between atoms: N_31  and  C_82 
REMARK    7  A    between atoms: N_32  and  C_83 
REMARK       I    between atoms: N_32  and  C_84 
REMARK    8  A    between atoms: N_33  and  C_85 
REMARK    9  A    between atoms: C_34  and  C_38 
REMARK   10  A    between atoms: C_40  and  C_39 
REMARK   11  A    between atoms: C_41  and  C_43 
REMARK   12  A    between atoms: C_41  and  C_45 
REMARK   13  A    between atoms: C_43  and  C_44 
REMARK   14  A    between atoms: C_44  and  C_48 
REMARK   15  A    between atoms: C_47  and  C_49 
REMARK   16  A    between atoms: C_48  and  C_50 
REMARK   17  A    between atoms: C_49  and  C_56 
REMARK   18  A    between atoms: C_51  and  C_55 
REMARK   19  A    between atoms: C_52  and  C_61 
REMARK   20  A    between atoms: C_55  and  C_62 
REMARK   21  A    between atoms: C_58  and  C_64 
REMARK   22  A    between atoms: C_60  and  C_66 
REMARK   23  A    between atoms: C_62  and  C_68 
REMARK   24  A    between atoms: C_64  and  C_67 
REMARK   25  A    between atoms: C_66  and  C_69 
REMARK   26  A    between atoms: C_70  and  C_73 
REMARK   27  A    between atoms: C_82  and  C_83 
REMARK   28  A    between atoms: C_84  and  C_85 
ROOT
HETATM    1  S   UNK N   1      32.829  12.647   3.366  0.00  0.00    -0.095 SA
HETATM    2  S   UNK N   1      33.544  10.795   4.103  0.00  0.00    -0.095 SA
HETATM    3  O   UNK N   1      31.803  14.617   8.406  0.00  0.00    -0.271 OA
HETATM    4  O   UNK N   1      35.520  12.372   8.657  0.00  0.00    -0.271 OA
HETATM    5  O   UNK N   1      34.194   9.982   7.771  0.00  0.00    -0.271 OA
HETATM    6  O   UNK N   1      32.039   7.150   3.589  0.00  0.00    -0.271 OA
HETATM    7  O   UNK N   1      34.254   5.473   7.558  0.00  0.00    -0.271 OA
HETATM    8  N   UNK N   1      33.504  13.848   7.141  0.00  0.00    -0.345 N 
HETATM    9  N   UNK N   1      33.993  13.123  10.118  0.00  0.00    -0.346 N 
HETATM   10  N   UNK N   1      33.743   9.972   9.968  0.00  0.00    -0.346 N 
HETATM   11  N   UNK N   1      33.313   7.251   8.499  0.00  0.00    -0.346 N 
HETATM   12  N   UNK N   1      32.615   7.779   5.659  0.00  0.00    -0.346 N 
HETATM   13  C   UNK N   1      32.726  13.579   5.945  0.00  0.00     0.186 C 
HETATM   14  C   UNK N   1      33.653  13.489   4.744  0.00  0.00     0.120 C 
HETATM   15  C   UNK N   1      32.983  14.318   8.312  0.00  0.00     0.241 C 
HETATM   16  C   UNK N   1      33.832  14.432   9.527  0.00  0.00     0.185 C 
HETATM   17  C   UNK N   1      34.860  10.829  10.292  0.00  0.00     0.177 C 
HETATM   18  C   UNK N   1      34.798  12.155   9.620  0.00  0.00     0.241 C 
HETATM   19  C   UNK N   1      31.971  10.444   4.949  0.00  0.00     0.120 C 
HETATM   20  C   UNK N   1      31.288   9.254   4.289  0.00  0.00     0.186 C 
HETATM   21  C   UNK N   1      32.541   8.467   8.418  0.00  0.00     0.180 C 
HETATM   22  C   UNK N   1      33.496   9.579   8.690  0.00  0.00     0.241 C 
HETATM   23  C   UNK N   1      32.593   6.461   6.221  0.00  0.00     0.180 C 
HETATM   24  C   UNK N   1      32.144   8.044   4.416  0.00  0.00     0.242 C 
HETATM   25  C   UNK N   1      33.455   6.389   7.461  0.00  0.00     0.241 C 
HETATM   26  H   UNK N   1      34.473  13.679   7.105  0.00  0.00     0.163 HD
HETATM   27  H   UNK N   1      33.484  12.922  10.937  0.00  0.00     0.163 HD
HETATM   28  H   UNK N   1      33.146   9.666  10.689  0.00  0.00     0.163 HD
HETATM   29  H   UNK N   1      33.759   7.037   9.349  0.00  0.00     0.163 HD
HETATM   30  H   UNK N   1      32.986   8.518   6.194  0.00  0.00     0.163 HD
ENDROOT
BRANCH  13  31
HETATM   31  C   UNK N   1      31.692  14.643   5.731  0.00  0.00     0.244 C 
HETATM   32  O   UNK N   1      30.522  14.376   5.930  0.00  0.00    -0.271 OA
HETATM   33  N   UNK N   1      32.066  15.850   5.211  0.00  0.00    -0.337 N 
HETATM   34  C   UNK N   1      31.124  16.859   4.824  0.00  0.00     0.179 C 
HETATM   35  C   UNK N   1      33.427  16.243   5.027  0.00  0.00     0.127 C 
HETATM   36  C   UNK N   1      31.934  17.899   4.081  0.00  0.00     0.037 C 
HETATM   37  C   UNK N   1      33.340  17.716   4.638  0.00  0.00     0.022 C 
BRANCH  34  38
HETATM   38  C   UNK N   1      29.934  16.347   4.073  0.00  0.00     0.241 C 
HETATM   39  O   UNK N   1      30.072  15.461   3.243  0.00  0.00    -0.271 OA
HETATM   40  N   UNK N   1      28.685  16.811   4.349  0.00  0.00    -0.346 N 
HETATM   41  H   UNK N   1      27.952  16.423   3.818  0.00  0.00     0.163 HD
BRANCH  40  42
HETATM   42  C   UNK N   1      28.297  17.818   5.341  0.00  0.00     0.176 C 
BRANCH  42  43
HETATM   43  C   UNK N   1      27.232  18.881   4.935  0.00  0.00     0.035 C 
BRANCH  43  44
HETATM   44  C   UNK N   1      27.789  20.312   4.900  0.00  0.00     0.004 C 
BRANCH  44  45
HETATM   45  C   UNK N   1      27.748  21.023   6.235  0.00  0.00     0.019 C 
BRANCH  45  46
HETATM   46  C   UNK N   1      26.288  21.282   6.567  0.00  0.00     0.111 C 
BRANCH  46  47
HETATM   47  N   UNK N   1      26.022  20.952   7.953  0.00  0.00    -0.430 N 
HETATM   48  H   UNK N   1      25.610  20.058   8.222  0.00  0.00     0.149 HD
HETATM   49  H   UNK N   1      26.252  21.630   8.679  0.00  0.00     0.149 HD
ENDBRANCH  46  47
ENDBRANCH  45  46
ENDBRANCH  44  45
ENDBRANCH  43  44
ENDBRANCH  42  43
BRANCH  42  50
HETATM   50  C   UNK N   1      27.864  17.131   6.585  0.00  0.00     0.240 C 
HETATM   51  O   UNK N   1      27.544  15.952   6.554  0.00  0.00    -0.271 OA
HETATM   52  N   UNK N   1      27.953  17.802   7.757  0.00  0.00    -0.351 N 
HETATM   53  H   UNK N   1      28.073  18.779   7.732  0.00  0.00     0.163 HD
BRANCH  52  54
HETATM   54  C   UNK N   1      27.881  17.150   9.029  0.00  0.00     0.225 C 
BRANCH  54  55
HETATM   55  C   UNK N   1      29.207  17.354   9.686  0.00  0.00     0.233 C 
HETATM   56  O   UNK N   1      30.050  18.056   9.153  0.00  0.00    -0.272 OA
HETATM   57  N   UNK N   1      29.519  16.653  10.793  0.00  0.00    -0.369 N 
HETATM   58  H   UNK N   1      29.901  16.129  11.534  0.00  0.00     0.159 HD
HETATM   59  H   UNK N   1      28.623  16.727  11.196  0.00  0.00     0.159 HD
ENDBRANCH  54  55
ENDBRANCH  52  54
ENDBRANCH  42  50
ENDBRANCH  40  42
ENDBRANCH  34  38
ENDBRANCH  13  31
BRANCH  16  60
HETATM   60  C   UNK N   1      35.153  15.166   9.264  0.00  0.00     0.137 C 
BRANCH  60  61
HETATM   61  C   UNK N   1      35.537  16.084  10.382  0.00  0.00     0.217 C 
HETATM   62  O   UNK N   1      34.976  17.159  10.521  0.00  0.00    -0.274 OA
HETATM   63  N   UNK N   1      36.480  15.705  11.265  0.00  0.00    -0.370 N 
HETATM   64  H   UNK N   1      37.154  15.027  11.029  0.00  0.00     0.159 HD
HETATM   65  H   UNK N   1      36.495  16.111  12.162  0.00  0.00     0.159 HD
ENDBRANCH  60  61
ENDBRANCH  16  60
BRANCH  20  66
HETATM   66  N   UNK N   1      30.166   8.824   5.072  0.00  0.00    -0.346 N 
HETATM   67  C   UNK N   1      28.875   8.805   4.722  0.00  0.00     0.236 C 
HETATM   68  O   UNK N   1      28.128   8.064   5.347  0.00  0.00    -0.272 OA
HETATM   69  H   UNK N   1      30.372   8.502   5.980  0.00  0.00     0.163 HD
BRANCH  67  70
HETATM   70  C   UNK N   1      28.297   9.739   3.695  0.00  0.00     0.225 C 
BRANCH  70  71
HETATM   71  N   UNK N   1      28.041  10.942   4.441  0.00  0.00    -0.351 N 
HETATM   72  C   UNK N   1      28.456  12.154   4.036  0.00  0.00     0.235 C 
HETATM   73  O   UNK N   1      29.414  12.274   3.292  0.00  0.00    -0.272 OA
HETATM   74  H   UNK N   1      27.540  10.874   5.285  0.00  0.00     0.163 HD
BRANCH  72  75
HETATM   75  C   UNK N   1      27.516  13.294   4.230  0.00  0.00     0.225 C 
BRANCH  75  76
HETATM   76  N   UNK N   1      27.349  13.917   2.927  0.00  0.00    -0.351 N 
HETATM   77  C   UNK N   1      26.301  14.739   2.646  0.00  0.00     0.235 C 
HETATM   78  O   UNK N   1      26.264  15.330   1.578  0.00  0.00    -0.272 OA
HETATM   79  H   UNK N   1      28.017  13.740   2.225  0.00  0.00     0.163 HD
BRANCH  77  80
HETATM   80  C   UNK N   1      25.189  14.936   3.630  0.00  0.00     0.214 C 
BRANCH  80  81
HETATM   81  N   UNK N   1      24.965  16.356   3.837  0.00  0.00    -0.422 N 
HETATM   82  H   UNK N   1      25.672  17.048   3.590  0.00  0.00     0.150 HD
HETATM   83  H   UNK N   1      24.080  16.667   4.237  0.00  0.00     0.150 HD
ENDBRANCH  80  81
ENDBRANCH  77  80
ENDBRANCH  75  76
ENDBRANCH  72  75
ENDBRANCH  70  71
ENDBRANCH  67  70
ENDBRANCH  20  66
BRANCH  17  84
HETATM   84  C   UNK N   1      35.014  11.006  11.797  0.00  0.00     0.044 C 
BRANCH  84  85
HETATM   85  C   UNK N   1      36.313  11.723  12.141  0.00  0.00     0.105 C 
BRANCH  85  86
HETATM   86  C   UNK N   1      36.085  12.877  13.070  0.00  0.00     0.215 C 
HETATM   87  O   UNK N   1      35.052  13.524  13.010  0.00  0.00    -0.274 OA
HETATM   88  N   UNK N   1      37.045  13.224  13.946  0.00  0.00    -0.370 N 
HETATM   89  H   UNK N   1      37.064  13.461  14.901  0.00  0.00     0.159 HD
HETATM   90  H   UNK N   1      37.940  13.246  13.535  0.00  0.00     0.159 HD
ENDBRANCH  85  86
ENDBRANCH  84  85
ENDBRANCH  17  84
BRANCH  23  91
HETATM   91  C   UNK N   1      31.131   6.142   6.605  0.00  0.00     0.073 C 
BRANCH  91  92
HETATM   92  C   UNK N   1      30.940   4.678   6.490  0.00  0.00    -0.056 A 
HETATM   93  C   UNK N   1      30.756   3.926   7.649  0.00  0.00     0.010 A 
HETATM   94  C   UNK N   1      30.303   2.612   7.557  0.00  0.00     0.037 A 
HETATM   95  C   UNK N   1      30.008   2.062   6.307  0.00  0.00     0.065 A 
HETATM   96  C   UNK N   1      30.217   2.807   5.142  0.00  0.00     0.037 A 
HETATM   97  C   UNK N   1      30.679   4.119   5.233  0.00  0.00     0.010 A 
BRANCH  95  98
HETATM   98  O   UNK N   1      29.507   0.821   6.226  0.00  0.00    -0.361 OA
HETATM   99  H   UNK N   1      29.168   0.497   5.415  0.00  0.00     0.217 HD
ENDBRANCH  95  98
ENDBRANCH  91  92
ENDBRANCH  23  91
BRANCH  21 100
HETATM  100  C   UNK N   1      31.324   8.431   9.334  0.00  0.00     0.073 C 
BRANCH 100 101
HETATM  101  C   UNK N   1      31.206   7.116  10.041  0.00  0.00    -0.056 A 
HETATM  102  C   UNK N   1      29.962   6.486  10.179  0.00  0.00     0.007 A 
HETATM  103  C   UNK N   1      29.859   5.283  10.883  0.00  0.00     0.001 A 
HETATM  104  C   UNK N   1      31.001   4.710  11.451  0.00  0.00     0.000 A 
HETATM  105  C   UNK N   1      32.246   5.323  11.299  0.00  0.00     0.001 A 
HETATM  106  C   UNK N   1      32.347   6.530  10.602  0.00  0.00     0.007 A 
ENDBRANCH 100 101
ENDBRANCH  21 100
TORSDOF 28
ENDMDL
MODEL 6
REMARK VINA RESULT:      -6.7      1.612      2.129
REMARK  28 active torsions:
REMARK  status: ('A' for Active; 'I' for Inactive)
REMARK    1  A    between atoms: O_15  and  C_81 
REMARK       I    between atoms: N_18  and  C_39 
REMARK       I    between atoms: N_19  and  C_38 
REMARK    2  A    between atoms: C_41  and  N_19 
REMARK       I    between atoms: N_21  and  C_45 
REMARK    3  A    between atoms: N_21  and  C_52 
REMARK    4  A    between atoms: N_23  and  C_50 
REMARK    5  A    between atoms: C_57  and  N_27 
REMARK       I    between atoms: N_27  and  C_70 
REMARK       I    between atoms: N_28  and  C_56 
REMARK       I    between atoms: N_29  and  C_61 
REMARK       I    between atoms: N_30  and  C_68 
REMARK    6  A    between atoms: N_31  and  C_73 
REMARK       I    between atoms: N_31  and  C_82 
REMARK    7  A    between atoms: N_32  and  C_83 
REMARK       I    between atoms: N_32  and  C_84 
REMARK    8  A    between atoms: N_33  and  C_85 
REMARK    9  A    between atoms: C_34  and  C_38 
REMARK   10  A    between atoms: C_40  and  C_39 
REMARK   11  A    between atoms: C_41  and  C_43 
REMARK   12  A    between atoms: C_41  and  C_45 
REMARK   13  A    between atoms: C_43  and  C_44 
REMARK   14  A    between atoms: C_44  and  C_48 
REMARK   15  A    between atoms: C_47  and  C_49 
REMARK   16  A    between atoms: C_48  and  C_50 
REMARK   17  A    between atoms: C_49  and  C_56 
REMARK   18  A    between atoms: C_51  and  C_55 
REMARK   19  A    between atoms: C_52  and  C_61 
REMARK   20  A    between atoms: C_55  and  C_62 
REMARK   21  A    between atoms: C_58  and  C_64 
REMARK   22  A    between atoms: C_60  and  C_66 
REMARK   23  A    between atoms: C_62  and  C_68 
REMARK   24  A    between atoms: C_64  and  C_67 
REMARK   25  A    between atoms: C_66  and  C_69 
REMARK   26  A    between atoms: C_70  and  C_73 
REMARK   27  A    between atoms: C_82  and  C_83 
REMARK   28  A    between atoms: C_84  and  C_85 
ROOT
HETATM    1  S   UNK N   1      34.401  13.543   5.863  0.00  0.00    -0.095 SA
HETATM    2  S   UNK N   1      32.886  14.148   4.513  0.00  0.00    -0.095 SA
HETATM    3  O   UNK N   1      31.304   9.543   8.040  0.00  0.00    -0.271 OA
HETATM    4  O   UNK N   1      30.506   9.575   3.764  0.00  0.00    -0.271 OA
HETATM    5  O   UNK N   1      29.607  12.301   3.903  0.00  0.00    -0.271 OA
HETATM    6  O   UNK N   1      30.939  17.610   4.327  0.00  0.00    -0.271 OA
HETATM    7  O   UNK N   1      27.214  15.604   1.968  0.00  0.00    -0.271 OA
HETATM    8  N   UNK N   1      32.191  10.194   6.071  0.00  0.00    -0.345 N 
HETATM    9  N   UNK N   1      29.485   8.755   5.585  0.00  0.00    -0.346 N 
HETATM   10  N   UNK N   1      27.760  11.175   4.497  0.00  0.00    -0.346 N 
HETATM   11  N   UNK N   1      27.303  14.140   3.636  0.00  0.00    -0.346 N 
HETATM   12  N   UNK N   1      29.748  15.717   4.243  0.00  0.00    -0.346 N 
HETATM   13  C   UNK N   1      32.851  11.390   6.563  0.00  0.00     0.186 C 
HETATM   14  C   UNK N   1      33.931  11.815   5.582  0.00  0.00     0.120 C 
HETATM   15  C   UNK N   1      31.427   9.363   6.839  0.00  0.00     0.241 C 
HETATM   16  C   UNK N   1      30.676   8.239   6.220  0.00  0.00     0.185 C 
HETATM   17  C   UNK N   1      28.196   9.950   3.866  0.00  0.00     0.177 C 
HETATM   18  C   UNK N   1      29.480   9.432   4.412  0.00  0.00     0.241 C 
HETATM   19  C   UNK N   1      31.719  14.492   5.867  0.00  0.00     0.120 C 
HETATM   20  C   UNK N   1      31.442  15.988   5.938  0.00  0.00     0.186 C 
HETATM   21  C   UNK N   1      27.920  13.619   4.831  0.00  0.00     0.180 C 
HETATM   22  C   UNK N   1      28.513  12.306   4.448  0.00  0.00     0.241 C 
HETATM   23  C   UNK N   1      28.542  16.326   3.767  0.00  0.00     0.180 C 
HETATM   24  C   UNK N   1      30.807  16.446   4.672  0.00  0.00     0.242 C 
HETATM   25  C   UNK N   1      27.667  15.315   3.062  0.00  0.00     0.241 C 
HETATM   26  H   UNK N   1      32.302   9.967   5.120  0.00  0.00     0.163 HD
HETATM   27  H   UNK N   1      28.622   8.604   6.034  0.00  0.00     0.163 HD
HETATM   28  H   UNK N   1      26.899  11.190   4.973  0.00  0.00     0.163 HD
HETATM   29  H   UNK N   1      26.583  13.618   3.216  0.00  0.00     0.163 HD
HETATM   30  H   UNK N   1      29.810  14.734   4.258  0.00  0.00     0.163 HD
ENDROOT
BRANCH  13  31
HETATM   31  C   UNK N   1      33.439  11.154   7.921  0.00  0.00     0.244 C 
HETATM   32  O   UNK N   1      33.067  11.844   8.851  0.00  0.00    -0.271 OA
HETATM   33  N   UNK N   1      34.457  10.254   8.067  0.00  0.00    -0.337 N 
HETATM   34  C   UNK N   1      35.182  10.088   9.292  0.00  0.00     0.179 C 
HETATM   35  C   UNK N   1      34.883   9.369   7.030  0.00  0.00     0.127 C 
HETATM   36  C   UNK N   1      36.357   9.198   8.945  0.00  0.00     0.037 C 
HETATM   37  C   UNK N   1      35.869   8.432   7.722  0.00  0.00     0.022 C 
BRANCH  34  38
HETATM   38  C   UNK N   1      35.555  11.368   9.975  0.00  0.00     0.241 C 
HETATM   39  O   UNK N   1      36.179  12.224   9.368  0.00  0.00    -0.271 OA
HETATM   40  N   UNK N   1      35.151  11.619  11.251  0.00  0.00    -0.346 N 
HETATM   41  H   UNK N   1      35.429  12.483  11.630  0.00  0.00     0.163 HD
BRANCH  40  42
HETATM   42  C   UNK N   1      34.349  10.759  12.127  0.00  0.00     0.176 C 
BRANCH  42  43
HETATM   43  C   UNK N   1      34.759   9.261  12.264  0.00  0.00     0.035 C 
BRANCH  43  44
HETATM   44  C   UNK N   1      36.156   9.069  12.872  0.00  0.00     0.004 C 
BRANCH  44  45
HETATM   45  C   UNK N   1      36.199   8.084  14.021  0.00  0.00     0.019 C 
BRANCH  45  46
HETATM   46  C   UNK N   1      36.993   8.730  15.143  0.00  0.00     0.111 C 
BRANCH  46  47
HETATM   47  N   UNK N   1      36.141   9.608  15.921  0.00  0.00    -0.430 N 
HETATM   48  H   UNK N   1      35.135   9.454  15.993  0.00  0.00     0.149 HD
HETATM   49  H   UNK N   1      36.557  10.400  16.410  0.00  0.00     0.149 HD
ENDBRANCH  46  47
ENDBRANCH  45  46
ENDBRANCH  44  45
ENDBRANCH  43  44
ENDBRANCH  42  43
BRANCH  42  50
HETATM   50  C   UNK N   1      34.273  11.378  13.475  0.00  0.00     0.240 C 
HETATM   51  O   UNK N   1      33.696  10.800  14.383  0.00  0.00    -0.271 OA
HETATM   52  N   UNK N   1      34.957  12.524  13.697  0.00  0.00    -0.351 N 
HETATM   53  H   UNK N   1      35.286  13.034  12.922  0.00  0.00     0.163 HD
BRANCH  52  54
HETATM   54  C   UNK N   1      35.222  13.024  15.012  0.00  0.00     0.225 C 
BRANCH  54  55
HETATM   55  C   UNK N   1      36.700  13.217  15.102  0.00  0.00     0.233 C 
HETATM   56  O   UNK N   1      37.446  12.254  15.036  0.00  0.00    -0.272 OA
HETATM   57  N   UNK N   1      37.200  14.434  15.396  0.00  0.00    -0.369 N 
HETATM   58  H   UNK N   1      37.675  15.239  15.705  0.00  0.00     0.159 HD
HETATM   59  H   UNK N   1      36.555  14.926  14.837  0.00  0.00     0.159 HD
ENDBRANCH  54  55
ENDBRANCH  52  54
ENDBRANCH  42  50
ENDBRANCH  40  42
ENDBRANCH  34  38
ENDBRANCH  13  31
BRANCH  16  60
HETATM   60  C   UNK N   1      31.548   7.372   5.303  0.00  0.00     0.137 C 
BRANCH  60  61
HETATM   61  C   UNK N   1      31.780   5.999   5.852  0.00  0.00     0.217 C 
HETATM   62  O   UNK N   1      32.360   5.156   5.187  0.00  0.00    -0.274 OA
HETATM   63  N   UNK N   1      31.381   5.704   7.104  0.00  0.00    -0.370 N 
HETATM   64  H   UNK N   1      30.664   6.215   7.543  0.00  0.00     0.159 HD
HETATM   65  H   UNK N   1      31.815   4.964   7.588  0.00  0.00     0.159 HD
ENDBRANCH  60  61
ENDBRANCH  16  60
BRANCH  20  66
HETATM   66  N   UNK N   1      30.363  16.254   6.844  0.00  0.00    -0.346 N 
HETATM   67  C   UNK N   1      30.166  17.345   7.593  0.00  0.00     0.236 C 
HETATM   68  O   UNK N   1      29.030  17.561   7.994  0.00  0.00    -0.272 OA
HETATM   69  H   UNK N   1      29.683  15.546   6.925  0.00  0.00     0.163 HD
BRANCH  67  70
HETATM   70  C   UNK N   1      31.292  18.226   8.060  0.00  0.00     0.225 C 
BRANCH  70  71
HETATM   71  N   UNK N   1      32.277  17.289   8.534  0.00  0.00    -0.351 N 
HETATM   72  C   UNK N   1      33.591  17.426   8.291  0.00  0.00     0.235 C 
HETATM   73  O   UNK N   1      33.989  18.055   7.326  0.00  0.00    -0.272 OA
HETATM   74  H   UNK N   1      31.973  16.515   9.061  0.00  0.00     0.163 HD
BRANCH  72  75
HETATM   75  C   UNK N   1      34.526  17.097   9.403  0.00  0.00     0.225 C 
BRANCH  75  76
HETATM   76  N   UNK N   1      33.988  15.917  10.060  0.00  0.00    -0.351 N 
HETATM   77  C   UNK N   1      34.656  15.276  11.058  0.00  0.00     0.235 C 
HETATM   78  O   UNK N   1      34.116  14.360  11.658  0.00  0.00    -0.272 OA
HETATM   79  H   UNK N   1      33.111  15.571   9.776  0.00  0.00     0.163 HD
BRANCH  77  80
HETATM   80  C   UNK N   1      36.049  15.678  11.437  0.00  0.00     0.214 C 
BRANCH  80  81
HETATM   81  N   UNK N   1      37.002  14.753  10.851  0.00  0.00    -0.422 N 
HETATM   82  H   UNK N   1      36.827  14.308   9.950  0.00  0.00     0.150 HD
HETATM   83  H   UNK N   1      37.866  14.544  11.352  0.00  0.00     0.150 HD
ENDBRANCH  80  81
ENDBRANCH  77  80
ENDBRANCH  75  76
ENDBRANCH  72  75
ENDBRANCH  70  71
ENDBRANCH  67  70
ENDBRANCH  20  66
BRANCH  17  84
HETATM   84  C   UNK N   1      27.122   8.873   3.928  0.00  0.00     0.044 C 
BRANCH  84  85
HETATM   85  C   UNK N   1      25.800   9.435   4.437  0.00  0.00     0.105 C 
BRANCH  85  86
HETATM   86  C   UNK N   1      24.727   9.372   3.393  0.00  0.00     0.215 C 
HETATM   87  O   UNK N   1      24.640  10.244   2.543  0.00  0.00    -0.274 OA
HETATM   88  N   UNK N   1      23.832   8.369   3.420  0.00  0.00    -0.370 N 
HETATM   89  H   UNK N   1      23.443   7.763   2.748  0.00  0.00     0.159 HD
HETATM   90  H   UNK N   1      23.482   8.200   4.325  0.00  0.00     0.159 HD
ENDBRANCH  85  86
ENDBRANCH  84  85
ENDBRANCH  17  84
BRANCH  23  91
HETATM   91  C   UNK N   1      27.783  16.880   4.993  0.00  0.00     0.073 C 
BRANCH  91  92
HETATM   92  C   UNK N   1      26.981  18.041   4.546  0.00  0.00    -0.056 A 
HETATM   93  C   UNK N   1      27.634  19.221   4.196  0.00  0.00     0.010 A 
HETATM   94  C   UNK N   1      26.942  20.222   3.518  0.00  0.00     0.037 A 
HETATM   95  C   UNK N   1      25.604  20.028   3.166  0.00  0.00     0.065 A 
HETATM   96  C   UNK N   1      24.940  18.855   3.539  0.00  0.00     0.037 A 
HETATM   97  C   UNK N   1      25.630  17.857   4.226  0.00  0.00     0.010 A 
BRANCH  95  98
HETATM   98  O   UNK N   1      24.960  20.963   2.453  0.00  0.00    -0.361 OA
HETATM   99  H   UNK N   1      25.068  21.871   2.654  0.00  0.00     0.217 HD
ENDBRANCH  95  98
ENDBRANCH  91  92
ENDBRANCH  23  91
BRANCH  21 100
HETATM  100  C   UNK N   1      26.942  13.562   5.999  0.00  0.00     0.073 C 
BRANCH 100 101
HETATM  101  C   UNK N   1      25.545  13.877   5.562  0.00  0.00    -0.056 A 
HETATM  102  C   UNK N   1      24.922  13.126   4.556  0.00  0.00     0.007 A 
HETATM  103  C   UNK N   1      23.635  13.461   4.124  0.00  0.00     0.001 A 
HETATM  104  C   UNK N   1      22.971  14.549   4.698  0.00  0.00     0.000 A 
HETATM  105  C   UNK N   1      23.578  15.287   5.716  0.00  0.00     0.001 A 
HETATM  106  C   UNK N   1      24.868  14.957   6.141  0.00  0.00     0.007 A 
ENDBRANCH 100 101
ENDBRANCH  21 100
TORSDOF 28
ENDMDL
MODEL 7
REMARK VINA RESULT:      -6.5      2.282     11.184
REMARK  28 active torsions:
REMARK  status: ('A' for Active; 'I' for Inactive)
REMARK    1  A    between atoms: O_15  and  C_81 
REMARK       I    between atoms: N_18  and  C_39 
REMARK       I    between atoms: N_19  and  C_38 
REMARK    2  A    between atoms: C_41  and  N_19 
REMARK       I    between atoms: N_21  and  C_45 
REMARK    3  A    between atoms: N_21  and  C_52 
REMARK    4  A    between atoms: N_23  and  C_50 
REMARK    5  A    between atoms: C_57  and  N_27 
REMARK       I    between atoms: N_27  and  C_70 
REMARK       I    between atoms: N_28  and  C_56 
REMARK       I    between atoms: N_29  and  C_61 
REMARK       I    between atoms: N_30  and  C_68 
REMARK    6  A    between atoms: N_31  and  C_73 
REMARK       I    between atoms: N_31  and  C_82 
REMARK    7  A    between atoms: N_32  and  C_83 
REMARK       I    between atoms: N_32  and  C_84 
REMARK    8  A    between atoms: N_33  and  C_85 
REMARK    9  A    between atoms: C_34  and  C_38 
REMARK   10  A    between atoms: C_40  and  C_39 
REMARK   11  A    between atoms: C_41  and  C_43 
REMARK   12  A    between atoms: C_41  and  C_45 
REMARK   13  A    between atoms: C_43  and  C_44 
REMARK   14  A    between atoms: C_44  and  C_48 
REMARK   15  A    between atoms: C_47  and  C_49 
REMARK   16  A    between atoms: C_48  and  C_50 
REMARK   17  A    between atoms: C_49  and  C_56 
REMARK   18  A    between atoms: C_51  and  C_55 
REMARK   19  A    between atoms: C_52  and  C_61 
REMARK   20  A    between atoms: C_55  and  C_62 
REMARK   21  A    between atoms: C_58  and  C_64 
REMARK   22  A    between atoms: C_60  and  C_66 
REMARK   23  A    between atoms: C_62  and  C_68 
REMARK   24  A    between atoms: C_64  and  C_67 
REMARK   25  A    between atoms: C_66  and  C_69 
REMARK   26  A    between atoms: C_70  and  C_73 
REMARK   27  A    between atoms: C_82  and  C_83 
REMARK   28  A    between atoms: C_84  and  C_85 
ROOT
HETATM    1  S   UNK N   1      32.832  12.549   3.337  0.00  0.00    -0.095 SA
HETATM    2  S   UNK N   1      33.649  10.765   4.134  0.00  0.00    -0.095 SA
HETATM    3  O   UNK N   1      31.652  14.605   8.308  0.00  0.00    -0.271 OA
HETATM    4  O   UNK N   1      35.494  12.592   8.650  0.00  0.00    -0.271 OA
HETATM    5  O   UNK N   1      34.317  10.103   7.828  0.00  0.00    -0.271 OA
HETATM    6  O   UNK N   1      32.366   7.025   3.722  0.00  0.00    -0.271 OA
HETATM    7  O   UNK N   1      34.645   5.600   7.753  0.00  0.00    -0.271 OA
HETATM    8  N   UNK N   1      33.406  13.900   7.077  0.00  0.00    -0.345 N 
HETATM    9  N   UNK N   1      33.913  13.295  10.078  0.00  0.00    -0.346 N 
HETATM   10  N   UNK N   1      33.851  10.131  10.022  0.00  0.00    -0.346 N 
HETATM   11  N   UNK N   1      33.594   7.347   8.634  0.00  0.00    -0.346 N 
HETATM   12  N   UNK N   1      32.888   7.748   5.775  0.00  0.00    -0.346 N 
HETATM   13  C   UNK N   1      32.654  13.550   5.885  0.00  0.00     0.186 C 
HETATM   14  C   UNK N   1      33.594  13.479   4.693  0.00  0.00     0.120 C 
HETATM   15  C   UNK N   1      32.849  14.374   8.230  0.00  0.00     0.241 C 
HETATM   16  C   UNK N   1      33.680  14.574   9.446  0.00  0.00     0.185 C 
HETATM   17  C   UNK N   1      34.913  11.063  10.327  0.00  0.00     0.177 C 
HETATM   18  C   UNK N   1      34.778  12.362   9.614  0.00  0.00     0.241 C 
HETATM   19  C   UNK N   1      32.093  10.347   4.981  0.00  0.00     0.120 C 
HETATM   20  C   UNK N   1      31.487   9.100   4.353  0.00  0.00     0.186 C 
HETATM   21  C   UNK N   1      32.752   8.512   8.511  0.00  0.00     0.180 C 
HETATM   22  C   UNK N   1      33.637   9.687   8.755  0.00  0.00     0.241 C 
HETATM   23  C   UNK N   1      32.939   6.449   6.377  0.00  0.00     0.180 C 
HETATM   24  C   UNK N   1      32.412   7.947   4.522  0.00  0.00     0.242 C 
HETATM   25  C   UNK N   1      33.794   6.464   7.623  0.00  0.00     0.241 C 
HETATM   26  H   UNK N   1      34.384  13.788   7.053  0.00  0.00     0.163 HD
HETATM   27  H   UNK N   1      33.411  13.089  10.899  0.00  0.00     0.163 HD
HETATM   28  H   UNK N   1      33.268   9.812  10.748  0.00  0.00     0.163 HD
HETATM   29  H   UNK N   1      34.045   7.186   9.493  0.00  0.00     0.163 HD
HETATM   30  H   UNK N   1      33.210   8.523   6.289  0.00  0.00     0.163 HD
ENDROOT
BRANCH  13  31
HETATM   31  C   UNK N   1      31.562  14.544   5.633  0.00  0.00     0.244 C 
HETATM   32  O   UNK N   1      30.404  14.185   5.734  0.00  0.00    -0.271 OA
HETATM   33  N   UNK N   1      31.880  15.796   5.187  0.00  0.00    -0.337 N 
HETATM   34  C   UNK N   1      30.895  16.749   4.767  0.00  0.00     0.179 C 
HETATM   35  C   UNK N   1      33.217  16.294   5.120  0.00  0.00     0.127 C 
HETATM   36  C   UNK N   1      31.676  17.875   4.124  0.00  0.00     0.037 C 
HETATM   37  C   UNK N   1      33.047  17.772   4.779  0.00  0.00     0.022 C 
BRANCH  34  38
HETATM   38  C   UNK N   1      29.804  16.183   3.910  0.00  0.00     0.241 C 
HETATM   39  O   UNK N   1      30.078  15.659   2.841  0.00  0.00    -0.271 OA
HETATM   40  N   UNK N   1      28.512  16.187   4.337  0.00  0.00    -0.346 N 
HETATM   41  H   UNK N   1      27.852  15.792   3.722  0.00  0.00     0.163 HD
BRANCH  40  42
HETATM   42  C   UNK N   1      27.983  16.705   5.603  0.00  0.00     0.176 C 
BRANCH  42  43
HETATM   43  C   UNK N   1      28.188  18.216   5.922  0.00  0.00     0.035 C 
BRANCH  43  44
HETATM   44  C   UNK N   1      28.446  18.491   7.411  0.00  0.00     0.004 C 
BRANCH  44  45
HETATM   45  C   UNK N   1      29.376  17.495   8.070  0.00  0.00     0.019 C 
BRANCH  45  46
HETATM   46  C   UNK N   1      30.375  18.286   8.897  0.00  0.00     0.111 C 
BRANCH  46  47
HETATM   47  N   UNK N   1      31.696  17.700   8.783  0.00  0.00    -0.430 N 
HETATM   48  H   UNK N   1      32.504  18.250   8.491  0.00  0.00     0.149 HD
HETATM   49  H   UNK N   1      31.822  16.711   9.001  0.00  0.00     0.149 HD
ENDBRANCH  46  47
ENDBRANCH  45  46
ENDBRANCH  44  45
ENDBRANCH  43  44
ENDBRANCH  42  43
BRANCH  42  50
HETATM   50  C   UNK N   1      26.539  16.367   5.699  0.00  0.00     0.240 C 
HETATM   51  O   UNK N   1      25.795  16.586   4.755  0.00  0.00    -0.271 OA
HETATM   52  N   UNK N   1      26.104  15.706   6.796  0.00  0.00    -0.351 N 
HETATM   53  H   UNK N   1      26.686  15.674   7.589  0.00  0.00     0.163 HD
BRANCH  52  54
HETATM   54  C   UNK N   1      24.833  15.051   6.850  0.00  0.00     0.225 C 
BRANCH  54  55
HETATM   55  C   UNK N   1      25.034  13.798   7.638  0.00  0.00     0.233 C 
HETATM   56  O   UNK N   1      25.480  13.857   8.772  0.00  0.00    -0.272 OA
HETATM   57  N   UNK N   1      24.857  12.600   7.048  0.00  0.00    -0.369 N 
HETATM   58  H   UNK N   1      24.863  11.678   6.704  0.00  0.00     0.159 HD
HETATM   59  H   UNK N   1      24.061  12.875   6.536  0.00  0.00     0.159 HD
ENDBRANCH  54  55
ENDBRANCH  52  54
ENDBRANCH  42  50
ENDBRANCH  40  42
ENDBRANCH  34  38
ENDBRANCH  13  31
BRANCH  16  60
HETATM   60  C   UNK N   1      34.958  15.376   9.169  0.00  0.00     0.137 C 
BRANCH  60  61
HETATM   61  C   UNK N   1      34.975  16.698   9.873  0.00  0.00     0.217 C 
HETATM   62  O   UNK N   1      34.769  17.730   9.255  0.00  0.00    -0.274 OA
HETATM   63  N   UNK N   1      35.180  16.744  11.202  0.00  0.00    -0.370 N 
HETATM   64  H   UNK N   1      35.644  16.014  11.671  0.00  0.00     0.159 HD
HETATM   65  H   UNK N   1      34.859  17.522  11.714  0.00  0.00     0.159 HD
ENDBRANCH  60  61
ENDBRANCH  16  60
BRANCH  20  66
HETATM   66  N   UNK N   1      30.386   8.628   5.142  0.00  0.00    -0.346 N 
HETATM   67  C   UNK N   1      29.254   8.053   4.718  0.00  0.00     0.236 C 
HETATM   68  O   UNK N   1      28.624   7.379   5.522  0.00  0.00    -0.272 OA
HETATM   69  H   UNK N   1      30.475   8.740   6.116  0.00  0.00     0.163 HD
BRANCH  67  70
HETATM   70  C   UNK N   1      28.674   8.307   3.354  0.00  0.00     0.225 C 
BRANCH  70  71
HETATM   71  N   UNK N   1      28.446   9.728   3.346  0.00  0.00    -0.351 N 
HETATM   72  C   UNK N   1      27.284  10.284   3.728  0.00  0.00     0.235 C 
HETATM   73  O   UNK N   1      26.241   9.655   3.678  0.00  0.00    -0.272 OA
HETATM   74  H   UNK N   1      29.174  10.319   3.047  0.00  0.00     0.163 HD
BRANCH  72  75
HETATM   75  C   UNK N   1      27.360  11.537   4.530  0.00  0.00     0.225 C 
BRANCH  75  76
HETATM   76  N   UNK N   1      27.631  12.613   3.591  0.00  0.00    -0.351 N 
HETATM   77  C   UNK N   1      26.663  13.475   3.177  0.00  0.00     0.235 C 
HETATM   78  O   UNK N   1      26.961  14.432   2.479  0.00  0.00    -0.272 OA
HETATM   79  H   UNK N   1      28.546  12.722   3.244  0.00  0.00     0.163 HD
BRANCH  77  80
HETATM   80  C   UNK N   1      25.231  13.273   3.569  0.00  0.00     0.214 C 
BRANCH  80  81
HETATM   81  N   UNK N   1      24.432  14.390   3.097  0.00  0.00    -0.422 N 
HETATM   82  H   UNK N   1      23.432  14.295   2.926  0.00  0.00     0.150 HD
HETATM   83  H   UNK N   1      24.883  15.290   2.934  0.00  0.00     0.150 HD
ENDBRANCH  80  81
ENDBRANCH  77  80
ENDBRANCH  75  76
ENDBRANCH  72  75
ENDBRANCH  70  71
ENDBRANCH  67  70
ENDBRANCH  20  66
BRANCH  17  84
HETATM   84  C   UNK N   1      35.045  11.293  11.826  0.00  0.00     0.044 C 
BRANCH  84  85
HETATM   85  C   UNK N   1      36.316  12.063  12.160  0.00  0.00     0.105 C 
BRANCH  85  86
HETATM   86  C   UNK N   1      36.025  13.314  12.933  0.00  0.00     0.215 C 
HETATM   87  O   UNK N   1      34.967  13.904  12.780  0.00  0.00    -0.274 OA
HETATM   88  N   UNK N   1      36.955  13.809  13.769  0.00  0.00    -0.370 N 
HETATM   89  H   UNK N   1      36.948  14.165  14.687  0.00  0.00     0.159 HD
HETATM   90  H   UNK N   1      37.855  13.817  13.369  0.00  0.00     0.159 HD
ENDBRANCH  85  86
ENDBRANCH  84  85
ENDBRANCH  17  84
BRANCH  23  91
HETATM   91  C   UNK N   1      31.496   6.055   6.762  0.00  0.00     0.073 C 
BRANCH  91  92
HETATM   92  C   UNK N   1      31.370   4.587   6.615  0.00  0.00    -0.056 A 
HETATM   93  C   UNK N   1      31.301   3.795   7.760  0.00  0.00     0.010 A 
HETATM   94  C   UNK N   1      30.909   2.463   7.659  0.00  0.00     0.037 A 
HETATM   95  C   UNK N   1      30.559   1.932   6.415  0.00  0.00     0.065 A 
HETATM   96  C   UNK N   1      30.653   2.717   5.262  0.00  0.00     0.037 A 
HETATM   97  C   UNK N   1      31.054   4.049   5.362  0.00  0.00     0.010 A 
BRANCH  95  98
HETATM   98  O   UNK N   1      30.116   0.669   6.330  0.00  0.00    -0.361 OA
HETATM   99  H   UNK N   1      29.267   0.441   6.654  0.00  0.00     0.217 HD
ENDBRANCH  95  98
ENDBRANCH  91  92
ENDBRANCH  23  91
BRANCH  21 100
HETATM  100  C   UNK N   1      31.532   8.432   9.421  0.00  0.00     0.073 C 
BRANCH 100 101
HETATM  101  C   UNK N   1      31.486   7.134  10.166  0.00  0.00    -0.056 A 
HETATM  102  C   UNK N   1      32.641   6.605  10.757  0.00  0.00     0.007 A 
HETATM  103  C   UNK N   1      32.593   5.369  11.408  0.00  0.00     0.001 A 
HETATM  104  C   UNK N   1      31.390   4.661  11.467  0.00  0.00     0.000 A 
HETATM  105  C   UNK N   1      30.231   5.192  10.898  0.00  0.00     0.001 A 
HETATM  106  C   UNK N   1      30.281   6.424  10.240  0.00  0.00     0.007 A 
ENDBRANCH 100 101
ENDBRANCH  21 100
TORSDOF 28
ENDMDL
MODEL 8
REMARK VINA RESULT:      -6.4      2.806      4.711
REMARK  28 active torsions:
REMARK  status: ('A' for Active; 'I' for Inactive)
REMARK    1  A    between atoms: O_15  and  C_81 
REMARK       I    between atoms: N_18  and  C_39 
REMARK       I    between atoms: N_19  and  C_38 
REMARK    2  A    between atoms: C_41  and  N_19 
REMARK       I    between atoms: N_21  and  C_45 
REMARK    3  A    between atoms: N_21  and  C_52 
REMARK    4  A    between atoms: N_23  and  C_50 
REMARK    5  A    between atoms: C_57  and  N_27 
REMARK       I    between atoms: N_27  and  C_70 
REMARK       I    between atoms: N_28  and  C_56 
REMARK       I    between atoms: N_29  and  C_61 
REMARK       I    between atoms: N_30  and  C_68 
REMARK    6  A    between atoms: N_31  and  C_73 
REMARK       I    between atoms: N_31  and  C_82 
REMARK    7  A    between atoms: N_32  and  C_83 
REMARK       I    between atoms: N_32  and  C_84 
REMARK    8  A    between atoms: N_33  and  C_85 
REMARK    9  A    between atoms: C_34  and  C_38 
REMARK   10  A    between atoms: C_40  and  C_39 
REMARK   11  A    between atoms: C_41  and  C_43 
REMARK   12  A    between atoms: C_41  and  C_45 
REMARK   13  A    between atoms: C_43  and  C_44 
REMARK   14  A    between atoms: C_44  and  C_48 
REMARK   15  A    between atoms: C_47  and  C_49 
REMARK   16  A    between atoms: C_48  and  C_50 
REMARK   17  A    between atoms: C_49  and  C_56 
REMARK   18  A    between atoms: C_51  and  C_55 
REMARK   19  A    between atoms: C_52  and  C_61 
REMARK   20  A    between atoms: C_55  and  C_62 
REMARK   21  A    between atoms: C_58  and  C_64 
REMARK   22  A    between atoms: C_60  and  C_66 
REMARK   23  A    between atoms: C_62  and  C_68 
REMARK   24  A    between atoms: C_64  and  C_67 
REMARK   25  A    between atoms: C_66  and  C_69 
REMARK   26  A    between atoms: C_70  and  C_73 
REMARK   27  A    between atoms: C_82  and  C_83 
REMARK   28  A    between atoms: C_84  and  C_85 
ROOT
HETATM    1  S   UNK N   1      30.689  12.823   1.766  0.00  0.00    -0.095 SA
HETATM    2  S   UNK N   1      28.586  12.732   1.534  0.00  0.00    -0.095 SA
HETATM    3  O   UNK N   1      30.658   9.555   6.199  0.00  0.00    -0.271 OA
HETATM    4  O   UNK N   1      27.705   7.961   3.431  0.00  0.00    -0.271 OA
HETATM    5  O   UNK N   1      26.248  10.438   3.484  0.00  0.00    -0.271 OA
HETATM    6  O   UNK N   1      25.909  15.658   1.817  0.00  0.00    -0.271 OA
HETATM    7  O   UNK N   1      22.321  12.539   2.746  0.00  0.00    -0.271 OA
HETATM    8  N   UNK N   1      30.088   9.549   4.018  0.00  0.00    -0.345 N 
HETATM    9  N   UNK N   1      28.141   7.741   5.621  0.00  0.00    -0.346 N 
HETATM   10  N   UNK N   1      25.465   9.403   5.313  0.00  0.00    -0.346 N 
HETATM   11  N   UNK N   1      23.739  11.791   4.283  0.00  0.00    -0.346 N 
HETATM   12  N   UNK N   1      25.505  13.741   2.901  0.00  0.00    -0.346 N 
HETATM   13  C   UNK N   1      30.508  10.907   3.723  0.00  0.00     0.186 C 
HETATM   14  C   UNK N   1      30.693  11.069   2.223  0.00  0.00     0.120 C 
HETATM   15  C   UNK N   1      30.157   8.970   5.252  0.00  0.00     0.241 C 
HETATM   16  C   UNK N   1      29.575   7.623   5.490  0.00  0.00     0.185 C 
HETATM   17  C   UNK N   1      25.836   8.089   4.839  0.00  0.00     0.177 C 
HETATM   18  C   UNK N   1      27.295   7.948   4.583  0.00  0.00     0.241 C 
HETATM   19  C   UNK N   1      28.302  13.407   3.200  0.00  0.00     0.120 C 
HETATM   20  C   UNK N   1      27.669  14.788   3.092  0.00  0.00     0.186 C 
HETATM   21  C   UNK N   1      25.029  11.806   4.929  0.00  0.00     0.180 C 
HETATM   22  C   UNK N   1      25.685  10.517   4.566  0.00  0.00     0.241 C 
HETATM   23  C   UNK N   1      24.117  14.002   3.142  0.00  0.00     0.180 C 
HETATM   24  C   UNK N   1      26.346  14.688   2.418  0.00  0.00     0.242 C 
HETATM   25  C   UNK N   1      23.357  12.714   3.364  0.00  0.00     0.241 C 
HETATM   26  H   UNK N   1      29.727   9.010   3.277  0.00  0.00     0.163 HD
HETATM   27  H   UNK N   1      27.754   7.668   6.523  0.00  0.00     0.163 HD
HETATM   28  H   UNK N   1      25.043   9.493   6.199  0.00  0.00     0.163 HD
HETATM   29  H   UNK N   1      23.106  11.077   4.520  0.00  0.00     0.163 HD
HETATM   30  H   UNK N   1      25.861  12.843   3.091  0.00  0.00     0.163 HD
ENDROOT
BRANCH  13  31
HETATM   31  C   UNK N   1      31.777  11.241   4.447  0.00  0.00     0.244 C 
HETATM   32  O   UNK N   1      31.780  12.174   5.229  0.00  0.00    -0.271 OA
HETATM   33  N   UNK N   1      32.927  10.572   4.135  0.00  0.00    -0.337 N 
HETATM   34  C   UNK N   1      34.210  10.939   4.659  0.00  0.00     0.179 C 
HETATM   35  C   UNK N   1      32.967   9.427   3.282  0.00  0.00     0.127 C 
HETATM   36  C   UNK N   1      35.212  10.119   3.873  0.00  0.00     0.037 C 
HETATM   37  C   UNK N   1      34.399   8.916   3.413  0.00  0.00     0.022 C 
BRANCH  34  38
HETATM   38  C   UNK N   1      34.484  12.411   4.666  0.00  0.00     0.241 C 
HETATM   39  O   UNK N   1      34.606  13.015   3.611  0.00  0.00    -0.271 OA
HETATM   40  N   UNK N   1      34.535  13.103   5.838  0.00  0.00    -0.346 N 
HETATM   41  H   UNK N   1      34.713  14.068   5.762  0.00  0.00     0.163 HD
BRANCH  40  42
HETATM   42  C   UNK N   1      34.355  12.586   7.198  0.00  0.00     0.176 C 
BRANCH  42  43
HETATM   43  C   UNK N   1      35.628  12.233   8.025  0.00  0.00     0.035 C 
BRANCH  43  44
HETATM   44  C   UNK N   1      35.744  10.736   8.348  0.00  0.00     0.004 C 
BRANCH  44  45
HETATM   45  C   UNK N   1      34.430   9.988   8.289  0.00  0.00     0.019 C 
BRANCH  45  46
HETATM   46  C   UNK N   1      34.648   8.753   7.432  0.00  0.00     0.111 C 
BRANCH  46  47
HETATM   47  N   UNK N   1      33.377   8.237   6.961  0.00  0.00    -0.430 N 
HETATM   48  H   UNK N   1      33.122   8.258   5.974  0.00  0.00     0.149 HD
HETATM   49  H   UNK N   1      32.721   7.842   7.635  0.00  0.00     0.149 HD
ENDBRANCH  46  47
ENDBRANCH  45  46
ENDBRANCH  44  45
ENDBRANCH  43  44
ENDBRANCH  42  43
BRANCH  42  50
HETATM   50  C   UNK N   1      33.507  13.532   7.968  0.00  0.00     0.240 C 
HETATM   51  O   UNK N   1      33.823  13.853   9.103  0.00  0.00    -0.271 OA
HETATM   52  N   UNK N   1      32.461  14.116   7.340  0.00  0.00    -0.351 N 
HETATM   53  H   UNK N   1      32.150  13.735   6.487  0.00  0.00     0.163 HD
BRANCH  52  54
HETATM   54  C   UNK N   1      31.788  15.266   7.864  0.00  0.00     0.225 C 
BRANCH  54  55
HETATM   55  C   UNK N   1      30.968  15.823   6.748  0.00  0.00     0.233 C 
HETATM   56  O   UNK N   1      30.666  17.004   6.744  0.00  0.00    -0.272 OA
HETATM   57  N   UNK N   1      30.447  14.994   5.822  0.00  0.00    -0.369 N 
HETATM   58  H   UNK N   1      29.931  14.486   5.155  0.00  0.00     0.159 HD
HETATM   59  H   UNK N   1      31.246  14.421   5.762  0.00  0.00     0.159 HD
ENDBRANCH  54  55
ENDBRANCH  52  54
ENDBRANCH  42  50
ENDBRANCH  40  42
ENDBRANCH  34  38
ENDBRANCH  13  31
BRANCH  16  60
HETATM   60  C   UNK N   1      30.024   6.588   4.451  0.00  0.00     0.137 C 
BRANCH  60  61
HETATM   61  C   UNK N   1      29.756   5.180   4.884  0.00  0.00     0.217 C 
HETATM   62  O   UNK N   1      29.199   4.396   4.131  0.00  0.00    -0.274 OA
HETATM   63  N   UNK N   1      30.167   4.763   6.095  0.00  0.00    -0.370 N 
HETATM   64  H   UNK N   1      30.326   5.403   6.826  0.00  0.00     0.159 HD
HETATM   65  H   UNK N   1      30.313   3.802   6.253  0.00  0.00     0.159 HD
ENDBRANCH  60  61
ENDBRANCH  16  60
BRANCH  20  66
HETATM   66  N   UNK N   1      27.234  15.240   4.382  0.00  0.00    -0.346 N 
HETATM   67  C   UNK N   1      27.133  16.500   4.822  0.00  0.00     0.236 C 
HETATM   68  O   UNK N   1      26.396  16.710   5.777  0.00  0.00    -0.272 OA
HETATM   69  H   UNK N   1      26.979  14.537   5.022  0.00  0.00     0.163 HD
BRANCH  67  70
HETATM   70  C   UNK N   1      27.974  17.622   4.279  0.00  0.00     0.225 C 
BRANCH  70  71
HETATM   71  N   UNK N   1      28.468  18.275   5.463  0.00  0.00    -0.351 N 
HETATM   72  C   UNK N   1      28.148  19.538   5.788  0.00  0.00     0.235 C 
HETATM   73  O   UNK N   1      27.808  20.339   4.934  0.00  0.00    -0.272 OA
HETATM   74  H   UNK N   1      29.067  17.773   6.061  0.00  0.00     0.163 HD
BRANCH  72  75
HETATM   75  C   UNK N   1      27.881  19.825   7.225  0.00  0.00     0.225 C 
BRANCH  75  76
HETATM   76  N   UNK N   1      27.506  18.560   7.836  0.00  0.00    -0.351 N 
HETATM   77  C   UNK N   1      28.132  18.076   8.943  0.00  0.00     0.235 C 
HETATM   78  O   UNK N   1      27.708  17.069   9.488  0.00  0.00    -0.272 OA
HETATM   79  H   UNK N   1      26.773  18.037   7.436  0.00  0.00     0.163 HD
BRANCH  77  80
HETATM   80  C   UNK N   1      29.337  18.764   9.511  0.00  0.00     0.214 C 
BRANCH  80  81
HETATM   81  N   UNK N   1      30.386  17.790   9.755  0.00  0.00    -0.422 N 
HETATM   82  H   UNK N   1      30.303  16.826   9.433  0.00  0.00     0.150 HD
HETATM   83  H   UNK N   1      31.224  18.077  10.260  0.00  0.00     0.150 HD
ENDBRANCH  80  81
ENDBRANCH  77  80
ENDBRANCH  75  76
ENDBRANCH  72  75
ENDBRANCH  70  71
ENDBRANCH  67  70
ENDBRANCH  20  66
BRANCH  17  84
HETATM   84  C   UNK N   1      25.355   6.995   5.782  0.00  0.00     0.044 C 
BRANCH  84  85
HETATM   85  C   UNK N   1      24.613   7.577   6.977  0.00  0.00     0.105 C 
BRANCH  85  86
HETATM   86  C   UNK N   1      23.642   6.597   7.563  0.00  0.00     0.215 C 
HETATM   87  O   UNK N   1      22.516   6.490   7.103  0.00  0.00    -0.274 OA
HETATM   88  N   UNK N   1      24.004   5.862   8.630  0.00  0.00    -0.370 N 
HETATM   89  H   UNK N   1      23.922   4.914   8.883  0.00  0.00     0.159 HD
HETATM   90  H   UNK N   1      24.457   6.398   9.321  0.00  0.00     0.159 HD
ENDBRANCH  85  86
ENDBRANCH  84  85
ENDBRANCH  17  84
BRANCH  23  91
HETATM   91  C   UNK N   1      24.019  14.870   4.415  0.00  0.00     0.073 C 
BRANCH  91  92
HETATM   92  C   UNK N   1      22.797  15.699   4.308  0.00  0.00    -0.056 A 
HETATM   93  C   UNK N   1      22.880  16.955   3.709  0.00  0.00     0.010 A 
HETATM   94  C   UNK N   1      21.716  17.630   3.349  0.00  0.00     0.037 A 
HETATM   95  C   UNK N   1      20.470  17.033   3.563  0.00  0.00     0.065 A 
HETATM   96  C   UNK N   1      20.385  15.785   4.186  0.00  0.00     0.037 A 
HETATM   97  C   UNK N   1      21.550  15.113   4.556  0.00  0.00     0.010 A 
BRANCH  95  98
HETATM   98  O   UNK N   1      19.355  17.654   3.152  0.00  0.00    -0.361 OA
HETATM   99  H   UNK N   1      18.671  17.852   3.760  0.00  0.00     0.217 HD
ENDBRANCH  95  98
ENDBRANCH  91  92
ENDBRANCH  23  91
BRANCH  21 100
HETATM  100  C   UNK N   1      24.913  12.064   6.427  0.00  0.00     0.073 C 
BRANCH 100 101
HETATM  101  C   UNK N   1      23.505  12.384   6.823  0.00  0.00    -0.056 A 
HETATM  102  C   UNK N   1      22.457  11.506   6.515  0.00  0.00     0.007 A 
HETATM  103  C   UNK N   1      21.141  11.840   6.848  0.00  0.00     0.001 A 
HETATM  104  C   UNK N   1      20.872  13.053   7.488  0.00  0.00     0.000 A 
HETATM  105  C   UNK N   1      21.915  13.922   7.815  0.00  0.00     0.001 A 
HETATM  106  C   UNK N   1      23.229  13.592   7.475  0.00  0.00     0.007 A 
ENDBRANCH 100 101
ENDBRANCH  21 100
TORSDOF 28
ENDMDL
MODEL 9
REMARK VINA RESULT:      -6.3      3.128      4.828
REMARK  28 active torsions:
REMARK  status: ('A' for Active; 'I' for Inactive)
REMARK    1  A    between atoms: O_15  and  C_81 
REMARK       I    between atoms: N_18  and  C_39 
REMARK       I    between atoms: N_19  and  C_38 
REMARK    2  A    between atoms: C_41  and  N_19 
REMARK       I    between atoms: N_21  and  C_45 
REMARK    3  A    between atoms: N_21  and  C_52 
REMARK    4  A    between atoms: N_23  and  C_50 
REMARK    5  A    between atoms: C_57  and  N_27 
REMARK       I    between atoms: N_27  and  C_70 
REMARK       I    between atoms: N_28  and  C_56 
REMARK       I    between atoms: N_29  and  C_61 
REMARK       I    between atoms: N_30  and  C_68 
REMARK    6  A    between atoms: N_31  and  C_73 
REMARK       I    between atoms: N_31  and  C_82 
REMARK    7  A    between atoms: N_32  and  C_83 
REMARK       I    between atoms: N_32  and  C_84 
REMARK    8  A    between atoms: N_33  and  C_85 
REMARK    9  A    between atoms: C_34  and  C_38 
REMARK   10  A    between atoms: C_40  and  C_39 
REMARK   11  A    between atoms: C_41  and  C_43 
REMARK   12  A    between atoms: C_41  and  C_45 
REMARK   13  A    between atoms: C_43  and  C_44 
REMARK   14  A    between atoms: C_44  and  C_48 
REMARK   15  A    between atoms: C_47  and  C_49 
REMARK   16  A    between atoms: C_48  and  C_50 
REMARK   17  A    between atoms: C_49  and  C_56 
REMARK   18  A    between atoms: C_51  and  C_55 
REMARK   19  A    between atoms: C_52  and  C_61 
REMARK   20  A    between atoms: C_55  and  C_62 
REMARK   21  A    between atoms: C_58  and  C_64 
REMARK   22  A    between atoms: C_60  and  C_66 
REMARK   23  A    between atoms: C_62  and  C_68 
REMARK   24  A    between atoms: C_64  and  C_67 
REMARK   25  A    between atoms: C_66  and  C_69 
REMARK   26  A    between atoms: C_70  and  C_73 
REMARK   27  A    between atoms: C_82  and  C_83 
REMARK   28  A    between atoms: C_84  and  C_85 
ROOT
HETATM    1  S   UNK N   1      33.245  16.816   4.040  0.00  0.00    -0.095 SA
HETATM    2  S   UNK N   1      31.378  16.780   3.040  0.00  0.00    -0.095 SA
HETATM    3  O   UNK N   1      33.340  11.352   4.725  0.00  0.00    -0.271 OA
HETATM    4  O   UNK N   1      31.694  12.102   0.769  0.00  0.00    -0.271 OA
HETATM    5  O   UNK N   1      29.545  13.637   1.902  0.00  0.00    -0.271 OA
HETATM    6  O   UNK N   1      27.909  18.365   4.163  0.00  0.00    -0.271 OA
HETATM    7  O   UNK N   1      25.395  15.328   1.347  0.00  0.00    -0.271 OA
HETATM    8  N   UNK N   1      33.268  12.910   3.097  0.00  0.00    -0.345 N 
HETATM    9  N   UNK N   1      31.713  10.377   2.203  0.00  0.00    -0.346 N 
HETATM   10  N   UNK N   1      28.772  11.541   2.104  0.00  0.00    -0.346 N 
HETATM   11  N   UNK N   1      26.627  13.792   2.377  0.00  0.00    -0.346 N 
HETATM   12  N   UNK N   1      27.923  16.246   3.439  0.00  0.00    -0.346 N 
HETATM   13  C   UNK N   1      33.283  14.073   3.965  0.00  0.00     0.186 C 
HETATM   14  C   UNK N   1      33.714  15.295   3.172  0.00  0.00     0.120 C 
HETATM   15  C   UNK N   1      33.261  11.617   3.536  0.00  0.00     0.241 C 
HETATM   16  C   UNK N   1      33.104  10.493   2.577  0.00  0.00     0.185 C 
HETATM   17  C   UNK N   1      29.633  11.027   1.064  0.00  0.00     0.177 C 
HETATM   18  C   UNK N   1      31.081  11.220   1.352  0.00  0.00     0.241 C 
HETATM   19  C   UNK N   1      30.553  15.994   4.460  0.00  0.00     0.120 C 
HETATM   20  C   UNK N   1      29.549  16.963   5.070  0.00  0.00     0.186 C 
HETATM   21  C   UNK N   1      27.680  13.417   3.288  0.00  0.00     0.180 C 
HETATM   22  C   UNK N   1      28.774  12.857   2.443  0.00  0.00     0.241 C 
HETATM   23  C   UNK N   1      26.506  16.150   3.248  0.00  0.00     0.180 C 
HETATM   24  C   UNK N   1      28.498  17.298   4.071  0.00  0.00     0.242 C 
HETATM   25  C   UNK N   1      26.169  15.064   2.252  0.00  0.00     0.241 C 
HETATM   26  H   UNK N   1      33.261  13.064   2.124  0.00  0.00     0.163 HD
HETATM   27  H   UNK N   1      31.191   9.638   2.593  0.00  0.00     0.163 HD
HETATM   28  H   UNK N   1      28.170  10.923   2.578  0.00  0.00     0.163 HD
HETATM   29  H   UNK N   1      26.220  13.092   1.818  0.00  0.00     0.163 HD
HETATM   30  H   UNK N   1      28.499  15.524   3.099  0.00  0.00     0.163 HD
ENDROOT
BRANCH  13  31
HETATM   31  C   UNK N   1      34.199  13.855   5.131  0.00  0.00     0.244 C 
HETATM   32  O   UNK N   1      35.375  13.621   4.921  0.00  0.00    -0.271 OA
HETATM   33  N   UNK N   1      33.681  13.809   6.395  0.00  0.00    -0.337 N 
HETATM   34  C   UNK N   1      34.457  13.443   7.544  0.00  0.00     0.179 C 
HETATM   35  C   UNK N   1      32.329  14.146   6.706  0.00  0.00     0.127 C 
HETATM   36  C   UNK N   1      33.456  13.277   8.667  0.00  0.00     0.037 C 
HETATM   37  C   UNK N   1      32.289  14.154   8.232  0.00  0.00     0.022 C 
BRANCH  34  38
HETATM   38  C   UNK N   1      35.360  12.266   7.339  0.00  0.00     0.241 C 
HETATM   39  O   UNK N   1      34.885  11.166   7.103  0.00  0.00    -0.271 OA
HETATM   40  N   UNK N   1      36.713  12.418   7.348  0.00  0.00    -0.346 N 
HETATM   41  H   UNK N   1      37.241  11.600   7.200  0.00  0.00     0.163 HD
BRANCH  40  42
HETATM   42  C   UNK N   1      37.480  13.651   7.550  0.00  0.00     0.176 C 
BRANCH  42  43
HETATM   43  C   UNK N   1      38.173  13.870   8.929  0.00  0.00     0.035 C 
BRANCH  43  44
HETATM   44  C   UNK N   1      37.210  14.367  10.018  0.00  0.00     0.004 C 
BRANCH  44  45
HETATM   45  C   UNK N   1      36.689  13.275  10.926  0.00  0.00     0.019 C 
BRANCH  45  46
HETATM   46  C   UNK N   1      35.629  13.895  11.820  0.00  0.00     0.111 C 
BRANCH  46  47
HETATM   47  N   UNK N   1      34.590  12.927  12.114  0.00  0.00    -0.430 N 
HETATM   48  H   UNK N   1      34.734  12.175  12.789  0.00  0.00     0.149 HD
HETATM   49  H   UNK N   1      33.693  12.999  11.635  0.00  0.00     0.149 HD
ENDBRANCH  46  47
ENDBRANCH  45  46
ENDBRANCH  44  45
ENDBRANCH  43  44
ENDBRANCH  42  43
BRANCH  42  50
HETATM   50  C   UNK N   1      38.484  13.781   6.463  0.00  0.00     0.240 C 
HETATM   51  O   UNK N   1      39.559  14.317   6.683  0.00  0.00    -0.271 OA
HETATM   52  N   UNK N   1      38.227  13.186   5.275  0.00  0.00    -0.351 N 
HETATM   53  H   UNK N   1      37.307  12.893   5.084  0.00  0.00     0.163 HD
BRANCH  52  54
HETATM   54  C   UNK N   1      39.238  12.966   4.286  0.00  0.00     0.225 C 
BRANCH  54  55
HETATM   55  C   UNK N   1      38.604  13.246   2.963  0.00  0.00     0.233 C 
HETATM   56  O   UNK N   1      39.296  13.566   2.011  0.00  0.00    -0.272 OA
HETATM   57  N   UNK N   1      37.261  13.282   2.858  0.00  0.00    -0.369 N 
HETATM   58  H   UNK N   1      36.306  13.438   2.680  0.00  0.00     0.159 HD
HETATM   59  H   UNK N   1      37.110  12.512   3.454  0.00  0.00     0.159 HD
ENDBRANCH  54  55
ENDBRANCH  52  54
ENDBRANCH  42  50
ENDBRANCH  40  42
ENDBRANCH  34  38
ENDBRANCH  13  31
BRANCH  16  60
HETATM   60  C   UNK N   1      34.066  10.586   1.386  0.00  0.00     0.137 C 
BRANCH  60  61
HETATM   61  C   UNK N   1      34.364   9.251   0.777  0.00  0.00     0.217 C 
HETATM   62  O   UNK N   1      34.566   9.149  -0.423  0.00  0.00    -0.274 OA
HETATM   63  N   UNK N   1      34.450   8.162   1.563  0.00  0.00    -0.370 N 
HETATM   64  H   UNK N   1      34.005   8.132   2.440  0.00  0.00     0.159 HD
HETATM   65  H   UNK N   1      34.967   7.382   1.255  0.00  0.00     0.159 HD
ENDBRANCH  60  61
ENDBRANCH  16  60
BRANCH  20  66
HETATM   66  N   UNK N   1      28.734  16.292   6.041  0.00  0.00    -0.346 N 
HETATM   67  C   UNK N   1      28.000  16.837   7.019  0.00  0.00     0.236 C 
HETATM   68  O   UNK N   1      27.091  16.165   7.487  0.00  0.00    -0.272 OA
HETATM   69  H   UNK N   1      28.713  15.309   5.982  0.00  0.00     0.163 HD
BRANCH  67  70
HETATM   70  C   UNK N   1      28.328  18.168   7.637  0.00  0.00     0.225 C 
BRANCH  70  71
HETATM   71  N   UNK N   1      29.764  18.226   7.568  0.00  0.00    -0.351 N 
HETATM   72  C   UNK N   1      30.545  18.305   8.657  0.00  0.00     0.235 C 
HETATM   73  O   UNK N   1      30.120  18.769   9.702  0.00  0.00    -0.272 OA
HETATM   74  H   UNK N   1      30.193  18.206   6.682  0.00  0.00     0.163 HD
BRANCH  72  75
HETATM   75  C   UNK N   1      31.800  17.503   8.655  0.00  0.00     0.225 C 
BRANCH  75  76
HETATM   76  N   UNK N   1      32.858  18.392   8.205  0.00  0.00    -0.351 N 
HETATM   77  C   UNK N   1      34.176  18.085   8.353  0.00  0.00     0.235 C 
HETATM   78  O   UNK N   1      35.027  18.807   7.858  0.00  0.00    -0.272 OA
HETATM   79  H   UNK N   1      32.614  19.246   7.778  0.00  0.00     0.163 HD
BRANCH  77  80
HETATM   80  C   UNK N   1      34.603  16.866   9.114  0.00  0.00     0.214 C 
BRANCH  80  81
HETATM   81  N   UNK N   1      34.992  17.243  10.462  0.00  0.00    -0.422 N 
HETATM   82  H   UNK N   1      35.720  16.738  10.966  0.00  0.00     0.150 HD
HETATM   83  H   UNK N   1      34.525  18.030  10.913  0.00  0.00     0.150 HD
ENDBRANCH  80  81
ENDBRANCH  77  80
ENDBRANCH  75  76
ENDBRANCH  72  75
ENDBRANCH  70  71
ENDBRANCH  67  70
ENDBRANCH  20  66
BRANCH  17  84
HETATM   84  C   UNK N   1      29.343   9.562   0.766  0.00  0.00     0.044 C 
BRANCH  84  85
HETATM   85  C   UNK N   1      27.913   9.193   1.137  0.00  0.00     0.105 C 
BRANCH  85  86
HETATM   86  C   UNK N   1      27.863   8.027   2.078  0.00  0.00     0.215 C 
HETATM   87  O   UNK N   1      27.742   6.891   1.649  0.00  0.00    -0.274 OA
HETATM   88  N   UNK N   1      27.910   8.243   3.404  0.00  0.00    -0.370 N 
HETATM   89  H   UNK N   1      28.397   7.839   4.159  0.00  0.00     0.159 HD
HETATM   90  H   UNK N   1      27.319   8.978   3.688  0.00  0.00     0.159 HD
ENDBRANCH  85  86
ENDBRANCH  84  85
ENDBRANCH  17  84
BRANCH  23  91
HETATM   91  C   UNK N   1      25.874  15.796   4.611  0.00  0.00     0.073 C 
BRANCH  91  92
HETATM   92  C   UNK N   1      24.750  16.731   4.848  0.00  0.00    -0.056 A 
HETATM   93  C   UNK N   1      24.615  17.849   4.027  0.00  0.00     0.010 A 
HETATM   94  C   UNK N   1      23.433  18.584   4.046  0.00  0.00     0.037 A 
HETATM   95  C   UNK N   1      22.374  18.181   4.865  0.00  0.00     0.065 A 
HETATM   96  C   UNK N   1      22.518  17.074   5.707  0.00  0.00     0.037 A 
HETATM   97  C   UNK N   1      23.706  16.344   5.696  0.00  0.00     0.010 A 
BRANCH  95  98
HETATM   98  O   UNK N   1      21.212  18.849   4.829  0.00  0.00    -0.361 OA
HETATM   99  H   UNK N   1      20.881  19.183   4.019  0.00  0.00     0.217 HD
ENDBRANCH  95  98
ENDBRANCH  91  92
ENDBRANCH  23  91
BRANCH  21 100
HETATM  100  C   UNK N   1      27.179  12.484   4.384  0.00  0.00     0.073 C 
BRANCH 100 101
HETATM  101  C   UNK N   1      25.768  12.051   4.136  0.00  0.00    -0.056 A 
HETATM  102  C   UNK N   1      24.701  12.665   4.806  0.00  0.00     0.007 A 
HETATM  103  C   UNK N   1      23.393  12.218   4.600  0.00  0.00     0.001 A 
HETATM  104  C   UNK N   1      23.151  11.155   3.726  0.00  0.00     0.000 A 
HETATM  105  C   UNK N   1      24.208  10.552   3.040  0.00  0.00     0.001 A 
HETATM  106  C   UNK N   1      25.517  10.994   3.252  0.00  0.00     0.007 A 
ENDBRANCH 100 101
ENDBRANCH  21 100
TORSDOF 28
ENDMDL
