REMARK  9 active torsions:
REMARK  status: ('A' for Active; 'I' for Inactive)
REMARK    1  A    between atoms: C_14  and  O_1 
REMARK    2  A    between atoms: C_22  and  O_2 
REMARK    3  A    between atoms: O_2  and  C_31 
REMARK    4  A    between atoms: C_26  and  O_3 
REMARK    5  A    between atoms: O_4  and  C_30 
REMARK    6  A    between atoms: C_28  and  C_29 
REMARK    7  A    between atoms: C_28  and  C_30 
REMARK    8  A    between atoms: C_29  and  C_32 
REMARK    9  A    between atoms: C_32  and  C_34 
ROOT
HETATM    1  C   UNK N   1       5.818  -2.443  -0.311  0.00  0.00    -0.029 C 
HETATM    2  C   UNK N   1       4.538  -1.491  -0.326  0.00  0.00     0.032 C 
HETATM    3  C   UNK N   1       7.054  -1.722   0.338  0.00  0.00    -0.026 C 
HETATM    4  C   UNK N   1       3.207  -2.309  -0.581  0.00  0.00    -0.033 C 
HETATM    5  C   UNK N   1       3.119  -3.552   0.356  0.00  0.00     0.000 C 
HETATM    6  C   UNK N   1       7.030  -0.247  -0.050  0.00  0.00     0.029 C 
HETATM    7  C   UNK N   1       5.598  -3.748   0.481  0.00  0.00     0.011 C 
HETATM    8  C   UNK N   1       4.612  -0.498   0.882  0.00  0.00     0.124 C 
HETATM    9  C   UNK N   1       4.314  -4.474   0.138  0.00  0.00     0.007 C 
HETATM   10  C   UNK N   1       5.893   0.413   0.785  0.00  0.00     0.042 C 
HETATM   11  C   UNK N   1       8.410  -2.226  -0.096  0.00  0.00     0.047 C 
HETATM   12  C   UNK N   1       1.946  -1.447  -0.381  0.00  0.00     0.012 C 
HETATM   13  C   UNK N   1       1.806  -4.359   0.179  0.00  0.00     0.015 C 
HETATM   14  C   UNK N   1       6.138  -2.822  -1.762  0.00  0.00     0.016 C 
HETATM   15  C   UNK N   1       8.482   0.161   0.082  0.00  0.00    -0.033 C 
HETATM   16  C   UNK N   1       9.366  -1.071   0.210  0.00  0.00     0.163 C 
HETATM   17  C   UNK N   1       7.071  -1.853   1.888  0.00  0.00     0.016 C 
HETATM   18  C   UNK N   1       3.203  -2.746  -2.053  0.00  0.00     0.016 C 
HETATM   19  C   UNK N   1       0.648  -2.245  -0.576  0.00  0.00     0.033 C 
HETATM   20  C   UNK N   1       0.583  -3.458   0.358  0.00  0.00     0.122 C 
HETATM   21  C   UNK N   1       1.709  -5.118  -1.143  0.00  0.00     0.013 C 
HETATM   22  C   UNK N   1       8.917   1.462   0.060  0.00  0.00     0.021 C 
ENDROOT
BRANCH  16  23
HETATM   23  O   UNK N   1      10.419  -1.154  -0.677  0.00  0.00    -0.312 OA
BRANCH  23  24
HETATM   24  C   UNK N   1      11.359  -2.132  -0.560  0.00  0.00     0.255 C 
HETATM   25  O   UNK N   1      11.296  -2.961   0.339  0.00  0.00    -0.266 OA
HETATM   26  C   UNK N   1      12.489  -2.192  -1.525  0.00  0.00     0.126 C 
ENDBRANCH  23  24
ENDBRANCH  16  23
BRANCH  22  27
HETATM   27  C   UNK N   1       7.926   2.596   0.058  0.00  0.00     0.049 C 
BRANCH  27  28
HETATM   28  C   UNK N   1       7.075   2.775  -1.186  0.00  0.00     0.032 C 
BRANCH  28  29
HETATM   29  C   UNK N   1       5.894   3.629  -0.808  0.00  0.00    -0.024 C 
HETATM   30  C   UNK N   1       5.994   4.909  -0.411  0.00  0.00    -0.091 C 
HETATM   31  C   UNK N   1       4.763   5.642  -0.005  0.00  0.00     0.042 C 
HETATM   32  C   UNK N   1       7.310   5.616  -0.338  0.00  0.00     0.042 C 
ENDBRANCH  28  29
ENDBRANCH  27  28
ENDBRANCH  22  27
BRANCH  22  33
HETATM   33  C   UNK N   1      10.353   1.874   0.122  0.00  0.00     0.172 C 
HETATM   34  O   UNK N   1      11.252   1.058   0.236  0.00  0.00    -0.646 OA
BRANCH  33  35
HETATM   35  O   UNK N   1      10.672   3.179   0.033  0.00  0.00    -0.773 OA
HETATM   36  H   UNK N   1      11.570   3.441  -0.029  0.00  0.00     0.167 HD
ENDBRANCH  33  35
ENDBRANCH  22  33
BRANCH   8  37
HETATM   37  O   UNK N   1       3.502   0.344   0.949  0.00  0.00    -0.395 OA
HETATM   38  H   UNK N   1       3.623   1.305   0.995  0.00  0.00     0.210 HD
ENDBRANCH   8  37
BRANCH  20  39
HETATM   39  O   UNK N   1       0.483  -3.038   1.686  0.00  0.00    -0.395 OA
HETATM   40  H   UNK N   1       0.701  -2.832   2.608  0.00  0.00     0.210 HD
ENDBRANCH  20  39
TORSDOF 9
