MODEL 1
REMARK VINA RESULT:      -7.6      0.000      0.000
REMARK  9 active torsions:
REMARK  status: ('A' for Active; 'I' for Inactive)
REMARK    1  A    between atoms: C_14  and  O_1 
REMARK    2  A    between atoms: C_22  and  O_2 
REMARK    3  A    between atoms: O_2  and  C_31 
REMARK    4  A    between atoms: C_26  and  O_3 
REMARK    5  A    between atoms: O_4  and  C_30 
REMARK    6  A    between atoms: C_28  and  C_29 
REMARK    7  A    between atoms: C_28  and  C_30 
REMARK    8  A    between atoms: C_29  and  C_32 
REMARK    9  A    between atoms: C_32  and  C_34 
ROOT
HETATM    1  C   UNK N   1      27.065  26.437  -5.256  0.00  0.00    -0.029 C 
HETATM    2  C   UNK N   1      28.474  27.105  -4.916  0.00  0.00     0.032 C 
HETATM    3  C   UNK N   1      27.196  24.879  -5.403  0.00  0.00    -0.026 C 
HETATM    4  C   UNK N   1      28.302  28.578  -4.363  0.00  0.00    -0.033 C 
HETATM    5  C   UNK N   1      27.231  28.636  -3.231  0.00  0.00     0.000 C 
HETATM    6  C   UNK N   1      28.533  24.551  -6.061  0.00  0.00     0.029 C 
HETATM    7  C   UNK N   1      25.993  26.694  -4.178  0.00  0.00     0.011 C 
HETATM    8  C   UNK N   1      29.357  26.083  -4.124  0.00  0.00     0.124 C 
HETATM    9  C   UNK N   1      25.883  28.140  -3.743  0.00  0.00     0.007 C 
HETATM   10  C   UNK N   1      29.629  24.790  -4.981  0.00  0.00     0.042 C 
HETATM   11  C   UNK N   1      26.153  24.211  -6.268  0.00  0.00     0.047 C 
HETATM   12  C   UNK N   1      29.624  29.156  -3.824  0.00  0.00     0.012 C 
HETATM   13  C   UNK N   1      27.063  30.052  -2.621  0.00  0.00     0.015 C 
HETATM   14  C   UNK N   1      26.564  27.045  -6.572  0.00  0.00     0.016 C 
HETATM   15  C   UNK N   1      28.281  23.194  -6.682  0.00  0.00    -0.033 C 
HETATM   16  C   UNK N   1      26.791  22.885  -6.686  0.00  0.00     0.163 C 
HETATM   17  C   UNK N   1      27.094  24.143  -4.036  0.00  0.00     0.016 C 
HETATM   18  C   UNK N   1      27.887  29.472  -5.540  0.00  0.00     0.016 C 
HETATM   19  C   UNK N   1      29.457  30.566  -3.238  0.00  0.00     0.033 C 
HETATM   20  C   UNK N   1      28.404  30.596  -2.126  0.00  0.00     0.122 C 
HETATM   21  C   UNK N   1      26.399  31.062  -3.554  0.00  0.00     0.013 C 
HETATM   22  C   UNK N   1      29.269  22.387  -7.187  0.00  0.00     0.021 C 
ENDROOT
BRANCH  16  23
HETATM   23  O   UNK N   1      26.251  22.527  -7.904  0.00  0.00    -0.312 OA
BRANCH  23  24
HETATM   24  C   UNK N   1      25.205  21.659  -7.979  0.00  0.00     0.255 C 
HETATM   25  O   UNK N   1      24.065  22.063  -8.171  0.00  0.00    -0.266 OA
HETATM   26  C   UNK N   1      25.439  20.200  -7.813  0.00  0.00     0.126 C 
ENDBRANCH  23  24
ENDBRANCH  16  23
BRANCH  22  27
HETATM   27  C   UNK N   1      30.718  22.754  -7.005  0.00  0.00     0.049 C 
BRANCH  27  28
HETATM   28  C   UNK N   1      31.659  21.661  -6.532  0.00  0.00     0.032 C 
BRANCH  28  29
HETATM   29  C   UNK N   1      32.106  22.018  -5.139  0.00  0.00    -0.024 C 
HETATM   30  C   UNK N   1      31.484  21.599  -4.024  0.00  0.00    -0.091 C 
HETATM   31  C   UNK N   1      31.979  22.063  -2.698  0.00  0.00     0.042 C 
HETATM   32  C   UNK N   1      30.289  20.701  -4.073  0.00  0.00     0.042 C 
ENDBRANCH  28  29
ENDBRANCH  27  28
ENDBRANCH  22  27
BRANCH  22  33
HETATM   33  C   UNK N   1      29.026  21.076  -7.863  0.00  0.00     0.172 C 
HETATM   34  O   UNK N   1      29.065  20.021  -7.252  0.00  0.00    -0.646 OA
BRANCH  33  35
HETATM   35  O   UNK N   1      28.740  21.051  -9.178  0.00  0.00    -0.773 OA
HETATM   36  H   UNK N   1      28.026  20.532  -9.495  0.00  0.00     0.167 HD
ENDBRANCH  33  35
ENDBRANCH  22  33
BRANCH   8  37
HETATM   37  O   UNK N   1      30.595  26.616  -3.763  0.00  0.00    -0.395 OA
HETATM   38  H   UNK N   1      30.640  27.438  -3.252  0.00  0.00     0.210 HD
ENDBRANCH   8  37
BRANCH  20  39
HETATM   39  O   UNK N   1      28.846  29.862  -1.024  0.00  0.00    -0.395 OA
HETATM   40  H   UNK N   1      29.287  29.613  -0.197  0.00  0.00     0.210 HD
ENDBRANCH  20  39
TORSDOF 9
ENDMDL
MODEL 2
REMARK VINA RESULT:      -7.4      2.554      4.378
REMARK  9 active torsions:
REMARK  status: ('A' for Active; 'I' for Inactive)
REMARK    1  A    between atoms: C_14  and  O_1 
REMARK    2  A    between atoms: C_22  and  O_2 
REMARK    3  A    between atoms: O_2  and  C_31 
REMARK    4  A    between atoms: C_26  and  O_3 
REMARK    5  A    between atoms: O_4  and  C_30 
REMARK    6  A    between atoms: C_28  and  C_29 
REMARK    7  A    between atoms: C_28  and  C_30 
REMARK    8  A    between atoms: C_29  and  C_32 
REMARK    9  A    between atoms: C_32  and  C_34 
ROOT
HETATM    1  C   UNK N   1      28.677  24.170  -4.905  0.00  0.00    -0.029 C 
HETATM    2  C   UNK N   1      29.138  25.691  -5.032  0.00  0.00     0.032 C 
HETATM    3  C   UNK N   1      29.830  23.273  -4.328  0.00  0.00    -0.026 C 
HETATM    4  C   UNK N   1      27.901  26.663  -5.207  0.00  0.00    -0.033 C 
HETATM    5  C   UNK N   1      26.799  26.373  -4.142  0.00  0.00     0.000 C 
HETATM    6  C   UNK N   1      31.166  23.769  -4.873  0.00  0.00     0.029 C 
HETATM    7  C   UNK N   1      27.458  23.977  -3.978  0.00  0.00     0.011 C 
HETATM    8  C   UNK N   1      30.213  26.004  -3.937  0.00  0.00     0.124 C 
HETATM    9  C   UNK N   1      26.314  24.931  -4.251  0.00  0.00     0.007 C 
HETATM   10  C   UNK N   1      31.486  25.095  -4.122  0.00  0.00     0.042 C 
HETATM   11  C   UNK N   1      29.769  21.809  -4.695  0.00  0.00     0.047 C 
HETATM   12  C   UNK N   1      28.306  28.146  -5.110  0.00  0.00     0.012 C 
HETATM   13  C   UNK N   1      25.586  27.334  -4.241  0.00  0.00     0.015 C 
HETATM   14  C   UNK N   1      28.285  23.680  -6.304  0.00  0.00     0.016 C 
HETATM   15  C   UNK N   1      32.048  22.542  -4.775  0.00  0.00    -0.033 C 
HETATM   16  C   UNK N   1      31.202  21.305  -4.508  0.00  0.00     0.163 C 
HETATM   17  C   UNK N   1      29.867  23.280  -2.773  0.00  0.00     0.016 C 
HETATM   18  C   UNK N   1      27.344  26.458  -6.623  0.00  0.00     0.016 C 
HETATM   19  C   UNK N   1      27.104  29.095  -5.228  0.00  0.00     0.033 C 
HETATM   20  C   UNK N   1      26.038  28.794  -4.169  0.00  0.00     0.122 C 
HETATM   21  C   UNK N   1      24.711  27.116  -5.474  0.00  0.00     0.013 C 
HETATM   22  C   UNK N   1      33.410  22.564  -4.933  0.00  0.00     0.021 C 
ENDROOT
BRANCH  16  23
HETATM   23  O   UNK N   1      31.390  20.247  -5.373  0.00  0.00    -0.312 OA
BRANCH  23  24
HETATM   24  C   UNK N   1      31.049  20.348  -6.688  0.00  0.00     0.255 C 
HETATM   25  O   UNK N   1      31.808  20.866  -7.497  0.00  0.00    -0.266 OA
HETATM   26  C   UNK N   1      29.732  19.836  -7.152  0.00  0.00     0.126 C 
ENDBRANCH  23  24
ENDBRANCH  16  23
BRANCH  22  27
HETATM   27  C   UNK N   1      34.141  23.874  -5.065  0.00  0.00     0.049 C 
BRANCH  27  28
HETATM   28  C   UNK N   1      34.547  24.308  -6.461  0.00  0.00     0.032 C 
BRANCH  28  29
HETATM   29  C   UNK N   1      33.758  25.545  -6.799  0.00  0.00    -0.024 C 
HETATM   30  C   UNK N   1      32.704  25.555  -7.632  0.00  0.00    -0.091 C 
HETATM   31  C   UNK N   1      32.032  26.848  -7.939  0.00  0.00     0.042 C 
HETATM   32  C   UNK N   1      32.196  24.308  -8.284  0.00  0.00     0.042 C 
ENDBRANCH  28  29
ENDBRANCH  27  28
ENDBRANCH  22  27
BRANCH  22  33
HETATM   33  C   UNK N   1      34.284  21.350  -4.905  0.00  0.00     0.172 C 
HETATM   34  O   UNK N   1      34.887  21.015  -3.900  0.00  0.00    -0.646 OA
BRANCH  33  35
HETATM   35  O   UNK N   1      34.400  20.592  -6.012  0.00  0.00    -0.773 OA
HETATM   36  H   UNK N   1      35.246  20.409  -6.371  0.00  0.00     0.167 HD
ENDBRANCH  33  35
ENDBRANCH  22  33
BRANCH   8  37
HETATM   37  O   UNK N   1      30.637  27.332  -3.969  0.00  0.00    -0.395 OA
HETATM   38  H   UNK N   1      30.345  27.952  -3.283  0.00  0.00     0.210 HD
ENDBRANCH   8  37
BRANCH  20  39
HETATM   39  O   UNK N   1      26.529  29.084  -2.895  0.00  0.00    -0.395 OA
HETATM   40  H   UNK N   1      27.124  29.322  -2.167  0.00  0.00     0.210 HD
ENDBRANCH  20  39
TORSDOF 9
ENDMDL
MODEL 3
REMARK VINA RESULT:      -7.0     12.406     16.773
REMARK  9 active torsions:
REMARK  status: ('A' for Active; 'I' for Inactive)
REMARK    1  A    between atoms: C_14  and  O_1 
REMARK    2  A    between atoms: C_22  and  O_2 
REMARK    3  A    between atoms: O_2  and  C_31 
REMARK    4  A    between atoms: C_26  and  O_3 
REMARK    5  A    between atoms: O_4  and  C_30 
REMARK    6  A    between atoms: C_28  and  C_29 
REMARK    7  A    between atoms: C_28  and  C_30 
REMARK    8  A    between atoms: C_29  and  C_32 
REMARK    9  A    between atoms: C_32  and  C_34 
ROOT
HETATM    1  C   UNK N   1      33.488  14.708   6.442  0.00  0.00    -0.029 C 
HETATM    2  C   UNK N   1      33.260  15.071   7.978  0.00  0.00     0.032 C 
HETATM    3  C   UNK N   1      32.662  15.662   5.505  0.00  0.00    -0.026 C 
HETATM    4  C   UNK N   1      34.371  14.421   8.901  0.00  0.00    -0.033 C 
HETATM    5  C   UNK N   1      35.800  14.694   8.342  0.00  0.00     0.000 C 
HETATM    6  C   UNK N   1      31.326  15.979   6.170  0.00  0.00     0.029 C 
HETATM    7  C   UNK N   1      34.961  14.818   6.001  0.00  0.00     0.011 C 
HETATM    8  C   UNK N   1      32.945  16.599   8.112  0.00  0.00     0.124 C 
HETATM    9  C   UNK N   1      35.941  14.133   6.931  0.00  0.00     0.007 C 
HETATM   10  C   UNK N   1      31.633  16.975   7.328  0.00  0.00     0.042 C 
HETATM   11  C   UNK N   1      32.308  15.103   4.147  0.00  0.00     0.047 C 
HETATM   12  C   UNK N   1      34.298  14.937  10.351  0.00  0.00     0.012 C 
HETATM   13  C   UNK N   1      36.927  14.119   9.240  0.00  0.00     0.015 C 
HETATM   14  C   UNK N   1      33.041  13.256   6.232  0.00  0.00     0.016 C 
HETATM   15  C   UNK N   1      30.441  16.339   4.996  0.00  0.00    -0.033 C 
HETATM   16  C   UNK N   1      31.108  15.935   3.689  0.00  0.00     0.163 C 
HETATM   17  C   UNK N   1      33.416  16.986   5.193  0.00  0.00     0.016 C 
HETATM   18  C   UNK N   1      34.099  12.911   8.964  0.00  0.00     0.016 C 
HETATM   19  C   UNK N   1      35.404  14.351  11.242  0.00  0.00     0.033 C 
HETATM   20  C   UNK N   1      36.799  14.635  10.674  0.00  0.00     0.122 C 
HETATM   21  C   UNK N   1      37.016  12.594   9.237  0.00  0.00     0.013 C 
HETATM   22  C   UNK N   1      29.206  16.923   5.119  0.00  0.00     0.021 C 
ENDROOT
BRANCH  16  23
HETATM   23  O   UNK N   1      30.354  15.149   2.843  0.00  0.00    -0.312 OA
BRANCH  23  24
HETATM   24  C   UNK N   1      30.238  13.808   3.049  0.00  0.00     0.255 C 
HETATM   25  O   UNK N   1      30.856  13.010   2.356  0.00  0.00    -0.266 OA
HETATM   26  C   UNK N   1      29.339  13.298   4.118  0.00  0.00     0.126 C 
ENDBRANCH  23  24
ENDBRANCH  16  23
BRANCH  22  27
HETATM   27  C   UNK N   1      28.716  17.392   6.464  0.00  0.00     0.049 C 
BRANCH  27  28
HETATM   28  C   UNK N   1      27.338  18.027   6.521  0.00  0.00     0.032 C 
BRANCH  28  29
HETATM   29  C   UNK N   1      27.529  19.505   6.729  0.00  0.00    -0.024 C 
HETATM   30  C   UNK N   1      26.880  20.449   6.025  0.00  0.00    -0.091 C 
HETATM   31  C   UNK N   1      27.190  21.884   6.276  0.00  0.00     0.042 C 
HETATM   32  C   UNK N   1      25.872  20.103   4.976  0.00  0.00     0.042 C 
ENDBRANCH  28  29
ENDBRANCH  27  28
ENDBRANCH  22  27
BRANCH  22  33
HETATM   33  C   UNK N   1      28.295  17.222   3.972  0.00  0.00     0.172 C 
HETATM   34  O   UNK N   1      27.538  16.382   3.515  0.00  0.00    -0.646 OA
BRANCH  33  35
HETATM   35  O   UNK N   1      28.290  18.457   3.434  0.00  0.00    -0.773 OA
HETATM   36  H   UNK N   1      28.143  19.206   3.977  0.00  0.00     0.167 HD
ENDBRANCH  33  35
ENDBRANCH  22  33
BRANCH   8  37
HETATM   37  O   UNK N   1      32.769  16.993   9.439  0.00  0.00    -0.395 OA
HETATM   38  H   UNK N   1      32.436  16.359  10.094  0.00  0.00     0.210 HD
ENDBRANCH   8  37
BRANCH  20  39
HETATM   39  O   UNK N   1      37.067  16.004  10.721  0.00  0.00    -0.395 OA
HETATM   40  H   UNK N   1      37.159  16.917  11.035  0.00  0.00     0.210 HD
ENDBRANCH  20  39
TORSDOF 9
ENDMDL
MODEL 4
REMARK VINA RESULT:      -6.9      2.690      7.668
REMARK  9 active torsions:
REMARK  status: ('A' for Active; 'I' for Inactive)
REMARK    1  A    between atoms: C_14  and  O_1 
REMARK    2  A    between atoms: C_22  and  O_2 
REMARK    3  A    between atoms: O_2  and  C_31 
REMARK    4  A    between atoms: C_26  and  O_3 
REMARK    5  A    between atoms: O_4  and  C_30 
REMARK    6  A    between atoms: C_28  and  C_29 
REMARK    7  A    between atoms: C_28  and  C_30 
REMARK    8  A    between atoms: C_29  and  C_32 
REMARK    9  A    between atoms: C_32  and  C_34 
ROOT
HETATM    1  C   UNK N   1      31.427  24.948  -5.572  0.00  0.00    -0.029 C 
HETATM    2  C   UNK N   1      31.122  23.401  -5.334  0.00  0.00     0.032 C 
HETATM    3  C   UNK N   1      30.414  25.855  -4.783  0.00  0.00    -0.026 C 
HETATM    4  C   UNK N   1      32.345  22.493  -5.763  0.00  0.00    -0.033 C 
HETATM    5  C   UNK N   1      33.682  23.023  -5.159  0.00  0.00     0.000 C 
HETATM    6  C   UNK N   1      29.040  25.193  -4.796  0.00  0.00     0.029 C 
HETATM    7  C   UNK N   1      32.842  25.367  -5.122  0.00  0.00     0.011 C 
HETATM    8  C   UNK N   1      30.478  23.207  -3.920  0.00  0.00     0.124 C 
HETATM    9  C   UNK N   1      33.946  24.454  -5.615  0.00  0.00     0.007 C 
HETATM   10  C   UNK N   1      29.117  23.991  -3.808  0.00  0.00     0.042 C 
HETATM   11  C   UNK N   1      30.195  27.238  -5.347  0.00  0.00     0.047 C 
HETATM   12  C   UNK N   1      32.158  21.024  -5.339  0.00  0.00     0.012 C 
HETATM   13  C   UNK N   1      34.905  22.136  -5.511  0.00  0.00     0.015 C 
HETATM   14  C   UNK N   1      31.311  25.224  -7.076  0.00  0.00     0.016 C 
HETATM   15  C   UNK N   1      28.100  26.362  -4.588  0.00  0.00    -0.033 C 
HETATM   16  C   UNK N   1      28.843  27.676  -4.780  0.00  0.00     0.163 C 
HETATM   17  C   UNK N   1      30.860  26.102  -3.313  0.00  0.00     0.016 C 
HETATM   18  C   UNK N   1      32.412  22.495  -7.297  0.00  0.00     0.016 C 
HETATM   19  C   UNK N   1      33.363  20.145  -5.706  0.00  0.00     0.033 C 
HETATM   20  C   UNK N   1      34.663  20.684  -5.098  0.00  0.00     0.122 C 
HETATM   21  C   UNK N   1      35.327  22.201  -6.977  0.00  0.00     0.013 C 
HETATM   22  C   UNK N   1      26.766  26.229  -4.295  0.00  0.00     0.021 C 
ENDROOT
BRANCH  16  23
HETATM   23  O   UNK N   1      28.282  28.562  -5.675  0.00  0.00    -0.312 OA
BRANCH  23  24
HETATM   24  C   UNK N   1      28.199  29.891  -5.388  0.00  0.00     0.255 C 
HETATM   25  O   UNK N   1      27.220  30.350  -4.813  0.00  0.00    -0.266 OA
HETATM   26  C   UNK N   1      29.301  30.805  -5.788  0.00  0.00     0.126 C 
ENDBRANCH  23  24
ENDBRANCH  16  23
BRANCH  22  27
HETATM   27  C   UNK N   1      26.182  24.872  -4.004  0.00  0.00     0.049 C 
BRANCH  27  28
HETATM   28  C   UNK N   1      25.344  24.226  -5.093  0.00  0.00     0.032 C 
BRANCH  28  29
HETATM   29  C   UNK N   1      26.234  23.273  -5.845  0.00  0.00    -0.024 C 
HETATM   30  C   UNK N   1      26.784  23.548  -7.040  0.00  0.00    -0.091 C 
HETATM   31  C   UNK N   1      27.602  22.507  -7.720  0.00  0.00     0.042 C 
HETATM   32  C   UNK N   1      26.577  24.863  -7.723  0.00  0.00     0.042 C 
ENDBRANCH  28  29
ENDBRANCH  27  28
ENDBRANCH  22  27
BRANCH  22  33
HETATM   33  C   UNK N   1      25.815  27.373  -4.155  0.00  0.00     0.172 C 
HETATM   34  O   UNK N   1      25.497  27.815  -3.063  0.00  0.00    -0.646 OA
BRANCH  33  35
HETATM   35  O   UNK N   1      25.303  27.949  -5.259  0.00  0.00    -0.773 OA
HETATM   36  H   UNK N   1      25.873  28.318  -5.905  0.00  0.00     0.167 HD
ENDBRANCH  33  35
ENDBRANCH  22  33
BRANCH   8  37
HETATM   37  O   UNK N   1      30.216  21.868  -3.632  0.00  0.00    -0.395 OA
HETATM   38  H   UNK N   1      30.189  21.213  -4.347  0.00  0.00     0.210 HD
ENDBRANCH   8  37
BRANCH  20  39
HETATM   39  O   UNK N   1      34.624  20.577  -3.706  0.00  0.00    -0.395 OA
HETATM   40  H   UNK N   1      34.392  20.294  -2.808  0.00  0.00     0.210 HD
ENDBRANCH  20  39
TORSDOF 9
ENDMDL
MODEL 5
REMARK VINA RESULT:      -6.9     13.399     16.016
REMARK  9 active torsions:
REMARK  status: ('A' for Active; 'I' for Inactive)
REMARK    1  A    between atoms: C_14  and  O_1 
REMARK    2  A    between atoms: C_22  and  O_2 
REMARK    3  A    between atoms: O_2  and  C_31 
REMARK    4  A    between atoms: C_26  and  O_3 
REMARK    5  A    between atoms: O_4  and  C_30 
REMARK    6  A    between atoms: C_28  and  C_29 
REMARK    7  A    between atoms: C_28  and  C_30 
REMARK    8  A    between atoms: C_29  and  C_32 
REMARK    9  A    between atoms: C_32  and  C_34 
ROOT
HETATM    1  C   UNK N   1      25.289  15.599   5.228  0.00  0.00    -0.029 C 
HETATM    2  C   UNK N   1      25.813  14.651   4.057  0.00  0.00     0.032 C 
HETATM    3  C   UNK N   1      23.827  15.216   5.658  0.00  0.00    -0.026 C 
HETATM    4  C   UNK N   1      27.385  14.736   3.898  0.00  0.00    -0.033 C 
HETATM    5  C   UNK N   1      28.102  14.578   5.273  0.00  0.00     0.000 C 
HETATM    6  C   UNK N   1      23.041  14.788   4.422  0.00  0.00     0.029 C 
HETATM    7  C   UNK N   1      26.158  15.534   6.500  0.00  0.00     0.011 C 
HETATM    8  C   UNK N   1      25.126  13.248   4.175  0.00  0.00     0.124 C 
HETATM    9  C   UNK N   1      27.645  15.661   6.245  0.00  0.00     0.007 C 
HETATM   10  C   UNK N   1      23.563  13.373   4.033  0.00  0.00     0.042 C 
HETATM   11  C   UNK N   1      23.014  16.325   6.282  0.00  0.00     0.047 C 
HETATM   12  C   UNK N   1      27.932  13.671   2.928  0.00  0.00     0.012 C 
HETATM   13  C   UNK N   1      29.649  14.605   5.163  0.00  0.00     0.015 C 
HETATM   14  C   UNK N   1      25.319  17.043   4.712  0.00  0.00     0.016 C 
HETATM   15  C   UNK N   1      21.606  15.045   4.828  0.00  0.00    -0.033 C 
HETATM   16  C   UNK N   1      21.560  15.890   6.094  0.00  0.00     0.163 C 
HETATM   17  C   UNK N   1      23.799  14.074   6.714  0.00  0.00     0.016 C 
HETATM   18  C   UNK N   1      27.717  16.100   3.274  0.00  0.00     0.016 C 
HETATM   19  C   UNK N   1      29.463  13.713   2.807  0.00  0.00     0.033 C 
HETATM   20  C   UNK N   1      30.144  13.552   4.170  0.00  0.00     0.122 C 
HETATM   21  C   UNK N   1      30.230  15.973   4.809  0.00  0.00     0.013 C 
HETATM   22  C   UNK N   1      20.518  14.594   4.125  0.00  0.00     0.021 C 
ENDROOT
BRANCH  16  23
HETATM   23  O   UNK N   1      20.787  17.030   6.031  0.00  0.00    -0.312 OA
BRANCH  23  24
HETATM   24  C   UNK N   1      20.476  17.729   7.157  0.00  0.00     0.255 C 
HETATM   25  O   UNK N   1      20.833  18.893   7.295  0.00  0.00    -0.266 OA
HETATM   26  C   UNK N   1      19.705  17.073   8.247  0.00  0.00     0.126 C 
ENDBRANCH  23  24
ENDBRANCH  16  23
BRANCH  22  27
HETATM   27  C   UNK N   1      20.700  13.658   2.959  0.00  0.00     0.049 C 
BRANCH  27  28
HETATM   28  C   UNK N   1      20.969  14.280   1.601  0.00  0.00     0.032 C 
BRANCH  28  29
HETATM   29  C   UNK N   1      21.653  13.241   0.754  0.00  0.00    -0.024 C 
HETATM   30  C   UNK N   1      22.945  13.307   0.389  0.00  0.00    -0.091 C 
HETATM   31  C   UNK N   1      23.503  12.251  -0.501  0.00  0.00     0.042 C 
HETATM   32  C   UNK N   1      23.836  14.426   0.826  0.00  0.00     0.042 C 
ENDBRANCH  28  29
ENDBRANCH  27  28
ENDBRANCH  22  27
BRANCH  22  33
HETATM   33  C   UNK N   1      19.097  14.898   4.479  0.00  0.00     0.172 C 
HETATM   34  O   UNK N   1      18.322  14.026   4.833  0.00  0.00    -0.646 OA
BRANCH  33  35
HETATM   35  O   UNK N   1      18.659  16.170   4.423  0.00  0.00    -0.773 OA
HETATM   36  H   UNK N   1      17.784  16.378   4.687  0.00  0.00     0.167 HD
ENDBRANCH  33  35
ENDBRANCH  22  33
BRANCH   8  37
HETATM   37  O   UNK N   1      25.567  12.355   3.198  0.00  0.00    -0.395 OA
HETATM   38  H   UNK N   1      26.512  12.156   3.113  0.00  0.00     0.210 HD
ENDBRANCH   8  37
BRANCH  20  39
HETATM   39  O   UNK N   1      29.916  12.269   4.673  0.00  0.00    -0.395 OA
HETATM   40  H   UNK N   1      29.928  11.306   4.786  0.00  0.00     0.210 HD
ENDBRANCH  20  39
TORSDOF 9
ENDMDL
MODEL 6
REMARK VINA RESULT:      -6.9     12.452     16.735
REMARK  9 active torsions:
REMARK  status: ('A' for Active; 'I' for Inactive)
REMARK    1  A    between atoms: C_14  and  O_1 
REMARK    2  A    between atoms: C_22  and  O_2 
REMARK    3  A    between atoms: O_2  and  C_31 
REMARK    4  A    between atoms: C_26  and  O_3 
REMARK    5  A    between atoms: O_4  and  C_30 
REMARK    6  A    between atoms: C_28  and  C_29 
REMARK    7  A    between atoms: C_28  and  C_30 
REMARK    8  A    between atoms: C_29  and  C_32 
REMARK    9  A    between atoms: C_32  and  C_34 
ROOT
HETATM    1  C   UNK N   1      33.226  14.964   6.356  0.00  0.00    -0.029 C 
HETATM    2  C   UNK N   1      33.033  15.307   7.902  0.00  0.00     0.032 C 
HETATM    3  C   UNK N   1      32.429  15.968   5.448  0.00  0.00    -0.026 C 
HETATM    4  C   UNK N   1      34.127  14.595   8.797  0.00  0.00    -0.033 C 
HETATM    5  C   UNK N   1      35.560  14.820   8.225  0.00  0.00     0.000 C 
HETATM    6  C   UNK N   1      31.116  16.327   6.136  0.00  0.00     0.029 C 
HETATM    7  C   UNK N   1      34.698  15.022   5.898  0.00  0.00     0.011 C 
HETATM    8  C   UNK N   1      32.783  16.844   8.068  0.00  0.00     0.124 C 
HETATM    9  C   UNK N   1      35.660  14.280   6.802  0.00  0.00     0.007 C 
HETATM   10  C   UNK N   1      31.477  17.287   7.308  0.00  0.00     0.042 C 
HETATM   11  C   UNK N   1      32.036  15.450   4.085  0.00  0.00     0.047 C 
HETATM   12  C   UNK N   1      34.094  15.086  10.257  0.00  0.00     0.012 C 
HETATM   13  C   UNK N   1      36.673  14.183   9.097  0.00  0.00     0.015 C 
HETATM   14  C   UNK N   1      32.718  13.536   6.125  0.00  0.00     0.016 C 
HETATM   15  C   UNK N   1      30.231  16.745   4.980  0.00  0.00    -0.033 C 
HETATM   16  C   UNK N   1      30.865  16.339   3.658  0.00  0.00     0.163 C 
HETATM   17  C   UNK N   1      33.233  17.266   5.150  0.00  0.00     0.016 C 
HETATM   18  C   UNK N   1      33.794  13.097   8.837  0.00  0.00     0.016 C 
HETATM   19  C   UNK N   1      35.186  14.438  11.122  0.00  0.00     0.033 C 
HETATM   20  C   UNK N   1      36.584  14.676  10.542  0.00  0.00     0.122 C 
HETATM   21  C   UNK N   1      36.700  12.656   9.065  0.00  0.00     0.013 C 
HETATM   22  C   UNK N   1      29.023  17.377   5.131  0.00  0.00     0.021 C 
ENDROOT
BRANCH  16  23
HETATM   23  O   UNK N   1      30.068  15.600   2.808  0.00  0.00    -0.312 OA
BRANCH  23  24
HETATM   24  C   UNK N   1      29.925  14.256   2.971  0.00  0.00     0.255 C 
HETATM   25  O   UNK N   1      30.500  13.468   2.232  0.00  0.00    -0.266 OA
HETATM   26  C   UNK N   1      29.048  13.731   4.052  0.00  0.00     0.126 C 
ENDBRANCH  23  24
ENDBRANCH  16  23
BRANCH  22  27
HETATM   27  C   UNK N   1      28.569  17.839   6.490  0.00  0.00     0.049 C 
BRANCH  27  28
HETATM   28  C   UNK N   1      27.158  17.475   6.915  0.00  0.00     0.032 C 
BRANCH  28  29
HETATM   29  C   UNK N   1      27.032  15.977   6.831  0.00  0.00    -0.024 C 
HETATM   30  C   UNK N   1      26.008  15.345   6.233  0.00  0.00    -0.091 C 
HETATM   31  C   UNK N   1      25.956  13.858   6.260  0.00  0.00     0.042 C 
HETATM   32  C   UNK N   1      24.900  16.092   5.560  0.00  0.00     0.042 C 
ENDBRANCH  28  29
ENDBRANCH  27  28
ENDBRANCH  22  27
BRANCH  22  33
HETATM   33  C   UNK N   1      28.110  17.734   4.001  0.00  0.00     0.172 C 
HETATM   34  O   UNK N   1      27.894  18.894   3.692  0.00  0.00    -0.646 OA
BRANCH  33  35
HETATM   35  O   UNK N   1      27.520  16.755   3.291  0.00  0.00    -0.773 OA
HETATM   36  H   UNK N   1      27.995  15.974   3.080  0.00  0.00     0.167 HD
ENDBRANCH  33  35
ENDBRANCH  22  33
BRANCH   8  37
HETATM   37  O   UNK N   1      32.639  17.219   9.404  0.00  0.00    -0.395 OA
HETATM   38  H   UNK N   1      31.774  17.154   9.836  0.00  0.00     0.210 HD
ENDBRANCH   8  37
BRANCH  20  39
HETATM   39  O   UNK N   1      36.909  16.033  10.610  0.00  0.00    -0.395 OA
HETATM   40  H   UNK N   1      37.065  16.929  10.946  0.00  0.00     0.210 HD
ENDBRANCH  20  39
TORSDOF 9
ENDMDL
MODEL 7
REMARK VINA RESULT:      -6.8      2.890      4.512
REMARK  9 active torsions:
REMARK  status: ('A' for Active; 'I' for Inactive)
REMARK    1  A    between atoms: C_14  and  O_1 
REMARK    2  A    between atoms: C_22  and  O_2 
REMARK    3  A    between atoms: O_2  and  C_31 
REMARK    4  A    between atoms: C_26  and  O_3 
REMARK    5  A    between atoms: O_4  and  C_30 
REMARK    6  A    between atoms: C_28  and  C_29 
REMARK    7  A    between atoms: C_28  and  C_30 
REMARK    8  A    between atoms: C_29  and  C_32 
REMARK    9  A    between atoms: C_32  and  C_34 
ROOT
HETATM    1  C   UNK N   1      28.631  24.138  -4.941  0.00  0.00    -0.029 C 
HETATM    2  C   UNK N   1      29.116  25.656  -5.019  0.00  0.00     0.032 C 
HETATM    3  C   UNK N   1      29.757  23.213  -4.355  0.00  0.00    -0.026 C 
HETATM    4  C   UNK N   1      27.896  26.648  -5.205  0.00  0.00    -0.033 C 
HETATM    5  C   UNK N   1      26.762  26.348  -4.178  0.00  0.00     0.000 C 
HETATM    6  C   UNK N   1      31.113  23.703  -4.851  0.00  0.00     0.029 C 
HETATM    7  C   UNK N   1      27.385  23.941  -4.054  0.00  0.00     0.011 C 
HETATM    8  C   UNK N   1      30.164  25.928  -3.888  0.00  0.00     0.124 C 
HETATM    9  C   UNK N   1      26.261  24.916  -4.334  0.00  0.00     0.007 C 
HETATM   10  C   UNK N   1      31.430  25.007  -4.060  0.00  0.00     0.042 C 
HETATM   11  C   UNK N   1      29.687  21.759  -4.759  0.00  0.00     0.047 C 
HETATM   12  C   UNK N   1      28.317  28.123  -5.061  0.00  0.00     0.012 C 
HETATM   13  C   UNK N   1      25.564  27.328  -4.286  0.00  0.00     0.015 C 
HETATM   14  C   UNK N   1      28.272  23.687  -6.362  0.00  0.00     0.016 C 
HETATM   15  C   UNK N   1      31.976  22.463  -4.758  0.00  0.00    -0.033 C 
HETATM   16  C   UNK N   1      31.108  21.231  -4.545  0.00  0.00     0.163 C 
HETATM   17  C   UNK N   1      29.750  23.182  -2.800  0.00  0.00     0.016 C 
HETATM   18  C   UNK N   1      27.376  26.485  -6.640  0.00  0.00     0.016 C 
HETATM   19  C   UNK N   1      27.131  29.091  -5.189  0.00  0.00     0.033 C 
HETATM   20  C   UNK N   1      26.033  28.779  -4.167  0.00  0.00     0.122 C 
HETATM   21  C   UNK N   1      24.721  27.151  -5.548  0.00  0.00     0.013 C 
HETATM   22  C   UNK N   1      33.343  22.470  -4.879  0.00  0.00     0.021 C 
ENDROOT
BRANCH  16  23
HETATM   23  O   UNK N   1      31.305  20.192  -5.430  0.00  0.00    -0.312 OA
BRANCH  23  24
HETATM   24  C   UNK N   1      30.920  20.296  -6.731  0.00  0.00     0.255 C 
HETATM   25  O   UNK N   1      31.567  20.964  -7.528  0.00  0.00    -0.266 OA
HETATM   26  C   UNK N   1      29.688  19.604  -7.196  0.00  0.00     0.126 C 
ENDBRANCH  23  24
ENDBRANCH  16  23
BRANCH  22  27
HETATM   27  C   UNK N   1      34.093  23.773  -4.959  0.00  0.00     0.049 C 
BRANCH  27  28
HETATM   28  C   UNK N   1      35.329  23.812  -5.840  0.00  0.00     0.032 C 
BRANCH  28  29
HETATM   29  C   UNK N   1      36.318  24.744  -5.192  0.00  0.00    -0.024 C 
HETATM   30  C   UNK N   1      37.320  24.334  -4.396  0.00  0.00    -0.091 C 
HETATM   31  C   UNK N   1      38.205  25.349  -3.761  0.00  0.00     0.042 C 
HETATM   32  C   UNK N   1      37.559  22.887  -4.104  0.00  0.00     0.042 C 
ENDBRANCH  28  29
ENDBRANCH  27  28
ENDBRANCH  22  27
BRANCH  22  33
HETATM   33  C   UNK N   1      34.199  21.244  -4.856  0.00  0.00     0.172 C 
HETATM   34  O   UNK N   1      34.468  20.628  -5.874  0.00  0.00    -0.646 OA
BRANCH  33  35
HETATM   35  O   UNK N   1      34.706  20.812  -3.686  0.00  0.00    -0.773 OA
HETATM   36  H   UNK N   1      34.999  21.428  -3.043  0.00  0.00     0.167 HD
ENDBRANCH  33  35
ENDBRANCH  22  33
BRANCH   8  37
HETATM   37  O   UNK N   1      30.605  27.251  -3.877  0.00  0.00    -0.395 OA
HETATM   38  H   UNK N   1      30.278  27.878  -4.540  0.00  0.00     0.210 HD
ENDBRANCH   8  37
BRANCH  20  39
HETATM   39  O   UNK N   1      26.493  29.033  -2.873  0.00  0.00    -0.395 OA
HETATM   40  H   UNK N   1      26.557  29.067  -1.907  0.00  0.00     0.210 HD
ENDBRANCH  20  39
TORSDOF 9
ENDMDL
MODEL 8
REMARK VINA RESULT:      -6.7     11.755     15.174
REMARK  9 active torsions:
REMARK  status: ('A' for Active; 'I' for Inactive)
REMARK    1  A    between atoms: C_14  and  O_1 
REMARK    2  A    between atoms: C_22  and  O_2 
REMARK    3  A    between atoms: O_2  and  C_31 
REMARK    4  A    between atoms: C_26  and  O_3 
REMARK    5  A    between atoms: O_4  and  C_30 
REMARK    6  A    between atoms: C_28  and  C_29 
REMARK    7  A    between atoms: C_28  and  C_30 
REMARK    8  A    between atoms: C_29  and  C_32 
REMARK    9  A    between atoms: C_32  and  C_34 
ROOT
HETATM    1  C   UNK N   1      25.789  16.120   4.403  0.00  0.00    -0.029 C 
HETATM    2  C   UNK N   1      26.016  14.771   3.582  0.00  0.00     0.032 C 
HETATM    3  C   UNK N   1      24.302  16.239   4.897  0.00  0.00    -0.026 C 
HETATM    4  C   UNK N   1      27.555  14.430   3.437  0.00  0.00    -0.033 C 
HETATM    5  C   UNK N   1      28.286  14.521   4.811  0.00  0.00     0.000 C 
HETATM    6  C   UNK N   1      23.375  15.664   3.831  0.00  0.00     0.029 C 
HETATM    7  C   UNK N   1      26.684  16.230   5.654  0.00  0.00     0.011 C 
HETATM    8  C   UNK N   1      25.030  13.672   4.100  0.00  0.00     0.124 C 
HETATM    9  C   UNK N   1      28.144  15.920   5.403  0.00  0.00     0.007 C 
HETATM   10  C   UNK N   1      23.533  14.116   3.895  0.00  0.00     0.042 C 
HETATM   11  C   UNK N   1      23.803  17.644   5.143  0.00  0.00     0.047 C 
HETATM   12  C   UNK N   1      27.788  13.028   2.843  0.00  0.00     0.012 C 
HETATM   13  C   UNK N   1      29.789  14.146   4.730  0.00  0.00     0.015 C 
HETATM   14  C   UNK N   1      26.127  17.295   3.478  0.00  0.00     0.016 C 
HETATM   15  C   UNK N   1      22.062  16.363   4.111  0.00  0.00    -0.033 C 
HETATM   16  C   UNK N   1      22.279  17.530   5.063  0.00  0.00     0.163 C 
HETATM   17  C   UNK N   1      24.064  15.503   6.247  0.00  0.00     0.016 C 
HETATM   18  C   UNK N   1      28.162  15.428   2.440  0.00  0.00     0.016 C 
HETATM   19  C   UNK N   1      29.278  12.668   2.747  0.00  0.00     0.033 C 
HETATM   20  C   UNK N   1      29.973  12.760   4.109  0.00  0.00     0.122 C 
HETATM   21  C   UNK N   1      30.653  15.169   3.994  0.00  0.00     0.013 C 
HETATM   22  C   UNK N   1      20.864  15.995   3.553  0.00  0.00     0.021 C 
ENDROOT
BRANCH  16  23
HETATM   23  O   UNK N   1      21.790  18.750   4.645  0.00  0.00    -0.312 OA
BRANCH  23  24
HETATM   24  C   UNK N   1      22.215  19.314   3.481  0.00  0.00     0.255 C 
HETATM   25  O   UNK N   1      21.504  19.312   2.484  0.00  0.00    -0.266 OA
HETATM   26  C   UNK N   1      23.567  19.931   3.408  0.00  0.00     0.126 C 
ENDBRANCH  23  24
ENDBRANCH  16  23
BRANCH  22  27
HETATM   27  C   UNK N   1      20.763  14.740   2.726  0.00  0.00     0.049 C 
BRANCH  27  28
HETATM   28  C   UNK N   1      21.097  14.851   1.250  0.00  0.00     0.032 C 
BRANCH  28  29
HETATM   29  C   UNK N   1      21.549  13.492   0.785  0.00  0.00    -0.024 C 
HETATM   30  C   UNK N   1      22.814  13.205   0.433  0.00  0.00    -0.091 C 
HETATM   31  C   UNK N   1      23.137  11.840  -0.068  0.00  0.00     0.042 C 
HETATM   32  C   UNK N   1      23.907  14.224   0.503  0.00  0.00     0.042 C 
ENDBRANCH  28  29
ENDBRANCH  27  28
ENDBRANCH  22  27
BRANCH  22  33
HETATM   33  C   UNK N   1      19.573  16.718   3.769  0.00  0.00     0.172 C 
HETATM   34  O   UNK N   1      18.821  16.432   4.686  0.00  0.00    -0.646 OA
BRANCH  33  35
HETATM   35  O   UNK N   1      19.233  17.726   2.944  0.00  0.00    -0.773 OA
HETATM   36  H   UNK N   1      19.213  17.589   2.017  0.00  0.00     0.167 HD
ENDBRANCH  33  35
ENDBRANCH  22  33
BRANCH   8  37
HETATM   37  O   UNK N   1      25.199  12.452   3.446  0.00  0.00    -0.395 OA
HETATM   38  H   UNK N   1      25.607  12.424   2.566  0.00  0.00     0.210 HD
ENDBRANCH   8  37
BRANCH  20  39
HETATM   39  O   UNK N   1      29.480  11.777   4.969  0.00  0.00    -0.395 OA
HETATM   40  H   UNK N   1      29.320  11.235   5.757  0.00  0.00     0.210 HD
ENDBRANCH  20  39
TORSDOF 9
ENDMDL
MODEL 9
REMARK VINA RESULT:      -6.6     14.687     18.769
REMARK  9 active torsions:
REMARK  status: ('A' for Active; 'I' for Inactive)
REMARK    1  A    between atoms: C_14  and  O_1 
REMARK    2  A    between atoms: C_22  and  O_2 
REMARK    3  A    between atoms: O_2  and  C_31 
REMARK    4  A    between atoms: C_26  and  O_3 
REMARK    5  A    between atoms: O_4  and  C_30 
REMARK    6  A    between atoms: C_28  and  C_29 
REMARK    7  A    between atoms: C_28  and  C_30 
REMARK    8  A    between atoms: C_29  and  C_32 
REMARK    9  A    between atoms: C_32  and  C_34 
ROOT
HETATM    1  C   UNK N   1      33.125  14.923   6.268  0.00  0.00    -0.029 C 
HETATM    2  C   UNK N   1      32.280  15.978   7.115  0.00  0.00     0.032 C 
HETATM    3  C   UNK N   1      34.067  14.074   7.197  0.00  0.00    -0.026 C 
HETATM    4  C   UNK N   1      31.053  16.540   6.287  0.00  0.00    -0.033 C 
HETATM    5  C   UNK N   1      30.237  15.384   5.632  0.00  0.00     0.000 C 
HETATM    6  C   UNK N   1      34.596  14.965   8.316  0.00  0.00     0.029 C 
HETATM    7  C   UNK N   1      32.247  13.921   5.491  0.00  0.00     0.011 C 
HETATM    8  C   UNK N   1      32.044  15.421   8.558  0.00  0.00     0.124 C 
HETATM    9  C   UNK N   1      31.123  14.561   4.703  0.00  0.00     0.007 C 
HETATM   10  C   UNK N   1      33.412  15.188   9.303  0.00  0.00     0.042 C 
HETATM   11  C   UNK N   1      35.295  13.496   6.534  0.00  0.00     0.047 C 
HETATM   12  C   UNK N   1      30.104  17.387   7.155  0.00  0.00     0.012 C 
HETATM   13  C   UNK N   1      28.993  15.882   4.850  0.00  0.00     0.015 C 
HETATM   14  C   UNK N   1      33.963  15.703   5.248  0.00  0.00     0.016 C 
HETATM   15  C   UNK N   1      35.879  14.271   8.723  0.00  0.00    -0.033 C 
HETATM   16  C   UNK N   1      36.263  13.225   7.687  0.00  0.00     0.163 C 
HETATM   17  C   UNK N   1      33.342  12.842   7.810  0.00  0.00     0.016 C 
HETATM   18  C   UNK N   1      31.610  17.481   5.209  0.00  0.00     0.016 C 
HETATM   19  C   UNK N   1      28.883  17.894   6.373  0.00  0.00     0.033 C 
HETATM   20  C   UNK N   1      28.095  16.741   5.742  0.00  0.00     0.122 C 
HETATM   21  C   UNK N   1      29.320  16.630   3.559  0.00  0.00     0.013 C 
HETATM   22  C   UNK N   1      36.589  14.578   9.856  0.00  0.00     0.021 C 
ENDROOT
BRANCH  16  23
HETATM   23  O   UNK N   1      37.545  13.315   7.185  0.00  0.00    -0.312 OA
BRANCH  23  24
HETATM   24  C   UNK N   1      38.334  12.210   7.076  0.00  0.00     0.255 C 
HETATM   25  O   UNK N   1      39.382  12.245   6.443  0.00  0.00    -0.266 OA
HETATM   26  C   UNK N   1      37.917  10.936   7.721  0.00  0.00     0.126 C 
ENDBRANCH  23  24
ENDBRANCH  16  23
BRANCH  22  27
HETATM   27  C   UNK N   1      36.031  15.545  10.866  0.00  0.00     0.049 C 
BRANCH  27  28
HETATM   28  C   UNK N   1      35.252  14.963  12.031  0.00  0.00     0.032 C 
BRANCH  28  29
HETATM   29  C   UNK N   1      36.162  14.963  13.231  0.00  0.00    -0.024 C 
HETATM   30  C   UNK N   1      36.179  13.989  14.156  0.00  0.00    -0.091 C 
HETATM   31  C   UNK N   1      37.082  14.122  15.334  0.00  0.00     0.042 C 
HETATM   32  C   UNK N   1      35.299  12.784  14.056  0.00  0.00     0.042 C 
ENDBRANCH  28  29
ENDBRANCH  27  28
ENDBRANCH  22  27
BRANCH  22  33
HETATM   33  C   UNK N   1      37.891  13.946  10.234  0.00  0.00     0.172 C 
HETATM   34  O   UNK N   1      37.945  12.975  10.969  0.00  0.00    -0.646 OA
BRANCH  33  35
HETATM   35  O   UNK N   1      39.038  14.448   9.739  0.00  0.00    -0.773 OA
HETATM   36  H   UNK N   1      39.609  13.904   9.231  0.00  0.00     0.167 HD
ENDBRANCH  33  35
ENDBRANCH  22  33
BRANCH   8  37
HETATM   37  O   UNK N   1      31.279  16.282   9.344  0.00  0.00    -0.395 OA
HETATM   38  H   UNK N   1      30.313  16.204   9.352  0.00  0.00     0.210 HD
ENDBRANCH   8  37
BRANCH  20  39
HETATM   39  O   UNK N   1      27.511  15.956   6.738  0.00  0.00    -0.395 OA
HETATM   40  H   UNK N   1      27.031  15.681   7.535  0.00  0.00     0.210 HD
ENDBRANCH  20  39
TORSDOF 9
ENDMDL
