MODEL 1
REMARK VINA RESULT:      -7.3      0.000      0.000
REMARK  2 active torsions:
REMARK  status: ('A' for Active; 'I' for Inactive)
REMARK    1  A    between atoms: C_10  and  O_1 
REMARK    2  A    between atoms: C_3  and  C_12 
ROOT
HETATM    1  O   UNK N   1      29.330  19.580  -8.257  0.00  0.00    -0.293 OA
HETATM    2  C   UNK N   1      27.117  26.815  -4.509  0.00  0.00     0.013 C 
HETATM    3  C   UNK N   1      26.755  25.109  -6.455  0.00  0.00    -0.001 C 
HETATM    4  C   UNK N   1      26.696  26.589  -5.996  0.00  0.00     0.025 C 
HETATM    5  C   UNK N   1      27.939  24.361  -5.832  0.00  0.00    -0.002 C 
HETATM    6  C   UNK N   1      26.932  25.477  -3.754  0.00  0.00     0.015 C 
HETATM    7  C   UNK N   1      27.840  24.373  -4.301  0.00  0.00     0.007 C 
HETATM    8  C   UNK N   1      28.019  22.894  -6.265  0.00  0.00     0.019 C 
HETATM    9  C   UNK N   1      26.079  27.857  -3.969  0.00  0.00     0.146 C 
HETATM   10  C   UNK N   1      26.775  24.991  -7.977  0.00  0.00     0.010 C 
HETATM   11  C   UNK N   1      25.261  26.997  -5.987  0.00  0.00    -0.021 C 
HETATM   12  C   UNK N   1      27.681  22.676  -7.726  0.00  0.00    -0.072 C 
HETATM   13  C   UNK N   1      26.632  23.526  -8.382  0.00  0.00     0.035 C 
HETATM   14  C   UNK N   1      24.921  27.647  -4.883  0.00  0.00     0.021 C 
HETATM   15  C   UNK N   1      29.423  22.376  -5.947  0.00  0.00     0.017 C 
HETATM   16  C   UNK N   1      29.593  20.910  -6.332  0.00  0.00     0.084 C 
HETATM   17  C   UNK N   1      28.115  21.576  -8.361  0.00  0.00     0.053 C 
HETATM   18  C   UNK N   1      26.440  29.283  -4.065  0.00  0.00    -0.074 C 
HETATM   19  C   UNK N   1      29.040  20.625  -7.700  0.00  0.00     0.149 C 
HETATM   20  C   UNK N   1      26.683  30.458  -4.186  0.00  0.00     0.015 C 
ENDROOT
BRANCH   9  21
HETATM   21  O   UNK N   1      25.732  27.599  -2.643  0.00  0.00    -0.373 OA
HETATM   22  H   UNK N   1      25.368  28.014  -1.845  0.00  0.00     0.212 HD
ENDBRANCH   9  21
BRANCH   2  23
HETATM   23  C   UNK N   1      28.586  27.266  -4.389  0.00  0.00     0.010 C 
HETATM   24  C   UNK N   1      29.166  27.764  -5.707  0.00  0.00     0.006 C 
ENDBRANCH   2  23
TORSDOF 2
ENDMDL
MODEL 2
REMARK VINA RESULT:      -7.3      2.746      4.145
REMARK  2 active torsions:
REMARK  status: ('A' for Active; 'I' for Inactive)
REMARK    1  A    between atoms: C_10  and  O_1 
REMARK    2  A    between atoms: C_3  and  C_12 
ROOT
HETATM    1  O   UNK N   1      34.526  18.943  -3.994  0.00  0.00    -0.293 OA
HETATM    2  C   UNK N   1      28.271  24.589  -4.532  0.00  0.00     0.013 C 
HETATM    3  C   UNK N   1      29.360  22.377  -5.397  0.00  0.00    -0.001 C 
HETATM    4  C   UNK N   1      28.512  23.629  -5.739  0.00  0.00     0.025 C 
HETATM    5  C   UNK N   1      30.469  22.694  -4.388  0.00  0.00    -0.002 C 
HETATM    6  C   UNK N   1      28.450  23.771  -3.231  0.00  0.00     0.015 C 
HETATM    7  C   UNK N   1      29.873  23.228  -3.079  0.00  0.00     0.007 C 
HETATM    8  C   UNK N   1      31.321  21.473  -4.027  0.00  0.00     0.019 C 
HETATM    9  C   UNK N   1      26.769  25.013  -4.669  0.00  0.00     0.146 C 
HETATM   10  C   UNK N   1      29.934  21.724  -6.651  0.00  0.00     0.010 C 
HETATM   11  C   UNK N   1      27.131  23.160  -6.055  0.00  0.00    -0.021 C 
HETATM   12  C   UNK N   1      31.619  20.573  -5.210  0.00  0.00    -0.072 C 
HETATM   13  C   UNK N   1      30.588  20.393  -6.287  0.00  0.00     0.035 C 
HETATM   14  C   UNK N   1      26.196  23.881  -5.452  0.00  0.00     0.021 C 
HETATM   15  C   UNK N   1      32.616  21.965  -3.377  0.00  0.00     0.017 C 
HETATM   16  C   UNK N   1      33.526  20.812  -2.969  0.00  0.00     0.084 C 
HETATM   17  C   UNK N   1      32.673  19.743  -5.176  0.00  0.00     0.053 C 
HETATM   18  C   UNK N   1      26.480  26.241  -5.430  0.00  0.00    -0.074 C 
HETATM   19  C   UNK N   1      33.642  19.781  -4.055  0.00  0.00     0.149 C 
HETATM   20  C   UNK N   1      26.210  27.209  -6.098  0.00  0.00     0.015 C 
ENDROOT
BRANCH   9  21
HETATM   21  O   UNK N   1      26.151  25.133  -3.425  0.00  0.00    -0.373 OA
HETATM   22  H   UNK N   1      26.301  25.428  -2.514  0.00  0.00     0.212 HD
ENDBRANCH   9  21
BRANCH   2  23
HETATM   23  C   UNK N   1      29.263  25.770  -4.529  0.00  0.00     0.010 C 
HETATM   24  C   UNK N   1      29.963  25.964  -5.869  0.00  0.00     0.006 C 
ENDBRANCH   2  23
TORSDOF 2
ENDMDL
MODEL 3
REMARK VINA RESULT:      -7.3     24.877     27.134
REMARK  2 active torsions:
REMARK  status: ('A' for Active; 'I' for Inactive)
REMARK    1  A    between atoms: C_10  and  O_1 
REMARK    2  A    between atoms: C_3  and  C_12 
ROOT
HETATM    1  O   UNK N   1      35.725  10.018  21.582  0.00  0.00    -0.293 OA
HETATM    2  C   UNK N   1      36.139  11.624  13.303  0.00  0.00     0.013 C 
HETATM    3  C   UNK N   1      35.688  12.496  15.725  0.00  0.00    -0.001 C 
HETATM    4  C   UNK N   1      35.356  12.620  14.216  0.00  0.00     0.025 C 
HETATM    5  C   UNK N   1      35.926  11.041  16.142  0.00  0.00    -0.002 C 
HETATM    6  C   UNK N   1      37.416  11.190  14.060  0.00  0.00     0.015 C 
HETATM    7  C   UNK N   1      37.095  10.436  15.353  0.00  0.00     0.007 C 
HETATM    8  C   UNK N   1      36.262  10.888  17.629  0.00  0.00     0.019 C 
HETATM    9  C   UNK N   1      36.548  12.482  12.057  0.00  0.00     0.146 C 
HETATM   10  C   UNK N   1      34.614  13.144  16.595  0.00  0.00     0.010 C 
HETATM   11  C   UNK N   1      35.865  13.945  13.754  0.00  0.00    -0.021 C 
HETATM   12  C   UNK N   1      35.453  11.802  18.528  0.00  0.00    -0.072 C 
HETATM   13  C   UNK N   1      35.078  13.175  18.049  0.00  0.00     0.035 C 
HETATM   14  C   UNK N   1      36.536  13.865  12.613  0.00  0.00     0.021 C 
HETATM   15  C   UNK N   1      36.059   9.422  18.019  0.00  0.00     0.017 C 
HETATM   16  C   UNK N   1      36.386   9.170  19.487  0.00  0.00     0.084 C 
HETATM   17  C   UNK N   1      35.295  11.502  19.826  0.00  0.00     0.053 C 
HETATM   18  C   UNK N   1      35.628  12.482  10.906  0.00  0.00    -0.074 C 
HETATM   19  C   UNK N   1      35.782  10.217  20.380  0.00  0.00     0.149 C 
HETATM   20  C   UNK N   1      34.866  12.548   9.973  0.00  0.00     0.015 C 
ENDROOT
BRANCH   9  21
HETATM   21  O   UNK N   1      37.813  12.136  11.585  0.00  0.00    -0.373 OA
HETATM   22  H   UNK N   1      38.634  12.511  11.230  0.00  0.00     0.212 HD
ENDBRANCH   9  21
BRANCH   2  23
HETATM   23  C   UNK N   1      35.301  10.375  12.963  0.00  0.00     0.010 C 
HETATM   24  C   UNK N   1      33.849  10.492  13.409  0.00  0.00     0.006 C 
ENDBRANCH   2  23
TORSDOF 2
ENDMDL
MODEL 4
REMARK VINA RESULT:      -7.3     26.015     28.082
REMARK  2 active torsions:
REMARK  status: ('A' for Active; 'I' for Inactive)
REMARK    1  A    between atoms: C_10  and  O_1 
REMARK    2  A    between atoms: C_3  and  C_12 
ROOT
HETATM    1  O   UNK N   1      34.133   8.459  22.319  0.00  0.00    -0.293 OA
HETATM    2  C   UNK N   1      35.532  12.048  14.805  0.00  0.00     0.013 C 
HETATM    3  C   UNK N   1      35.539  12.251  17.411  0.00  0.00    -0.001 C 
HETATM    4  C   UNK N   1      35.359  12.973  16.051  0.00  0.00     0.025 C 
HETATM    5  C   UNK N   1      34.975  10.827  17.383  0.00  0.00    -0.002 C 
HETATM    6  C   UNK N   1      36.378  10.826  15.236  0.00  0.00     0.015 C 
HETATM    7  C   UNK N   1      35.679   9.987  16.309  0.00  0.00     0.007 C 
HETATM    8  C   UNK N   1      35.144  10.086  18.713  0.00  0.00     0.019 C 
HETATM    9  C   UNK N   1      36.359  12.913  13.794  0.00  0.00     0.146 C 
HETATM   10  C   UNK N   1      34.937  13.054  18.561  0.00  0.00     0.010 C 
HETATM   11  C   UNK N   1      36.494  13.930  15.899  0.00  0.00    -0.021 C 
HETATM   12  C   UNK N   1      34.906  10.962  19.927  0.00  0.00    -0.072 C 
HETATM   13  C   UNK N   1      35.312  12.408  19.892  0.00  0.00     0.035 C 
HETATM   14  C   UNK N   1      37.054  13.872  14.699  0.00  0.00     0.021 C 
HETATM   15  C   UNK N   1      34.199   8.882  18.716  0.00  0.00     0.017 C 
HETATM   16  C   UNK N   1      34.310   8.072  20.003  0.00  0.00     0.084 C 
HETATM   17  C   UNK N   1      34.582  10.407  21.105  0.00  0.00     0.053 C 
HETATM   18  C   UNK N   1      35.603  13.722  12.821  0.00  0.00    -0.074 C 
HETATM   19  C   UNK N   1      34.316   8.954  21.219  0.00  0.00     0.149 C 
HETATM   20  C   UNK N   1      35.011  14.440  12.054  0.00  0.00     0.015 C 
ENDROOT
BRANCH   9  21
HETATM   21  O   UNK N   1      37.272  12.139  13.079  0.00  0.00    -0.373 OA
HETATM   22  H   UNK N   1      38.054  12.198  12.508  0.00  0.00     0.212 HD
ENDBRANCH   9  21
BRANCH   2  23
HETATM   23  C   UNK N   1      34.177  11.559  14.258  0.00  0.00     0.010 C 
HETATM   24  C   UNK N   1      34.316  10.439  13.234  0.00  0.00     0.006 C 
ENDBRANCH   2  23
TORSDOF 2
ENDMDL
MODEL 5
REMARK VINA RESULT:      -7.1      1.766      2.139
REMARK  2 active torsions:
REMARK  status: ('A' for Active; 'I' for Inactive)
REMARK    1  A    between atoms: C_10  and  O_1 
REMARK    2  A    between atoms: C_3  and  C_12 
ROOT
HETATM    1  O   UNK N   1      25.944  20.856 -10.625  0.00  0.00    -0.293 OA
HETATM    2  C   UNK N   1      27.056  26.334  -4.297  0.00  0.00     0.013 C 
HETATM    3  C   UNK N   1      26.137  25.853  -6.696  0.00  0.00    -0.001 C 
HETATM    4  C   UNK N   1      26.741  26.895  -5.720  0.00  0.00     0.025 C 
HETATM    5  C   UNK N   1      26.747  24.461  -6.498  0.00  0.00    -0.002 C 
HETATM    6  C   UNK N   1      26.175  25.081  -4.075  0.00  0.00     0.015 C 
HETATM    7  C   UNK N   1      26.501  23.962  -5.067  0.00  0.00     0.007 C 
HETATM    8  C   UNK N   1      26.164  23.408  -7.446  0.00  0.00     0.019 C 
HETATM    9  C   UNK N   1      26.589  27.468  -3.323  0.00  0.00     0.146 C 
HETATM   10  C   UNK N   1      26.263  26.301  -8.149  0.00  0.00     0.010 C 
HETATM   11  C   UNK N   1      25.682  27.908  -5.437  0.00  0.00    -0.021 C 
HETATM   12  C   UNK N   1      25.923  23.927  -8.849  0.00  0.00    -0.072 C 
HETATM   13  C   UNK N   1      25.483  25.348  -9.052  0.00  0.00     0.035 C 
HETATM   14  C   UNK N   1      25.576  28.189  -4.146  0.00  0.00     0.021 C 
HETATM   15  C   UNK N   1      27.108  22.204  -7.465  0.00  0.00     0.017 C 
HETATM   16  C   UNK N   1      26.600  21.093  -8.376  0.00  0.00     0.084 C 
HETATM   17  C   UNK N   1      25.846  23.070  -9.880  0.00  0.00     0.053 C 
HETATM   18  C   UNK N   1      27.594  28.468  -2.918  0.00  0.00    -0.074 C 
HETATM   19  C   UNK N   1      26.128  21.627  -9.699  0.00  0.00     0.149 C 
HETATM   20  C   UNK N   1      28.379  29.333  -2.618  0.00  0.00     0.015 C 
ENDROOT
BRANCH   9  21
HETATM   21  O   UNK N   1      26.020  26.949  -2.161  0.00  0.00    -0.373 OA
HETATM   22  H   UNK N   1      26.086  26.968  -1.193  0.00  0.00     0.212 HD
ENDBRANCH   9  21
BRANCH   2  23
HETATM   23  C   UNK N   1      28.540  25.944  -4.148  0.00  0.00     0.010 C 
HETATM   24  C   UNK N   1      29.426  26.542  -5.234  0.00  0.00     0.006 C 
ENDBRANCH   2  23
TORSDOF 2
ENDMDL
MODEL 6
REMARK VINA RESULT:      -7.1     16.277     17.831
REMARK  2 active torsions:
REMARK  status: ('A' for Active; 'I' for Inactive)
REMARK    1  A    between atoms: C_10  and  O_1 
REMARK    2  A    between atoms: C_3  and  C_12 
ROOT
HETATM    1  O   UNK N   1      24.644  11.785  11.842  0.00  0.00    -0.293 OA
HETATM    2  C   UNK N   1      20.717  15.531   5.375  0.00  0.00     0.013 C 
HETATM    3  C   UNK N   1      22.911  14.517   6.367  0.00  0.00    -0.001 C 
HETATM    4  C   UNK N   1      22.278  15.566   5.418  0.00  0.00     0.025 C 
HETATM    5  C   UNK N   1      22.076  14.311   7.635  0.00  0.00    -0.002 C 
HETATM    6  C   UNK N   1      20.261  14.126   5.833  0.00  0.00     0.015 C 
HETATM    7  C   UNK N   1      20.663  13.830   7.280  0.00  0.00     0.007 C 
HETATM    8  C   UNK N   1      22.676  13.274   8.590  0.00  0.00     0.019 C 
HETATM    9  C   UNK N   1      20.369  15.714   3.858  0.00  0.00     0.146 C 
HETATM   10  C   UNK N   1      24.355  14.869   6.715  0.00  0.00     0.010 C 
HETATM   11  C   UNK N   1      22.645  15.187   4.022  0.00  0.00    -0.021 C 
HETATM   12  C   UNK N   1      24.186  13.350   8.692  0.00  0.00    -0.072 C 
HETATM   13  C   UNK N   1      24.997  13.715   7.481  0.00  0.00     0.035 C 
HETATM   14  C   UNK N   1      21.612  15.232   3.192  0.00  0.00     0.021 C 
HETATM   15  C   UNK N   1      22.028  13.454   9.964  0.00  0.00     0.017 C 
HETATM   16  C   UNK N   1      22.556  12.450  10.982  0.00  0.00     0.084 C 
HETATM   17  C   UNK N   1      24.815  12.848   9.766  0.00  0.00     0.053 C 
HETATM   18  C   UNK N   1      20.139  17.089   3.379  0.00  0.00    -0.074 C 
HETATM   19  C   UNK N   1      24.053  12.337  10.929  0.00  0.00     0.149 C 
HETATM   20  C   UNK N   1      20.005  18.207   2.945  0.00  0.00     0.015 C 
ENDROOT
BRANCH   9  21
HETATM   21  O   UNK N   1      19.265  14.948   3.486  0.00  0.00    -0.373 OA
HETATM   22  H   UNK N   1      18.760  14.645   2.716  0.00  0.00     0.212 HD
ENDBRANCH   9  21
BRANCH   2  23
HETATM   23  C   UNK N   1      20.091  16.594   6.299  0.00  0.00     0.010 C 
HETATM   24  C   UNK N   1      21.081  17.673   6.723  0.00  0.00     0.006 C 
ENDBRANCH   2  23
TORSDOF 2
ENDMDL
MODEL 7
REMARK VINA RESULT:      -7.0     12.448     14.180
REMARK  2 active torsions:
REMARK  status: ('A' for Active; 'I' for Inactive)
REMARK    1  A    between atoms: C_10  and  O_1 
REMARK    2  A    between atoms: C_3  and  C_12 
ROOT
HETATM    1  O   UNK N   1      34.449  15.186   7.994  0.00  0.00    -0.293 OA
HETATM    2  C   UNK N   1      27.391  18.712   4.988  0.00  0.00     0.013 C 
HETATM    3  C   UNK N   1      29.194  16.829   4.811  0.00  0.00    -0.001 C 
HETATM    4  C   UNK N   1      28.191  17.742   4.061  0.00  0.00     0.025 C 
HETATM    5  C   UNK N   1      29.862  17.552   5.985  0.00  0.00    -0.002 C 
HETATM    6  C   UNK N   1      27.397  18.117   6.416  0.00  0.00     0.015 C 
HETATM    7  C   UNK N   1      28.810  18.025   6.998  0.00  0.00     0.007 C 
HETATM    8  C   UNK N   1      30.855  16.671   6.749  0.00  0.00     0.019 C 
HETATM    9  C   UNK N   1      25.930  18.670   4.422  0.00  0.00     0.146 C 
HETATM   10  C   UNK N   1      30.239  16.243   3.866  0.00  0.00     0.010 C 
HETATM   11  C   UNK N   1      27.115  16.867   3.510  0.00  0.00    -0.021 C 
HETATM   12  C   UNK N   1      31.686  15.779   5.849  0.00  0.00    -0.072 C 
HETATM   13  C   UNK N   1      31.076  15.201   4.604  0.00  0.00     0.035 C 
HETATM   14  C   UNK N   1      25.900  17.347   3.735  0.00  0.00     0.021 C 
HETATM   15  C   UNK N   1      31.752  17.579   7.594  0.00  0.00     0.017 C 
HETATM   16  C   UNK N   1      32.769  16.784   8.404  0.00  0.00     0.084 C 
HETATM   17  C   UNK N   1      32.861  15.294   6.280  0.00  0.00     0.053 C 
HETATM   18  C   UNK N   1      25.568  19.679   3.410  0.00  0.00    -0.074 C 
HETATM   19  C   UNK N   1      33.437  15.723   7.576  0.00  0.00     0.149 C 
HETATM   20  C   UNK N   1      25.262  20.455   2.539  0.00  0.00     0.015 C 
ENDROOT
BRANCH   9  21
HETATM   21  O   UNK N   1      24.980  18.734   5.440  0.00  0.00    -0.373 OA
HETATM   22  H   UNK N   1      24.874  18.909   6.388  0.00  0.00     0.212 HD
ENDBRANCH   9  21
BRANCH   2  23
HETATM   23  C   UNK N   1      28.015  20.121   5.022  0.00  0.00     0.010 C 
HETATM   24  C   UNK N   1      27.380  21.029   6.069  0.00  0.00     0.006 C 
ENDBRANCH   2  23
TORSDOF 2
ENDMDL
MODEL 8
REMARK VINA RESULT:      -6.9      2.817      3.710
REMARK  2 active torsions:
REMARK  status: ('A' for Active; 'I' for Inactive)
REMARK    1  A    between atoms: C_10  and  O_1 
REMARK    2  A    between atoms: C_3  and  C_12 
ROOT
HETATM    1  O   UNK N   1      25.720  23.528 -11.414  0.00  0.00    -0.293 OA
HETATM    2  C   UNK N   1      27.072  28.201  -4.514  0.00  0.00     0.013 C 
HETATM    3  C   UNK N   1      27.440  27.849  -7.077  0.00  0.00    -0.001 C 
HETATM    4  C   UNK N   1      28.008  28.408  -5.747  0.00  0.00     0.025 C 
HETATM    5  C   UNK N   1      26.664  26.545  -6.866  0.00  0.00    -0.002 C 
HETATM    6  C   UNK N   1      25.628  28.016  -5.039  0.00  0.00     0.015 C 
HETATM    7  C   UNK N   1      25.485  26.765  -5.909  0.00  0.00     0.007 C 
HETATM    8  C   UNK N   1      26.086  25.972  -8.164  0.00  0.00     0.019 C 
HETATM    9  C   UNK N   1      27.163  29.555  -3.729  0.00  0.00     0.146 C 
HETATM   10  C   UNK N   1      28.533  27.670  -8.127  0.00  0.00     0.010 C 
HETATM   11  C   UNK N   1      28.051  29.895  -5.869  0.00  0.00    -0.021 C 
HETATM   12  C   UNK N   1      27.019  26.105  -9.351  0.00  0.00    -0.072 C 
HETATM   13  C   UNK N   1      27.904  27.313  -9.471  0.00  0.00     0.035 C 
HETATM   14  C   UNK N   1      27.565  30.510  -4.800  0.00  0.00     0.021 C 
HETATM   15  C   UNK N   1      25.719  24.506  -7.921  0.00  0.00     0.017 C 
HETATM   16  C   UNK N   1      25.119  23.853  -9.161  0.00  0.00     0.084 C 
HETATM   17  C   UNK N   1      26.877  25.297 -10.413  0.00  0.00     0.053 C 
HETATM   18  C   UNK N   1      28.184  29.654  -2.670  0.00  0.00    -0.074 C 
HETATM   19  C   UNK N   1      25.908  24.177 -10.399  0.00  0.00     0.149 C 
HETATM   20  C   UNK N   1      29.049  29.785  -1.839  0.00  0.00     0.015 C 
ENDROOT
BRANCH   9  21
HETATM   21  O   UNK N   1      25.937  29.909  -3.168  0.00  0.00    -0.373 OA
HETATM   22  H   UNK N   1      25.420  29.860  -2.349  0.00  0.00     0.212 HD
ENDBRANCH   9  21
BRANCH   2  23
HETATM   23  C   UNK N   1      27.474  26.964  -3.688  0.00  0.00     0.010 C 
HETATM   24  C   UNK N   1      28.849  26.419  -4.060  0.00  0.00     0.006 C 
ENDBRANCH   2  23
TORSDOF 2
ENDMDL
MODEL 9
REMARK VINA RESULT:      -6.7      3.554      7.273
REMARK  2 active torsions:
REMARK  status: ('A' for Active; 'I' for Inactive)
REMARK    1  A    between atoms: C_10  and  O_1 
REMARK    2  A    between atoms: C_3  and  C_12 
ROOT
HETATM    1  O   UNK N   1      25.082  23.610  -7.839  0.00  0.00    -0.293 OA
HETATM    2  C   UNK N   1      32.623  21.027  -5.057  0.00  0.00     0.013 C 
HETATM    3  C   UNK N   1      30.450  22.418  -4.645  0.00  0.00    -0.001 C 
HETATM    4  C   UNK N   1      31.972  22.279  -4.388  0.00  0.00     0.025 C 
HETATM    5  C   UNK N   1      30.063  21.970  -6.058  0.00  0.00    -0.002 C 
HETATM    6  C   UNK N   1      31.505  19.987  -5.307  0.00  0.00     0.015 C 
HETATM    7  C   UNK N   1      30.444  20.501  -6.283  0.00  0.00     0.007 C 
HETATM    8  C   UNK N   1      28.562  22.092  -6.339  0.00  0.00     0.019 C 
HETATM    9  C   UNK N   1      33.605  20.474  -3.968  0.00  0.00     0.146 C 
HETATM   10  C   UNK N   1      29.958  23.836  -4.368  0.00  0.00     0.010 C 
HETATM   11  C   UNK N   1      32.156  21.995  -2.934  0.00  0.00    -0.021 C 
HETATM   12  C   UNK N   1      27.937  23.342  -5.752  0.00  0.00    -0.072 C 
HETATM   13  C   UNK N   1      28.433  23.876  -4.439  0.00  0.00     0.035 C 
HETATM   14  C   UNK N   1      33.006  21.002  -2.710  0.00  0.00     0.021 C 
HETATM   15  C   UNK N   1      28.350  22.036  -7.853  0.00  0.00     0.017 C 
HETATM   16  C   UNK N   1      26.876  22.136  -8.229  0.00  0.00     0.084 C 
HETATM   17  C   UNK N   1      26.789  23.820  -6.255  0.00  0.00     0.053 C 
HETATM   18  C   UNK N   1      34.997  20.954  -4.008  0.00  0.00    -0.074 C 
HETATM   19  C   UNK N   1      26.179  23.229  -7.469  0.00  0.00     0.149 C 
HETATM   20  C   UNK N   1      36.128  21.376  -3.979  0.00  0.00     0.015 C 
ENDROOT
BRANCH   9  21
HETATM   21  O   UNK N   1      33.640  19.080  -3.966  0.00  0.00    -0.373 OA
HETATM   22  H   UNK N   1      34.204  18.322  -3.747  0.00  0.00     0.212 HD
ENDBRANCH   9  21
BRANCH   2  23
HETATM   23  C   UNK N   1      33.299  21.377  -6.398  0.00  0.00     0.010 C 
HETATM   24  C   UNK N   1      33.538  22.873  -6.572  0.00  0.00     0.006 C 
ENDBRANCH   2  23
TORSDOF 2
ENDMDL
