MODEL 1
REMARK VINA RESULT:      -7.2      0.000      0.000
REMARK  1 active torsions:
REMARK  status: ('A' for Active; 'I' for Inactive)
REMARK    1  A    between atoms: C_11  and  C_14 
ROOT
HETATM    1 Cl   UNK N   1      24.552  15.005   6.784  0.00  0.00    -0.084 Cl
HETATM    2  N   UNK N   1      20.856  18.233   3.324  0.00  0.00    -0.293 N 
HETATM    3  N   UNK N   1      23.263  20.154   3.184  0.00  0.00    -0.381 N 
ATOM      4  HN  UNK N   1      23.904  20.925   2.995  1.00  0.00     0.160 HD
HETATM    5  N   UNK N   1      19.731  19.625   2.024  0.00  0.00    -0.286 N 
ATOM      6  HN  UNK N   1      19.508  20.436   1.447  1.00  0.00     0.188 HD
HETATM    7  N   UNK N   1      18.930  18.612   2.295  0.00  0.00    -0.294 N 
ATOM      8  HN  UNK N   1      17.972  18.496   1.966  1.00  0.00     0.187 HD
HETATM    9  C   UNK N   1      21.812  17.532   4.139  0.00  0.00     0.054 A 
HETATM   10  C   UNK N   1      23.142  17.985   4.425  0.00  0.00     0.020 A 
HETATM   11  C   UNK N   1      23.816  19.268   3.945  0.00  0.00     0.051 A 
HETATM   12  C   UNK N   1      20.899  19.394   2.649  0.00  0.00     0.121 A 
HETATM   13  C   UNK N   1      22.001  20.361   2.530  0.00  0.00     0.198 A 
HETATM   14  C   UNK N   1      21.383  16.300   4.691  0.00  0.00     0.032 A 
HETATM   15  C   UNK N   1      23.923  17.152   5.246  0.00  0.00     0.040 A 
HETATM   16  C   UNK N   1      19.609  17.764   3.084  0.00  0.00     0.206 A 
HETATM   17  C   UNK N   1      22.201  15.519   5.497  0.00  0.00     0.026 A 
HETATM   18  C   UNK N   1      23.482  15.953   5.774  0.00  0.00     0.035 A 
ENDROOT
BRANCH  11  19
HETATM   19  C   UNK N   1      25.243  19.610   4.340  0.00  0.00    -0.009 A 
HETATM   20  C   UNK N   1      26.301  19.070   3.581  0.00  0.00     0.014 A 
HETATM   21  C   UNK N   1      27.632  19.347   3.898  0.00  0.00     0.001 A 
HETATM   22  C   UNK N   1      27.936  20.170   4.982  0.00  0.00     0.000 A 
HETATM   23  C   UNK N   1      26.908  20.716   5.748  0.00  0.00     0.001 A 
HETATM   24  C   UNK N   1      25.579  20.437   5.428  0.00  0.00     0.014 A 
ENDBRANCH  11  19
TORSDOF 1
ENDMDL
MODEL 2
REMARK VINA RESULT:      -7.0      6.670      9.178
REMARK  1 active torsions:
REMARK  status: ('A' for Active; 'I' for Inactive)
REMARK    1  A    between atoms: C_11  and  C_14 
ROOT
HETATM    1 Cl   UNK N   1      32.872  15.315   3.600  0.00  0.00    -0.084 Cl
HETATM    2  N   UNK N   1      28.822  18.350   6.832  0.00  0.00    -0.293 N 
HETATM    3  N   UNK N   1      30.631  17.528   9.188  0.00  0.00    -0.381 N 
ATOM      4  HN  UNK N   1      31.060  17.381  10.103  1.00  0.00     0.160 HD
HETATM    5  N   UNK N   1      27.505  19.394   8.270  0.00  0.00    -0.286 N 
ATOM      6  HN  UNK N   1      27.134  19.755   9.148  1.00  0.00     0.188 HD
HETATM    7  N   UNK N   1      26.979  19.558   7.071  0.00  0.00    -0.294 N 
ATOM      8  HN  UNK N   1      26.125  20.070   6.852  1.00  0.00     0.187 HD
HETATM    9  C   UNK N   1      29.842  17.604   6.144  0.00  0.00     0.054 A 
HETATM   10  C   UNK N   1      30.966  16.974   6.772  0.00  0.00     0.020 A 
HETATM   11  C   UNK N   1      31.320  16.956   8.257  0.00  0.00     0.051 A 
HETATM   12  C   UNK N   1      28.622  18.660   8.123  0.00  0.00     0.121 A 
HETATM   13  C   UNK N   1      29.433  18.312   9.301  0.00  0.00     0.198 A 
HETATM   14  C   UNK N   1      29.702  17.497   4.739  0.00  0.00     0.032 A 
HETATM   15  C   UNK N   1      31.854  16.289   5.921  0.00  0.00     0.040 A 
HETATM   16  C   UNK N   1      27.776  18.926   6.194  0.00  0.00     0.206 A 
HETATM   17  C   UNK N   1      30.613  16.805   3.950  0.00  0.00     0.026 A 
HETATM   18  C   UNK N   1      31.696  16.198   4.551  0.00  0.00     0.035 A 
ENDROOT
BRANCH  11  19
HETATM   19  C   UNK N   1      32.557  16.236   8.769  0.00  0.00    -0.009 A 
HETATM   20  C   UNK N   1      33.730  16.985   8.991  0.00  0.00     0.014 A 
HETATM   21  C   UNK N   1      34.897  16.377   9.459  0.00  0.00     0.001 A 
HETATM   22  C   UNK N   1      34.918  15.006   9.714  0.00  0.00     0.000 A 
HETATM   23  C   UNK N   1      33.771  14.245   9.502  0.00  0.00     0.001 A 
HETATM   24  C   UNK N   1      32.606  14.854   9.035  0.00  0.00     0.014 A 
ENDBRANCH  11  19
TORSDOF 1
ENDMDL
MODEL 3
REMARK VINA RESULT:      -7.0      4.819      7.545
REMARK  1 active torsions:
REMARK  status: ('A' for Active; 'I' for Inactive)
REMARK    1  A    between atoms: C_11  and  C_14 
ROOT
HETATM    1 Cl   UNK N   1      28.545  15.269   2.012  0.00  0.00    -0.084 Cl
HETATM    2  N   UNK N   1      29.773  17.321   7.520  0.00  0.00    -0.293 N 
HETATM    3  N   UNK N   1      27.536  19.339   6.866  0.00  0.00    -0.381 N 
ATOM      4  HN  UNK N   1      26.849  20.094   6.878  1.00  0.00     0.160 HD
HETATM    5  N   UNK N   1      30.000  18.288   9.497  0.00  0.00    -0.286 N 
ATOM      6  HN  UNK N   1      29.854  18.924  10.280  1.00  0.00     0.188 HD
HETATM    7  N   UNK N   1      30.879  17.305   9.441  0.00  0.00    -0.294 N 
ATOM      8  HN  UNK N   1      31.539  17.043  10.173  1.00  0.00     0.187 HD
HETATM    9  C   UNK N   1      29.408  16.902   6.193  0.00  0.00     0.054 A 
HETATM   10  C   UNK N   1      28.390  17.510   5.387  0.00  0.00     0.020 A 
HETATM   11  C   UNK N   1      27.498  18.697   5.745  0.00  0.00     0.051 A 
HETATM   12  C   UNK N   1      29.331  18.297   8.331  0.00  0.00     0.121 A 
HETATM   13  C   UNK N   1      28.273  19.293   8.098  0.00  0.00     0.198 A 
HETATM   14  C   UNK N   1      30.124  15.801   5.663  0.00  0.00     0.032 A 
HETATM   15  C   UNK N   1      28.184  16.950   4.113  0.00  0.00     0.040 A 
HETATM   16  C   UNK N   1      30.745  16.715   8.242  0.00  0.00     0.206 A 
HETATM   17  C   UNK N   1      29.875  15.291   4.395  0.00  0.00     0.026 A 
HETATM   18  C   UNK N   1      28.896  15.874   3.617  0.00  0.00     0.035 A 
ENDROOT
BRANCH  11  19
HETATM   19  C   UNK N   1      26.459  19.229   4.773  0.00  0.00    -0.009 A 
HETATM   20  C   UNK N   1      26.860  20.173   3.806  0.00  0.00     0.014 A 
HETATM   21  C   UNK N   1      25.949  20.699   2.887  0.00  0.00     0.001 A 
HETATM   22  C   UNK N   1      24.615  20.293   2.915  0.00  0.00     0.000 A 
HETATM   23  C   UNK N   1      24.194  19.361   3.861  0.00  0.00     0.001 A 
HETATM   24  C   UNK N   1      25.107  18.838   4.778  0.00  0.00     0.014 A 
ENDBRANCH  11  19
TORSDOF 1
ENDMDL
MODEL 4
REMARK VINA RESULT:      -6.8     11.881     13.136
REMARK  1 active torsions:
REMARK  status: ('A' for Active; 'I' for Inactive)
REMARK    1  A    between atoms: C_11  and  C_14 
ROOT
HETATM    1 Cl   UNK N   1      30.587  22.115  -4.935  0.00  0.00    -0.084 Cl
HETATM    2  N   UNK N   1      26.960  26.834  -4.137  0.00  0.00    -0.293 N 
HETATM    3  N   UNK N   1      25.248  25.412  -6.269  0.00  0.00    -0.381 N 
ATOM      4  HN  UNK N   1      24.532  25.138  -6.943  1.00  0.00     0.160 HD
HETATM    5  N   UNK N   1      25.440  28.439  -4.057  0.00  0.00    -0.286 N 
ATOM      6  HN  UNK N   1      24.596  28.976  -4.254  1.00  0.00     0.188 HD
HETATM    7  N   UNK N   1      26.389  28.759  -3.198  0.00  0.00    -0.294 N 
ATOM      8  HN  UNK N   1      26.415  29.592  -2.610  1.00  0.00     0.187 HD
HETATM    9  C   UNK N   1      27.763  25.669  -4.397  0.00  0.00     0.054 A 
HETATM   10  C   UNK N   1      27.434  24.633  -5.332  0.00  0.00     0.020 A 
HETATM   11  C   UNK N   1      26.202  24.540  -6.229  0.00  0.00     0.051 A 
HETATM   12  C   UNK N   1      25.788  27.271  -4.625  0.00  0.00     0.121 A 
HETATM   13  C   UNK N   1      24.913  26.656  -5.635  0.00  0.00     0.198 A 
HETATM   14  C   UNK N   1      28.967  25.558  -3.659  0.00  0.00     0.032 A 
HETATM   15  C   UNK N   1      28.353  23.574  -5.440  0.00  0.00     0.040 A 
HETATM   16  C   UNK N   1      27.315  27.787  -3.243  0.00  0.00     0.206 A 
HETATM   17  C   UNK N   1      29.837  24.485  -3.810  0.00  0.00     0.026 A 
HETATM   18  C   UNK N   1      29.523  23.487  -4.709  0.00  0.00     0.035 A 
ENDROOT
BRANCH  11  19
HETATM   19  C   UNK N   1      25.997  23.369  -7.176  0.00  0.00    -0.009 A 
HETATM   20  C   UNK N   1      25.251  22.261  -6.728  0.00  0.00     0.014 A 
HETATM   21  C   UNK N   1      25.032  21.156  -7.553  0.00  0.00     0.001 A 
HETATM   22  C   UNK N   1      25.555  21.134  -8.845  0.00  0.00     0.000 A 
HETATM   23  C   UNK N   1      26.296  22.217  -9.312  0.00  0.00     0.001 A 
HETATM   24  C   UNK N   1      26.513  23.320  -8.485  0.00  0.00     0.014 A 
ENDBRANCH  11  19
TORSDOF 1
ENDMDL
MODEL 5
REMARK VINA RESULT:      -6.7      5.846      8.843
REMARK  1 active torsions:
REMARK  status: ('A' for Active; 'I' for Inactive)
REMARK    1  A    between atoms: C_11  and  C_14 
ROOT
HETATM    1 Cl   UNK N   1      28.416  18.263   9.406  0.00  0.00    -0.084 Cl
HETATM    2  N   UNK N   1      32.339  16.292   5.310  0.00  0.00    -0.293 N 
HETATM    3  N   UNK N   1      30.127  17.122   3.330  0.00  0.00    -0.381 N 
ATOM      4  HN  UNK N   1      29.557  17.313   2.505  1.00  0.00     0.160 HD
HETATM    5  N   UNK N   1      33.569  15.647   3.588  0.00  0.00    -0.286 N 
ATOM      6  HN  UNK N   1      33.860  15.459   2.629  1.00  0.00     0.188 HD
HETATM    7  N   UNK N   1      34.273  15.411   4.679  0.00  0.00    -0.294 N 
ATOM      8  HN  UNK N   1      35.208  15.006   4.719  1.00  0.00     0.187 HD
HETATM    9  C   UNK N   1      31.336  16.786   6.215  0.00  0.00     0.054 A 
HETATM   10  C   UNK N   1      30.061  17.313   5.824  0.00  0.00     0.020 A 
HETATM   11  C   UNK N   1      29.503  17.461   4.410  0.00  0.00     0.051 A 
HETATM   12  C   UNK N   1      32.397  16.180   3.972  0.00  0.00     0.121 A 
HETATM   13  C   UNK N   1      31.393  16.553   2.963  0.00  0.00     0.198 A 
HETATM   14  C   UNK N   1      31.656  16.739   7.593  0.00  0.00     0.032 A 
HETATM   15  C   UNK N   1      29.219  17.747   6.864  0.00  0.00     0.040 A 
HETATM   16  C   UNK N   1      33.530  15.801   5.728  0.00  0.00     0.206 A 
HETATM   17  C   UNK N   1      30.781  17.183   8.577  0.00  0.00     0.026 A 
HETATM   18  C   UNK N   1      29.554  17.690   8.205  0.00  0.00     0.035 A 
ENDROOT
BRANCH  11  19
HETATM   19  C   UNK N   1      28.121  18.041   4.160  0.00  0.00    -0.009 A 
HETATM   20  C   UNK N   1      27.060  17.158   3.877  0.00  0.00     0.014 A 
HETATM   21  C   UNK N   1      25.769  17.633   3.637  0.00  0.00     0.001 A 
HETATM   22  C   UNK N   1      25.510  19.003   3.674  0.00  0.00     0.000 A 
HETATM   23  C   UNK N   1      26.542  19.896   3.951  0.00  0.00     0.001 A 
HETATM   24  C   UNK N   1      27.831  19.418   4.191  0.00  0.00     0.014 A 
ENDBRANCH  11  19
TORSDOF 1
ENDMDL
MODEL 6
REMARK VINA RESULT:      -6.7      8.040     10.657
REMARK  1 active torsions:
REMARK  status: ('A' for Active; 'I' for Inactive)
REMARK    1  A    between atoms: C_11  and  C_14 
ROOT
HETATM    1 Cl   UNK N   1      29.157  17.490  10.230  0.00  0.00    -0.084 Cl
HETATM    2  N   UNK N   1      31.831  16.900   4.887  0.00  0.00    -0.293 N 
HETATM    3  N   UNK N   1      34.216  15.957   6.598  0.00  0.00    -0.381 N 
ATOM      4  HN  UNK N   1      35.117  15.623   6.942  1.00  0.00     0.160 HD
HETATM    5  N   UNK N   1      33.066  16.583   3.079  0.00  0.00    -0.286 N 
ATOM      6  HN  UNK N   1      33.859  16.343   2.485  1.00  0.00     0.188 HD
HETATM    7  N   UNK N   1      31.889  17.022   2.674  0.00  0.00    -0.294 N 
ATOM      8  HN  UNK N   1      31.605  17.185   1.709  1.00  0.00     0.187 HD
HETATM    9  C   UNK N   1      31.277  17.009   6.210  0.00  0.00     0.054 A 
HETATM   10  C   UNK N   1      31.971  16.689   7.423  0.00  0.00     0.020 A 
HETATM   11  C   UNK N   1      33.402  16.181   7.576  0.00  0.00     0.051 A 
HETATM   12  C   UNK N   1      33.030  16.510   4.421  0.00  0.00     0.121 A 
HETATM   13  C   UNK N   1      34.212  16.047   5.165  0.00  0.00     0.198 A 
HETATM   14  C   UNK N   1      29.940  17.469   6.295  0.00  0.00     0.032 A 
HETATM   15  C   UNK N   1      31.250  16.864   8.620  0.00  0.00     0.040 A 
HETATM   16  C   UNK N   1      31.136  17.216   3.770  0.00  0.00     0.206 A 
HETATM   17  C   UNK N   1      29.280  17.621   7.508  0.00  0.00     0.026 A 
HETATM   18  C   UNK N   1      29.945  17.315   8.677  0.00  0.00     0.035 A 
ENDROOT
BRANCH  11  19
HETATM   19  C   UNK N   1      33.998  15.889   8.944  0.00  0.00    -0.009 A 
HETATM   20  C   UNK N   1      34.811  16.868   9.549  0.00  0.00     0.014 A 
HETATM   21  C   UNK N   1      35.387  16.655  10.803  0.00  0.00     0.001 A 
HETATM   22  C   UNK N   1      35.163  15.456  11.480  0.00  0.00     0.000 A 
HETATM   23  C   UNK N   1      34.363  14.473  10.903  0.00  0.00     0.001 A 
HETATM   24  C   UNK N   1      33.789  14.689   9.650  0.00  0.00     0.014 A 
ENDBRANCH  11  19
TORSDOF 1
ENDMDL
MODEL 7
REMARK VINA RESULT:      -6.7     11.591     13.187
REMARK  1 active torsions:
REMARK  status: ('A' for Active; 'I' for Inactive)
REMARK    1  A    between atoms: C_11  and  C_14 
ROOT
HETATM    1 Cl   UNK N   1      27.584  21.159  -9.134  0.00  0.00    -0.084 Cl
HETATM    2  N   UNK N   1      31.395  21.006  -4.497  0.00  0.00    -0.293 N 
HETATM    3  N   UNK N   1      29.820  23.498  -3.596  0.00  0.00    -0.381 N 
ATOM      4  HN  UNK N   1      29.459  24.317  -3.106  1.00  0.00     0.160 HD
HETATM    5  N   UNK N   1      32.647  21.202  -2.684  0.00  0.00    -0.286 N 
ATOM      6  HN  UNK N   1      33.016  21.557  -1.803  1.00  0.00     0.188 HD
HETATM    7  N   UNK N   1      33.089  20.151  -3.350  0.00  0.00    -0.294 N 
ATOM      8  HN  UNK N   1      33.862  19.545  -3.078  1.00  0.00     0.187 HD
HETATM    9  C   UNK N   1      30.440  21.125  -5.566  0.00  0.00     0.054 A 
HETATM   10  C   UNK N   1      29.433  22.141  -5.662  0.00  0.00     0.020 A 
HETATM   11  C   UNK N   1      29.159  23.282  -4.686  0.00  0.00     0.051 A 
HETATM   12  C   UNK N   1      31.621  21.719  -3.382  0.00  0.00     0.121 A 
HETATM   13  C   UNK N   1      30.919  22.911  -2.881  0.00  0.00     0.198 A 
HETATM   14  C   UNK N   1      30.520  20.151  -6.592  0.00  0.00     0.032 A 
HETATM   15  C   UNK N   1      28.593  22.083  -6.790  0.00  0.00     0.040 A 
HETATM   16  C   UNK N   1      32.331  20.028  -4.452  0.00  0.00     0.206 A 
HETATM   17  C   UNK N   1      29.661  20.146  -7.683  0.00  0.00     0.026 A 
HETATM   18  C   UNK N   1      28.690  21.122  -7.779  0.00  0.00     0.035 A 
ENDROOT
BRANCH  11  19
HETATM   19  C   UNK N   1      28.046  24.287  -4.932  0.00  0.00    -0.009 A 
HETATM   20  C   UNK N   1      28.375  25.531  -5.508  0.00  0.00     0.014 A 
HETATM   21  C   UNK N   1      27.395  26.494  -5.756  0.00  0.00     0.001 A 
HETATM   22  C   UNK N   1      26.063  26.235  -5.433  0.00  0.00     0.000 A 
HETATM   23  C   UNK N   1      25.713  25.014  -4.863  0.00  0.00     0.001 A 
HETATM   24  C   UNK N   1      26.695  24.053  -4.616  0.00  0.00     0.014 A 
ENDBRANCH  11  19
TORSDOF 1
ENDMDL
MODEL 8
REMARK VINA RESULT:      -6.7     11.334     13.170
REMARK  1 active torsions:
REMARK  status: ('A' for Active; 'I' for Inactive)
REMARK    1  A    between atoms: C_11  and  C_14 
ROOT
HETATM    1 Cl   UNK N   1      33.570  26.659  -4.850  0.00  0.00    -0.084 Cl
HETATM    2  N   UNK N   1      27.776  27.706  -3.676  0.00  0.00    -0.293 N 
HETATM    3  N   UNK N   1      27.615  24.628  -3.602  0.00  0.00    -0.381 N 
ATOM      4  HN  UNK N   1      27.321  23.654  -3.531  1.00  0.00     0.160 HD
HETATM    5  N   UNK N   1      25.610  27.781  -3.231  0.00  0.00    -0.286 N 
ATOM      6  HN  UNK N   1      24.657  27.478  -3.030  1.00  0.00     0.188 HD
HETATM    7  N   UNK N   1      26.029  29.028  -3.335  0.00  0.00    -0.294 N 
ATOM      8  HN  UNK N   1      25.459  29.867  -3.231  1.00  0.00     0.187 HD
HETATM    9  C   UNK N   1      29.144  27.356  -3.952  0.00  0.00     0.054 A 
HETATM   10  C   UNK N   1      29.650  26.017  -4.039  0.00  0.00     0.020 A 
HETATM   11  C   UNK N   1      28.878  24.712  -3.865  0.00  0.00     0.051 A 
HETATM   12  C   UNK N   1      26.670  26.980  -3.439  0.00  0.00     0.121 A 
HETATM   13  C   UNK N   1      26.510  25.519  -3.384  0.00  0.00     0.198 A 
HETATM   14  C   UNK N   1      30.040  28.434  -4.149  0.00  0.00     0.032 A 
HETATM   15  C   UNK N   1      31.023  25.886  -4.319  0.00  0.00     0.040 A 
HETATM   16  C   UNK N   1      27.344  28.987  -3.605  0.00  0.00     0.206 A 
HETATM   17  C   UNK N   1      31.389  28.241  -4.422  0.00  0.00     0.026 A 
HETATM   18  C   UNK N   1      31.879  26.954  -4.507  0.00  0.00     0.035 A 
ENDROOT
BRANCH  11  19
HETATM   19  C   UNK N   1      29.564  23.362  -3.991  0.00  0.00    -0.009 A 
HETATM   20  C   UNK N   1      29.482  22.675  -5.219  0.00  0.00     0.014 A 
HETATM   21  C   UNK N   1      30.091  21.430  -5.394  0.00  0.00     0.001 A 
HETATM   22  C   UNK N   1      30.796  20.844  -4.343  0.00  0.00     0.000 A 
HETATM   23  C   UNK N   1      30.892  21.503  -3.120  0.00  0.00     0.001 A 
HETATM   24  C   UNK N   1      30.282  22.747  -2.949  0.00  0.00     0.014 A 
ENDBRANCH  11  19
TORSDOF 1
ENDMDL
MODEL 9
REMARK VINA RESULT:      -6.6      5.440      7.313
REMARK  1 active torsions:
REMARK  status: ('A' for Active; 'I' for Inactive)
REMARK    1  A    between atoms: C_11  and  C_14 
ROOT
HETATM    1 Cl   UNK N   1      31.779  16.011   9.375  0.00  0.00    -0.084 Cl
HETATM    2  N   UNK N   1      27.668  19.513   6.750  0.00  0.00    -0.293 N 
HETATM    3  N   UNK N   1      28.898  18.385   4.158  0.00  0.00    -0.381 N 
ATOM      4  HN  UNK N   1      29.135  18.159   3.192  1.00  0.00     0.160 HD
HETATM    5  N   UNK N   1      26.267  20.696   5.512  0.00  0.00    -0.286 N 
ATOM      6  HN  UNK N   1      25.796  21.084   4.695  1.00  0.00     0.188 HD
HETATM    7  N   UNK N   1      25.994  20.966   6.775  0.00  0.00    -0.294 N 
ATOM      8  HN  UNK N   1      25.272  21.602   7.113  1.00  0.00     0.187 HD
HETATM    9  C   UNK N   1      28.683  18.646   7.286  0.00  0.00     0.054 A 
HETATM   10  C   UNK N   1      29.583  17.849   6.504  0.00  0.00     0.020 A 
HETATM   11  C   UNK N   1      29.661  17.747   4.983  0.00  0.00     0.051 A 
HETATM   12  C   UNK N   1      27.283  19.816   5.499  0.00  0.00     0.121 A 
HETATM   13  C   UNK N   1      27.812  19.323   4.217  0.00  0.00     0.198 A 
HETATM   14  C   UNK N   1      28.782  18.592   8.698  0.00  0.00     0.032 A 
HETATM   15  C   UNK N   1      30.506  17.065   7.221  0.00  0.00     0.040 A 
HETATM   16  C   UNK N   1      26.842  20.249   7.531  0.00  0.00     0.206 A 
HETATM   17  C   UNK N   1      29.716  17.797   9.350  0.00  0.00     0.026 A 
HETATM   18  C   UNK N   1      30.583  17.029   8.601  0.00  0.00     0.035 A 
ENDROOT
BRANCH  11  19
HETATM   19  C   UNK N   1      30.681  16.850   4.300  0.00  0.00    -0.009 A 
HETATM   20  C   UNK N   1      31.940  17.390   3.971  0.00  0.00     0.014 A 
HETATM   21  C   UNK N   1      32.917  16.615   3.341  0.00  0.00     0.001 A 
HETATM   22  C   UNK N   1      32.655  15.282   3.026  0.00  0.00     0.000 A 
HETATM   23  C   UNK N   1      31.418  14.725   3.342  0.00  0.00     0.001 A 
HETATM   24  C   UNK N   1      30.445  15.502   3.971  0.00  0.00     0.014 A 
ENDBRANCH  11  19
TORSDOF 1
ENDMDL
