MODEL 1
REMARK VINA RESULT:      -6.0      0.000      0.000
REMARK  4 active torsions:
REMARK  status: ('A' for Active; 'I' for Inactive)
REMARK    1  A    between atoms: O_1  and  C_7 
REMARK    2  A    between atoms: O_1  and  C_13 
REMARK    3  A    between atoms: C_5  and  C_6 
REMARK    4  A    between atoms: C_8  and  C_13 
ROOT
HETATM    1  C   UNK N   1      35.134  11.186  15.422  0.00  0.00    -0.021 A 
HETATM    2  C   UNK N   1      35.088  12.588  15.574  0.00  0.00     0.076 A 
HETATM    3  C   UNK N   1      35.206  10.375  16.567  0.00  0.00     0.011 A 
HETATM    4  C   UNK N   1      35.117  13.152  16.861  0.00  0.00     0.044 A 
HETATM    5  C   UNK N   1      35.186  12.330  17.990  0.00  0.00    -0.059 A 
HETATM    6  C   UNK N   1      35.232  10.944  17.841  0.00  0.00     0.007 A 
HETATM    7  C   UNK N   1      35.208  12.931  19.349  0.00  0.00     0.048 C 
ENDROOT
BRANCH   2   8
HETATM    8  O   UNK N   1      35.032  13.363  14.467  0.00  0.00    -0.343 OA
BRANCH   8   9
HETATM    9  C   UNK N   1      36.074  14.103  13.962  0.00  0.00     0.251 C 
BRANCH   9  10
HETATM   10  C   UNK N   1      35.744  14.490  12.554  0.00  0.00     0.097 A 
HETATM   11  N   UNK N   1      34.669  13.959  11.842  0.00  0.00    -0.377 N 
HETATM   12  C   UNK N   1      34.652  14.544  10.529  0.00  0.00     0.140 A 
HETATM   13  H   UNK N   1      34.028  13.293  12.182  0.00  0.00     0.160 HD
HETATM   14  C   UNK N   1      35.871  15.500  10.562  0.00  0.00     0.140 A 
HETATM   15  N   UNK N   1      36.420  15.329  11.890  0.00  0.00    -0.377 N 
ATOM     16  HN  UNK N   1      37.241  15.820  12.244  1.00  0.00     0.160 HD
ENDBRANCH   9  10
ENDBRANCH   8   9
ENDBRANCH   2   8
BRANCH   1  17
HETATM   17  C   UNK N   1      35.088  10.573  14.033  0.00  0.00     0.013 C 
HETATM   18  C   UNK N   1      33.683  10.453  13.460  0.00  0.00     0.015 C 
HETATM   19  C   UNK N   1      35.740   9.200  14.000  0.00  0.00     0.015 C 
ENDBRANCH   1  17
TORSDOF 4
ENDMDL
MODEL 2
REMARK VINA RESULT:      -5.9      5.881      9.646
REMARK  4 active torsions:
REMARK  status: ('A' for Active; 'I' for Inactive)
REMARK    1  A    between atoms: O_1  and  C_7 
REMARK    2  A    between atoms: O_1  and  C_13 
REMARK    3  A    between atoms: C_5  and  C_6 
REMARK    4  A    between atoms: C_8  and  C_13 
ROOT
HETATM    1  C   UNK N   1      31.495  17.067   6.272  0.00  0.00    -0.021 A 
HETATM    2  C   UNK N   1      32.187  17.435   7.445  0.00  0.00     0.076 A 
HETATM    3  C   UNK N   1      30.094  17.169   6.244  0.00  0.00     0.011 A 
HETATM    4  C   UNK N   1      31.471  17.895   8.563  0.00  0.00     0.044 A 
HETATM    5  C   UNK N   1      30.077  17.993   8.517  0.00  0.00    -0.059 A 
HETATM    6  C   UNK N   1      29.391  17.628   7.358  0.00  0.00     0.007 A 
HETATM    7  C   UNK N   1      29.325  18.487   9.699  0.00  0.00     0.048 C 
ENDROOT
BRANCH   2   8
HETATM    8  O   UNK N   1      33.535  17.323   7.470  0.00  0.00    -0.343 OA
BRANCH   8   9
HETATM    9  C   UNK N   1      34.367  17.949   8.366  0.00  0.00     0.251 C 
BRANCH   9  10
HETATM   10  C   UNK N   1      34.869  16.930   9.342  0.00  0.00     0.097 A 
HETATM   11  N   UNK N   1      35.104  17.204  10.688  0.00  0.00    -0.377 N 
HETATM   12  C   UNK N   1      35.583  16.007  11.325  0.00  0.00     0.140 A 
HETATM   13  H   UNK N   1      34.966  18.073  11.130  0.00  0.00     0.160 HD
HETATM   14  C   UNK N   1      35.599  14.981  10.163  0.00  0.00     0.140 A 
HETATM   15  N   UNK N   1      35.128  15.733   9.020  0.00  0.00    -0.377 N 
ATOM     16  HN  UNK N   1      35.018  15.350   8.081  1.00  0.00     0.160 HD
ENDBRANCH   9  10
ENDBRANCH   8   9
ENDBRANCH   2   8
BRANCH   1  17
HETATM   17  C   UNK N   1      32.268  16.584   5.056  0.00  0.00     0.013 C 
HETATM   18  C   UNK N   1      32.437  17.642   3.975  0.00  0.00     0.015 C 
HETATM   19  C   UNK N   1      31.626  15.357   4.431  0.00  0.00     0.015 C 
ENDBRANCH   1  17
TORSDOF 4
ENDMDL
MODEL 3
REMARK VINA RESULT:      -5.8      6.102     10.314
REMARK  4 active torsions:
REMARK  status: ('A' for Active; 'I' for Inactive)
REMARK    1  A    between atoms: O_1  and  C_7 
REMARK    2  A    between atoms: O_1  and  C_13 
REMARK    3  A    between atoms: C_5  and  C_6 
REMARK    4  A    between atoms: C_8  and  C_13 
ROOT
HETATM    1  C   UNK N   1      30.422  17.403   7.176  0.00  0.00    -0.021 A 
HETATM    2  C   UNK N   1      31.806  17.155   7.075  0.00  0.00     0.076 A 
HETATM    3  C   UNK N   1      29.670  17.577   6.002  0.00  0.00     0.011 A 
HETATM    4  C   UNK N   1      32.413  17.087   5.809  0.00  0.00     0.044 A 
HETATM    5  C   UNK N   1      31.650  17.259   4.651  0.00  0.00    -0.059 A 
HETATM    6  C   UNK N   1      30.281  17.506   4.748  0.00  0.00     0.007 A 
HETATM    7  C   UNK N   1      32.295  17.178   3.314  0.00  0.00     0.048 C 
ENDROOT
BRANCH   2   8
HETATM    8  O   UNK N   1      32.527  17.002   8.210  0.00  0.00    -0.343 OA
BRANCH   8   9
HETATM    9  C   UNK N   1      33.635  17.738   8.552  0.00  0.00     0.251 C 
BRANCH   9  10
HETATM   10  C   UNK N   1      34.566  16.861   9.331  0.00  0.00     0.097 A 
HETATM   11  N   UNK N   1      35.050  15.643   8.859  0.00  0.00    -0.377 N 
HETATM   12  C   UNK N   1      35.908  15.069   9.860  0.00  0.00     0.140 A 
HETATM   13  H   UNK N   1      34.840  15.241   7.985  0.00  0.00     0.160 HD
HETATM   14  C   UNK N   1      35.865  16.122  10.996  0.00  0.00     0.140 A 
HETATM   15  N   UNK N   1      34.986  17.154  10.489  0.00  0.00    -0.377 N 
ATOM     16  HN  UNK N   1      34.739  18.004  10.996  1.00  0.00     0.160 HD
ENDBRANCH   9  10
ENDBRANCH   8   9
ENDBRANCH   2   8
BRANCH   1  17
HETATM   17  C   UNK N   1      29.760  17.463   8.542  0.00  0.00     0.013 C 
HETATM   18  C   UNK N   1      28.248  17.290   8.501  0.00  0.00     0.015 C 
HETATM   19  C   UNK N   1      30.075  18.761   9.266  0.00  0.00     0.015 C 
ENDBRANCH   1  17
TORSDOF 4
ENDMDL
MODEL 4
REMARK VINA RESULT:      -5.7      1.603      2.266
REMARK  4 active torsions:
REMARK  status: ('A' for Active; 'I' for Inactive)
REMARK    1  A    between atoms: O_1  and  C_7 
REMARK    2  A    between atoms: O_1  and  C_13 
REMARK    3  A    between atoms: C_5  and  C_6 
REMARK    4  A    between atoms: C_8  and  C_13 
ROOT
HETATM    1  C   UNK N   1      35.361  11.231  17.411  0.00  0.00    -0.021 A 
HETATM    2  C   UNK N   1      35.422  12.220  16.407  0.00  0.00     0.076 A 
HETATM    3  C   UNK N   1      35.297  11.626  18.758  0.00  0.00     0.011 A 
HETATM    4  C   UNK N   1      35.419  13.580  16.765  0.00  0.00     0.044 A 
HETATM    5  C   UNK N   1      35.351  13.955  18.110  0.00  0.00    -0.059 A 
HETATM    6  C   UNK N   1      35.292  12.978  19.104  0.00  0.00     0.007 A 
HETATM    7  C   UNK N   1      35.340  15.393  18.483  0.00  0.00     0.048 C 
ENDROOT
BRANCH   2   8
HETATM    8  O   UNK N   1      35.497  11.833  15.113  0.00  0.00    -0.343 OA
BRANCH   8   9
HETATM    9  C   UNK N   1      36.529  12.128  14.255  0.00  0.00     0.251 C 
BRANCH   9  10
HETATM   10  C   UNK N   1      36.055  13.155  13.274  0.00  0.00     0.097 A 
HETATM   11  N   UNK N   1      34.921  12.993  12.479  0.00  0.00    -0.377 N 
HETATM   12  C   UNK N   1      34.765  14.161  11.657  0.00  0.00     0.140 A 
HETATM   13  H   UNK N   1      34.326  12.208  12.480  0.00  0.00     0.160 HD
HETATM   14  C   UNK N   1      35.969  15.042  12.077  0.00  0.00     0.140 A 
HETATM   15  N   UNK N   1      36.650  14.255  13.082  0.00  0.00    -0.377 N 
ATOM     16  HN  UNK N   1      37.496  14.548  13.571  1.00  0.00     0.160 HD
ENDBRANCH   9  10
ENDBRANCH   8   9
ENDBRANCH   2   8
BRANCH   1  17
HETATM   17  C   UNK N   1      35.350   9.761  17.027  0.00  0.00     0.013 C 
HETATM   18  C   UNK N   1      34.560   8.882  17.986  0.00  0.00     0.015 C 
HETATM   19  C   UNK N   1      36.756   9.198  16.906  0.00  0.00     0.015 C 
ENDBRANCH   1  17
TORSDOF 4
ENDMDL
MODEL 5
REMARK VINA RESULT:      -5.7      1.887      2.303
REMARK  4 active torsions:
REMARK  status: ('A' for Active; 'I' for Inactive)
REMARK    1  A    between atoms: O_1  and  C_7 
REMARK    2  A    between atoms: O_1  and  C_13 
REMARK    3  A    between atoms: C_5  and  C_6 
REMARK    4  A    between atoms: C_8  and  C_13 
ROOT
HETATM    1  C   UNK N   1      35.387  12.058  15.959  0.00  0.00    -0.021 A 
HETATM    2  C   UNK N   1      36.081  13.074  15.269  0.00  0.00     0.076 A 
HETATM    3  C   UNK N   1      35.034  12.262  17.304  0.00  0.00     0.011 A 
HETATM    4  C   UNK N   1      36.410  14.269  15.932  0.00  0.00     0.044 A 
HETATM    5  C   UNK N   1      36.049  14.457  17.269  0.00  0.00    -0.059 A 
HETATM    6  C   UNK N   1      35.364  13.453  17.954  0.00  0.00     0.007 A 
HETATM    7  C   UNK N   1      36.393  15.725  17.963  0.00  0.00     0.048 C 
ENDROOT
BRANCH   2   8
HETATM    8  O   UNK N   1      36.428  12.866  13.978  0.00  0.00    -0.343 OA
BRANCH   8   9
HETATM    9  C   UNK N   1      35.890  13.519  12.896  0.00  0.00     0.251 C 
BRANCH   9  10
HETATM   10  C   UNK N   1      36.912  13.549  11.802  0.00  0.00     0.097 A 
HETATM   11  N   UNK N   1      36.929  14.509  10.792  0.00  0.00    -0.377 N 
HETATM   12  C   UNK N   1      38.035  14.235   9.915  0.00  0.00     0.140 A 
HETATM   13  H   UNK N   1      36.290  15.252  10.694  0.00  0.00     0.160 HD
HETATM   14  C   UNK N   1      38.674  12.973  10.549  0.00  0.00     0.140 A 
HETATM   15  N   UNK N   1      37.844  12.698  11.702  0.00  0.00    -0.377 N 
ATOM     16  HN  UNK N   1      37.990  11.922  12.348  1.00  0.00     0.160 HD
ENDBRANCH   9  10
ENDBRANCH   8   9
ENDBRANCH   2   8
BRANCH   1  17
HETATM   17  C   UNK N   1      35.016  10.771  15.242  0.00  0.00     0.013 C 
HETATM   18  C   UNK N   1      33.624  10.790  14.626  0.00  0.00     0.015 C 
HETATM   19  C   UNK N   1      35.120   9.564  16.159  0.00  0.00     0.015 C 
ENDBRANCH   1  17
TORSDOF 4
ENDMDL
MODEL 6
REMARK VINA RESULT:      -5.5     12.845     14.425
REMARK  4 active torsions:
REMARK  status: ('A' for Active; 'I' for Inactive)
REMARK    1  A    between atoms: O_1  and  C_7 
REMARK    2  A    between atoms: O_1  and  C_13 
REMARK    3  A    between atoms: C_5  and  C_6 
REMARK    4  A    between atoms: C_8  and  C_13 
ROOT
HETATM    1  C   UNK N   1      23.212  12.489   9.096  0.00  0.00    -0.021 A 
HETATM    2  C   UNK N   1      22.034  12.656   9.853  0.00  0.00     0.076 A 
HETATM    3  C   UNK N   1      24.400  12.118   9.750  0.00  0.00     0.011 A 
HETATM    4  C   UNK N   1      22.063  12.453  11.244  0.00  0.00     0.044 A 
HETATM    5  C   UNK N   1      23.252  12.081  11.878  0.00  0.00    -0.059 A 
HETATM    6  C   UNK N   1      24.418  11.916  11.131  0.00  0.00     0.007 A 
HETATM    7  C   UNK N   1      23.276  11.860  13.347  0.00  0.00     0.048 C 
ENDROOT
BRANCH   2   8
HETATM    8  O   UNK N   1      20.898  13.026   9.220  0.00  0.00    -0.343 OA
BRANCH   8   9
HETATM    9  C   UNK N   1      20.127  14.117   9.543  0.00  0.00     0.251 C 
BRANCH   9  10
HETATM   10  C   UNK N   1      20.298  15.153   8.476  0.00  0.00     0.097 A 
HETATM   11  N   UNK N   1      20.455  14.847   7.125  0.00  0.00    -0.377 N 
HETATM   12  C   UNK N   1      20.598  16.073   6.388  0.00  0.00     0.140 A 
HETATM   13  H   UNK N   1      20.467  13.941   6.739  0.00  0.00     0.160 HD
HETATM   14  C   UNK N   1      20.503  17.153   7.495  0.00  0.00     0.140 A 
HETATM   15  N   UNK N   1      20.321  16.396   8.715  0.00  0.00    -0.377 N 
ATOM     16  HN  UNK N   1      20.222  16.808   9.643  1.00  0.00     0.160 HD
ENDBRANCH   9  10
ENDBRANCH   8   9
ENDBRANCH   2   8
BRANCH   1  17
HETATM   17  C   UNK N   1      23.182  12.694   7.591  0.00  0.00     0.013 C 
HETATM   18  C   UNK N   1      22.793  11.447   6.809  0.00  0.00     0.015 C 
HETATM   19  C   UNK N   1      24.515  13.197   7.063  0.00  0.00     0.015 C 
ENDBRANCH   1  17
TORSDOF 4
ENDMDL
MODEL 7
REMARK VINA RESULT:      -5.3      1.474      3.705
REMARK  4 active torsions:
REMARK  status: ('A' for Active; 'I' for Inactive)
REMARK    1  A    between atoms: O_1  and  C_7 
REMARK    2  A    between atoms: O_1  and  C_13 
REMARK    3  A    between atoms: C_5  and  C_6 
REMARK    4  A    between atoms: C_8  and  C_13 
ROOT
HETATM    1  C   UNK N   1      35.235  12.095  14.864  0.00  0.00    -0.021 A 
HETATM    2  C   UNK N   1      34.811  12.239  13.527  0.00  0.00     0.076 A 
HETATM    3  C   UNK N   1      35.504  10.809  15.362  0.00  0.00     0.011 A 
HETATM    4  C   UNK N   1      34.663  11.102  12.714  0.00  0.00     0.044 A 
HETATM    5  C   UNK N   1      34.938   9.830  13.224  0.00  0.00    -0.059 A 
HETATM    6  C   UNK N   1      35.355   9.685  14.547  0.00  0.00     0.007 A 
HETATM    7  C   UNK N   1      34.786   8.631  12.360  0.00  0.00     0.048 C 
ENDROOT
BRANCH   2   8
HETATM    8  O   UNK N   1      34.542  13.479  13.057  0.00  0.00    -0.343 OA
BRANCH   8   9
HETATM    9  C   UNK N   1      35.307  14.168  12.147  0.00  0.00     0.251 C 
BRANCH   9  10
HETATM   10  C   UNK N   1      34.460  14.479  10.953  0.00  0.00     0.097 A 
HETATM   11  N   UNK N   1      33.911  13.503  10.123  0.00  0.00    -0.377 N 
HETATM   12  C   UNK N   1      33.166  14.152   9.079  0.00  0.00     0.140 A 
HETATM   13  H   UNK N   1      34.016  12.530  10.234  0.00  0.00     0.160 HD
HETATM   14  C   UNK N   1      33.350  15.655   9.407  0.00  0.00     0.140 A 
HETATM   15  N   UNK N   1      34.178  15.660  10.594  0.00  0.00    -0.377 N 
ATOM     16  HN  UNK N   1      34.492  16.502  11.077  1.00  0.00     0.160 HD
ENDBRANCH   9  10
ENDBRANCH   8   9
ENDBRANCH   2   8
BRANCH   1  17
HETATM   17  C   UNK N   1      35.411  13.323  15.741  0.00  0.00     0.013 C 
HETATM   18  C   UNK N   1      36.785  13.968  15.626  0.00  0.00     0.015 C 
HETATM   19  C   UNK N   1      35.145  13.014  17.204  0.00  0.00     0.015 C 
ENDBRANCH   1  17
TORSDOF 4
ENDMDL
MODEL 8
REMARK VINA RESULT:      -5.2      2.267      4.019
REMARK  4 active torsions:
REMARK  status: ('A' for Active; 'I' for Inactive)
REMARK    1  A    between atoms: O_1  and  C_7 
REMARK    2  A    between atoms: O_1  and  C_13 
REMARK    3  A    between atoms: C_5  and  C_6 
REMARK    4  A    between atoms: C_8  and  C_13 
ROOT
HETATM    1  C   UNK N   1      35.815  13.439  14.332  0.00  0.00    -0.021 A 
HETATM    2  C   UNK N   1      34.765  12.736  14.958  0.00  0.00     0.076 A 
HETATM    3  C   UNK N   1      36.680  14.218  15.118  0.00  0.00     0.011 A 
HETATM    4  C   UNK N   1      34.597  12.824  16.351  0.00  0.00     0.044 A 
HETATM    5  C   UNK N   1      35.469  13.601  17.118  0.00  0.00    -0.059 A 
HETATM    6  C   UNK N   1      36.508  14.299  16.501  0.00  0.00     0.007 A 
HETATM    7  C   UNK N   1      35.293  13.686  18.591  0.00  0.00     0.048 C 
ENDROOT
BRANCH   2   8
HETATM    8  O   UNK N   1      33.927  11.997  14.194  0.00  0.00    -0.343 OA
BRANCH   8   9
HETATM    9  C   UNK N   1      33.821  10.628  14.227  0.00  0.00     0.251 C 
BRANCH   9  10
HETATM   10  C   UNK N   1      34.190  10.089  12.880  0.00  0.00     0.097 A 
HETATM   11  N   UNK N   1      35.329   9.321  12.644  0.00  0.00    -0.377 N 
HETATM   12  C   UNK N   1      35.375   8.982  11.248  0.00  0.00     0.140 A 
HETATM   13  H   UNK N   1      35.992   9.054  13.322  0.00  0.00     0.160 HD
HETATM   14  C   UNK N   1      34.099   9.659  10.686  0.00  0.00     0.140 A 
HETATM   15  N   UNK N   1      33.499  10.295  11.839  0.00  0.00    -0.377 N 
ATOM     16  HN  UNK N   1      32.635  10.836  11.817  1.00  0.00     0.160 HD
ENDBRANCH   9  10
ENDBRANCH   8   9
ENDBRANCH   2   8
BRANCH   1  17
HETATM   17  C   UNK N   1      36.008  13.334  12.829  0.00  0.00     0.013 C 
HETATM   18  C   UNK N   1      37.211  12.496  12.421  0.00  0.00     0.015 C 
HETATM   19  C   UNK N   1      36.131  14.701  12.179  0.00  0.00     0.015 C 
ENDBRANCH   1  17
TORSDOF 4
ENDMDL
MODEL 9
REMARK VINA RESULT:      -5.2     10.041     11.646
REMARK  4 active torsions:
REMARK  status: ('A' for Active; 'I' for Inactive)
REMARK    1  A    between atoms: O_1  and  C_7 
REMARK    2  A    between atoms: O_1  and  C_13 
REMARK    3  A    between atoms: C_5  and  C_6 
REMARK    4  A    between atoms: C_8  and  C_13 
ROOT
HETATM    1  C   UNK N   1      31.585  17.065   6.396  0.00  0.00    -0.021 A 
HETATM    2  C   UNK N   1      30.178  17.114   6.483  0.00  0.00     0.076 A 
HETATM    3  C   UNK N   1      32.354  17.541   7.471  0.00  0.00     0.011 A 
HETATM    4  C   UNK N   1      29.567  17.636   7.636  0.00  0.00     0.044 A 
HETATM    5  C   UNK N   1      30.347  18.102   8.698  0.00  0.00    -0.059 A 
HETATM    6  C   UNK N   1      31.739  18.056   8.613  0.00  0.00     0.007 A 
HETATM    7  C   UNK N   1      29.697  18.647   9.918  0.00  0.00     0.048 C 
ENDROOT
BRANCH   2   8
HETATM    8  O   UNK N   1      29.444  16.666   5.439  0.00  0.00    -0.343 OA
BRANCH   8   9
HETATM    9  C   UNK N   1      28.071  16.635   5.389  0.00  0.00     0.251 C 
BRANCH   9  10
HETATM   10  C   UNK N   1      27.575  18.015   5.086  0.00  0.00     0.097 A 
HETATM   11  N   UNK N   1      28.071  18.800   4.047  0.00  0.00    -0.377 N 
HETATM   12  C   UNK N   1      27.378  20.059   4.049  0.00  0.00     0.140 A 
HETATM   13  H   UNK N   1      28.780  18.536   3.416  0.00  0.00     0.160 HD
HETATM   14  C   UNK N   1      26.396  19.910   5.240  0.00  0.00     0.140 A 
HETATM   15  N   UNK N   1      26.665  18.586   5.757  0.00  0.00    -0.377 N 
ATOM     16  HN  UNK N   1      26.185  18.167   6.553  1.00  0.00     0.160 HD
ENDBRANCH   9  10
ENDBRANCH   8   9
ENDBRANCH   2   8
BRANCH   1  17
HETATM   17  C   UNK N   1      32.249  16.487   5.157  0.00  0.00     0.013 C 
HETATM   18  C   UNK N   1      33.546  15.745   5.445  0.00  0.00     0.015 C 
HETATM   19  C   UNK N   1      32.527  17.557   4.115  0.00  0.00     0.015 C 
ENDBRANCH   1  17
TORSDOF 4
ENDMDL
