REMARK  4 active torsions:
REMARK  status: ('A' for Active; 'I' for Inactive)
REMARK    1  A    between atoms: O_1  and  C_7 
REMARK    2  A    between atoms: O_1  and  C_13 
REMARK    3  A    between atoms: C_5  and  C_6 
REMARK    4  A    between atoms: C_8  and  C_13 
ROOT
HETATM    1  C   UNK N   1       2.709  -1.743   0.128  0.00  0.00    -0.021 A 
HETATM    2  C   UNK N   1       4.006  -1.189   0.119  0.00  0.00     0.076 A 
HETATM    3  C   UNK N   1       2.559  -3.136   0.023  0.00  0.00     0.011 A 
HETATM    4  C   UNK N   1       5.125  -2.032   0.005  0.00  0.00     0.044 A 
HETATM    5  C   UNK N   1       4.958  -3.416  -0.095  0.00  0.00    -0.059 A 
HETATM    6  C   UNK N   1       3.676  -3.966  -0.088  0.00  0.00     0.007 A 
HETATM    7  C   UNK N   1       6.144  -4.304  -0.208  0.00  0.00     0.048 C 
ENDROOT
BRANCH   2   8
HETATM    8  O   UNK N   1       4.143   0.154   0.207  0.00  0.00    -0.343 OA
BRANCH   8   9
HETATM    9  C   UNK N   1       5.332   0.838   0.125  0.00  0.00     0.251 C 
BRANCH   9  10
HETATM   10  C   UNK N   1       5.034   2.304   0.063  0.00  0.00     0.097 A 
HETATM   11  N   UNK N   1       3.742   2.827   0.067  0.00  0.00    -0.377 N 
HETATM   12  C   UNK N   1       3.825   4.260  -0.008  0.00  0.00     0.140 A 
HETATM   13  H   UNK N   1       2.910   2.302   0.113  0.00  0.00     0.160 HD
HETATM   14  C   UNK N   1       5.353   4.515  -0.057  0.00  0.00     0.140 A 
HETATM   15  N   UNK N   1       5.935   3.191  -0.005  0.00  0.00    -0.377 N 
ATOM     16  HN  UNK N   1       6.936   2.998  -0.020  1.00  0.00     0.160 HD
ENDBRANCH   9  10
ENDBRANCH   8   9
ENDBRANCH   2   8
BRANCH   1  17
HETATM   17  C   UNK N   1       1.498  -0.836   0.266  0.00  0.00     0.013 C 
HETATM   18  C   UNK N   1       0.171  -1.581   0.283  0.00  0.00     0.015 C 
HETATM   19  C   UNK N   1       1.448   0.210  -0.835  0.00  0.00     0.015 C 
ENDBRANCH   1  17
TORSDOF 4
