MODEL 1
REMARK VINA RESULT:      -6.1      0.000      0.000
REMARK  3 active torsions:
REMARK  status: ('A' for Active; 'I' for Inactive)
REMARK    1  A    between atoms: N_2  and  C_7 
REMARK    2  A    between atoms: N_3  and  C_6 
REMARK    3  A    between atoms: C_6  and  C_7 
ROOT
HETATM    1  S   UNK N   1      28.993  16.909   5.551  0.00  0.00    -0.084 SA
HETATM    2  N   UNK N   1      31.813  17.406   6.992  0.00  0.00    -0.329 N 
HETATM    3  N   UNK N   1      30.746  17.887   9.092  0.00  0.00    -0.351 N 
ATOM      4  HN  UNK N   1      31.682  18.007   9.481  1.00  0.00     0.166 HD
HETATM    5  C   UNK N   1      31.814  17.176   5.574  0.00  0.00     0.053 A 
HETATM    6  C   UNK N   1      30.626  17.553   7.773  0.00  0.00     0.125 A 
HETATM    7  C   UNK N   1      30.626  16.965   4.834  0.00  0.00     0.032 A 
HETATM    8  C   UNK N   1      29.332  17.381   7.236  0.00  0.00     0.050 A 
HETATM    9  C   UNK N   1      33.041  17.157   4.880  0.00  0.00     0.031 A 
HETATM   10  C   UNK N   1      30.696  16.750   3.452  0.00  0.00     0.021 A 
HETATM   11  C   UNK N   1      28.226  17.558   8.071  0.00  0.00     0.024 A 
HETATM   12  C   UNK N   1      33.094  16.947   3.501  0.00  0.00     0.002 A 
HETATM   13  C   UNK N   1      31.919  16.744   2.786  0.00  0.00     0.002 A 
HETATM   14  C   UNK N   1      29.676  18.066   9.908  0.00  0.00     0.090 A 
HETATM   15  C   UNK N   1      28.391  17.904   9.407  0.00  0.00     0.018 A 
ENDROOT
BRANCH   2  16
HETATM   16  C   UNK N   1      33.081  17.485   7.710  0.00  0.00     0.166 C 
BRANCH  16  17
HETATM   17  C   UNK N   1      33.576  16.127   8.198  0.00  0.00     0.236 C 
HETATM   18  C   UNK N   1      34.793  15.645   7.402  0.00  0.00     0.044 C 
BRANCH  17  19
HETATM   19  N   UNK N   1      33.811  16.175   9.649  0.00  0.00     0.085 N 
HETATM   20  C   UNK N   1      35.075  16.824   9.989  0.00  0.00     0.310 C 
HETATM   21  C   UNK N   1      33.834  14.822  10.179  0.00  0.00     0.310 C 
ENDBRANCH  17  19
ENDBRANCH  16  17
ENDBRANCH   2  16
TORSDOF 3
ENDMDL
MODEL 2
REMARK VINA RESULT:      -5.8      2.719      6.647
REMARK  3 active torsions:
REMARK  status: ('A' for Active; 'I' for Inactive)
REMARK    1  A    between atoms: N_2  and  C_7 
REMARK    2  A    between atoms: N_3  and  C_6 
REMARK    3  A    between atoms: C_6  and  C_7 
ROOT
HETATM    1  S   UNK N   1      32.241  17.060   7.250  0.00  0.00    -0.084 SA
HETATM    2  N   UNK N   1      29.592  17.501   5.500  0.00  0.00    -0.329 N 
HETATM    3  N   UNK N   1      30.796  17.165   3.446  0.00  0.00    -0.351 N 
ATOM      4  HN  UNK N   1      29.907  17.296   2.963  1.00  0.00     0.166 HD
HETATM    5  C   UNK N   1      29.504  17.713   6.918  0.00  0.00     0.053 A 
HETATM    6  C   UNK N   1      30.815  17.231   4.811  0.00  0.00     0.125 A 
HETATM    7  C   UNK N   1      30.615  17.566   7.783  0.00  0.00     0.032 A 
HETATM    8  C   UNK N   1      32.043  17.044   5.479  0.00  0.00     0.050 A 
HETATM    9  C   UNK N   1      28.267  18.083   7.484  0.00  0.00     0.031 A 
HETATM   10  C   UNK N   1      30.463  17.791   9.156  0.00  0.00     0.021 A 
HETATM   11  C   UNK N   1      33.192  16.798   4.723  0.00  0.00     0.024 A 
HETATM   12  C   UNK N   1      28.132  18.309   8.854  0.00  0.00     0.002 A 
HETATM   13  C   UNK N   1      29.232  18.164   9.692  0.00  0.00     0.002 A 
HETATM   14  C   UNK N   1      31.910  16.932   2.705  0.00  0.00     0.090 A 
HETATM   15  C   UNK N   1      33.133  16.744   3.335  0.00  0.00     0.018 A 
ENDROOT
BRANCH   2  16
HETATM   16  C   UNK N   1      28.380  17.542   4.688  0.00  0.00     0.166 C 
BRANCH  16  17
HETATM   17  C   UNK N   1      27.841  16.155   4.351  0.00  0.00     0.236 C 
HETATM   18  C   UNK N   1      26.668  15.765   5.256  0.00  0.00     0.044 C 
BRANCH  17  19
HETATM   19  N   UNK N   1      27.521  16.081   2.917  0.00  0.00     0.085 N 
HETATM   20  C   UNK N   1      26.085  15.974   2.671  0.00  0.00     0.310 C 
HETATM   21  C   UNK N   1      28.173  14.919   2.337  0.00  0.00     0.310 C 
ENDBRANCH  17  19
ENDBRANCH  16  17
ENDBRANCH   2  16
TORSDOF 3
ENDMDL
MODEL 3
REMARK VINA RESULT:      -5.6      3.101      5.770
REMARK  3 active torsions:
REMARK  status: ('A' for Active; 'I' for Inactive)
REMARK    1  A    between atoms: N_2  and  C_7 
REMARK    2  A    between atoms: N_3  and  C_6 
REMARK    3  A    between atoms: C_6  and  C_7 
ROOT
HETATM    1  S   UNK N   1      28.641  18.816   8.188  0.00  0.00    -0.084 SA
HETATM    2  N   UNK N   1      29.167  17.641   5.252  0.00  0.00    -0.329 N 
HETATM    3  N   UNK N   1      30.868  16.149   6.066  0.00  0.00    -0.351 N 
ATOM      4  HN  UNK N   1      30.960  15.813   5.107  1.00  0.00     0.166 HD
HETATM    5  C   UNK N   1      28.256  18.744   5.382  0.00  0.00     0.053 A 
HETATM    6  C   UNK N   1      29.946  17.122   6.332  0.00  0.00     0.125 A 
HETATM    7  C   UNK N   1      27.965  19.353   6.626  0.00  0.00     0.032 A 
HETATM    8  C   UNK N   1      29.815  17.583   7.659  0.00  0.00     0.050 A 
HETATM    9  C   UNK N   1      27.619  19.251   4.231  0.00  0.00     0.031 A 
HETATM   10  C   UNK N   1      27.070  20.428   6.684  0.00  0.00     0.021 A 
HETATM   11  C   UNK N   1      30.629  17.028   8.650  0.00  0.00     0.024 A 
HETATM   12  C   UNK N   1      26.733  20.326   4.303  0.00  0.00     0.002 A 
HETATM   13  C   UNK N   1      26.458  20.916   5.532  0.00  0.00     0.002 A 
HETATM   14  C   UNK N   1      31.665  15.609   7.023  0.00  0.00     0.090 A 
HETATM   15  C   UNK N   1      31.559  16.043   8.338  0.00  0.00     0.018 A 
ENDROOT
BRANCH   2  16
HETATM   16  C   UNK N   1      29.319  16.980   3.961  0.00  0.00     0.166 C 
BRANCH  16  17
HETATM   17  C   UNK N   1      28.454  15.730   3.826  0.00  0.00     0.236 C 
HETATM   18  C   UNK N   1      27.224  15.981   2.946  0.00  0.00     0.044 C 
BRANCH  17  19
HETATM   19  N   UNK N   1      29.279  14.602   3.366  0.00  0.00     0.085 N 
HETATM   20  C   UNK N   1      28.888  14.129   2.040  0.00  0.00     0.310 C 
HETATM   21  C   UNK N   1      29.150  13.498   4.302  0.00  0.00     0.310 C 
ENDBRANCH  17  19
ENDBRANCH  16  17
ENDBRANCH   2  16
TORSDOF 3
ENDMDL
MODEL 4
REMARK VINA RESULT:      -5.5     12.620     15.376
REMARK  3 active torsions:
REMARK  status: ('A' for Active; 'I' for Inactive)
REMARK    1  A    between atoms: N_2  and  C_7 
REMARK    2  A    between atoms: N_3  and  C_6 
REMARK    3  A    between atoms: C_6  and  C_7 
ROOT
HETATM    1  S   UNK N   1      26.215  24.948  -7.519  0.00  0.00    -0.084 SA
HETATM    2  N   UNK N   1      27.886  24.469  -4.827  0.00  0.00    -0.329 N 
HETATM    3  N   UNK N   1      28.887  22.468  -5.709  0.00  0.00    -0.351 N 
ATOM      4  HN  UNK N   1      29.400  22.398  -4.830  1.00  0.00     0.166 HD
HETATM    5  C   UNK N   1      26.938  25.547  -4.846  0.00  0.00     0.053 A 
HETATM    6  C   UNK N   1      28.036  23.523  -5.887  0.00  0.00     0.125 A 
HETATM    7  C   UNK N   1      26.133  25.836  -5.974  0.00  0.00     0.032 A 
HETATM    8  C   UNK N   1      27.332  23.622  -7.106  0.00  0.00     0.050 A 
HETATM    9  C   UNK N   1      26.792  26.358  -3.702  0.00  0.00     0.031 A 
HETATM   10  C   UNK N   1      25.224  26.900  -5.927  0.00  0.00     0.021 A 
HETATM   11  C   UNK N   1      27.530  22.643  -8.083  0.00  0.00     0.024 A 
HETATM   12  C   UNK N   1      25.878  27.411  -3.668  0.00  0.00     0.002 A 
HETATM   13  C   UNK N   1      25.092  27.683  -4.782  0.00  0.00     0.002 A 
HETATM   14  C   UNK N   1      29.080  21.510  -6.652  0.00  0.00     0.090 A 
HETATM   15  C   UNK N   1      28.401  21.582  -7.860  0.00  0.00     0.018 A 
ENDROOT
BRANCH   2  16
HETATM   16  C   UNK N   1      28.774  24.309  -3.680  0.00  0.00     0.166 C 
BRANCH  16  17
HETATM   17  C   UNK N   1      30.208  24.743  -3.971  0.00  0.00     0.236 C 
HETATM   18  C   UNK N   1      30.422  26.233  -3.679  0.00  0.00     0.044 C 
BRANCH  17  19
HETATM   19  N   UNK N   1      31.147  23.868  -3.253  0.00  0.00     0.085 N 
HETATM   20  C   UNK N   1      32.006  23.109  -4.160  0.00  0.00     0.310 C 
HETATM   21  C   UNK N   1      30.401  22.927  -2.435  0.00  0.00     0.310 C 
ENDBRANCH  17  19
ENDBRANCH  16  17
ENDBRANCH   2  16
TORSDOF 3
ENDMDL
MODEL 5
REMARK VINA RESULT:      -5.5      1.317      4.343
REMARK  3 active torsions:
REMARK  status: ('A' for Active; 'I' for Inactive)
REMARK    1  A    between atoms: N_2  and  C_7 
REMARK    2  A    between atoms: N_3  and  C_6 
REMARK    3  A    between atoms: C_6  and  C_7 
ROOT
HETATM    1  S   UNK N   1      29.521  17.511   4.923  0.00  0.00    -0.084 SA
HETATM    2  N   UNK N   1      31.551  16.460   7.170  0.00  0.00    -0.329 N 
HETATM    3  N   UNK N   1      32.828  15.223   5.552  0.00  0.00    -0.351 N 
ATOM      4  HN  UNK N   1      33.441  14.949   6.321  1.00  0.00     0.166 HD
HETATM    5  C   UNK N   1      30.408  17.217   7.598  0.00  0.00     0.053 A 
HETATM    6  C   UNK N   1      31.767  16.040   5.821  0.00  0.00     0.125 A 
HETATM    7  C   UNK N   1      29.438  17.713   6.694  0.00  0.00     0.032 A 
HETATM    8  C   UNK N   1      30.923  16.423   4.757  0.00  0.00     0.050 A 
HETATM    9  C   UNK N   1      30.233  17.485   8.971  0.00  0.00     0.031 A 
HETATM   10  C   UNK N   1      28.344  18.442   7.176  0.00  0.00     0.021 A 
HETATM   11  C   UNK N   1      31.202  15.954   3.471  0.00  0.00     0.024 A 
HETATM   12  C   UNK N   1      29.135  18.209   9.438  0.00  0.00     0.002 A 
HETATM   13  C   UNK N   1      28.188  18.687   8.539  0.00  0.00     0.002 A 
HETATM   14  C   UNK N   1      33.102  14.758   4.306  0.00  0.00     0.090 A 
HETATM   15  C   UNK N   1      32.289  15.118   3.239  0.00  0.00     0.018 A 
ENDROOT
BRANCH   2  16
HETATM   16  C   UNK N   1      32.577  16.093   8.140  0.00  0.00     0.166 C 
BRANCH  16  17
HETATM   17  C   UNK N   1      33.906  16.804   7.900  0.00  0.00     0.236 C 
HETATM   18  C   UNK N   1      33.797  18.313   8.150  0.00  0.00     0.044 C 
BRANCH  17  19
HETATM   19  N   UNK N   1      34.965  16.158   8.689  0.00  0.00     0.085 N 
HETATM   20  C   UNK N   1      34.812  14.706   8.746  0.00  0.00     0.310 C 
HETATM   21  C   UNK N   1      34.938  16.674  10.047  0.00  0.00     0.310 C 
ENDBRANCH  17  19
ENDBRANCH  16  17
ENDBRANCH   2  16
TORSDOF 3
ENDMDL
MODEL 6
REMARK VINA RESULT:      -5.5      2.756      5.332
REMARK  3 active torsions:
REMARK  status: ('A' for Active; 'I' for Inactive)
REMARK    1  A    between atoms: N_2  and  C_7 
REMARK    2  A    between atoms: N_3  and  C_6 
REMARK    3  A    between atoms: C_6  and  C_7 
ROOT
HETATM    1  S   UNK N   1      32.078  17.482   7.507  0.00  0.00    -0.084 SA
HETATM    2  N   UNK N   1      29.380  17.214   5.798  0.00  0.00    -0.329 N 
HETATM    3  N   UNK N   1      28.023  17.259   7.783  0.00  0.00    -0.351 N 
ATOM      4  HN  UNK N   1      27.212  17.193   7.167  1.00  0.00     0.166 HD
HETATM    5  C   UNK N   1      30.631  17.119   5.099  0.00  0.00     0.053 A 
HETATM    6  C   UNK N   1      29.268  17.292   7.220  0.00  0.00     0.125 A 
HETATM    7  C   UNK N   1      31.882  17.204   5.756  0.00  0.00     0.032 A 
HETATM    8  C   UNK N   1      30.390  17.389   8.071  0.00  0.00     0.050 A 
HETATM    9  C   UNK N   1      30.627  16.934   3.701  0.00  0.00     0.031 A 
HETATM   10  C   UNK N   1      33.066  17.100   5.015  0.00  0.00     0.021 A 
HETATM   11  C   UNK N   1      30.187  17.447   9.452  0.00  0.00     0.024 A 
HETATM   12  C   UNK N   1      31.815  16.826   2.977  0.00  0.00     0.002 A 
HETATM   13  C   UNK N   1      33.037  16.909   3.636  0.00  0.00     0.002 A 
HETATM   14  C   UNK N   1      27.819  17.309   9.124  0.00  0.00     0.090 A 
HETATM   15  C   UNK N   1      28.904  17.404   9.985  0.00  0.00     0.018 A 
ENDROOT
BRANCH   2  16
HETATM   16  C   UNK N   1      28.132  17.249   5.042  0.00  0.00     0.166 C 
BRANCH  16  17
HETATM   17  C   UNK N   1      27.382  18.569   5.192  0.00  0.00     0.236 C 
HETATM   18  C   UNK N   1      28.080  19.709   4.443  0.00  0.00     0.044 C 
BRANCH  17  19
HETATM   19  N   UNK N   1      25.976  18.389   4.799  0.00  0.00     0.085 N 
HETATM   20  C   UNK N   1      25.839  17.734   3.500  0.00  0.00     0.310 C 
HETATM   21  C   UNK N   1      25.325  19.686   4.727  0.00  0.00     0.310 C 
ENDBRANCH  17  19
ENDBRANCH  16  17
ENDBRANCH   2  16
TORSDOF 3
ENDMDL
MODEL 7
REMARK VINA RESULT:      -5.4      6.559      9.639
REMARK  3 active torsions:
REMARK  status: ('A' for Active; 'I' for Inactive)
REMARK    1  A    between atoms: N_2  and  C_7 
REMARK    2  A    between atoms: N_3  and  C_6 
REMARK    3  A    between atoms: C_6  and  C_7 
ROOT
HETATM    1  S   UNK N   1      33.793  10.877  14.302  0.00  0.00    -0.084 SA
HETATM    2  N   UNK N   1      35.999  12.559  12.697  0.00  0.00    -0.329 N 
HETATM    3  N   UNK N   1      35.670  11.246  10.709  0.00  0.00    -0.351 N 
ATOM      4  HN  UNK N   1      36.369  11.842  10.263  1.00  0.00     0.166 HD
HETATM    5  C   UNK N   1      35.826  12.839  14.095  0.00  0.00     0.053 A 
HETATM    6  C   UNK N   1      35.339  11.493  12.012  0.00  0.00     0.125 A 
HETATM    7  C   UNK N   1      34.896  12.144  14.904  0.00  0.00     0.032 A 
HETATM    8  C   UNK N   1      34.370  10.673  12.628  0.00  0.00     0.050 A 
HETATM    9  C   UNK N   1      36.609  13.845  14.699  0.00  0.00     0.031 A 
HETATM   10  C   UNK N   1      34.779  12.463  16.263  0.00  0.00     0.021 A 
HETATM   11  C   UNK N   1      33.785   9.644  11.886  0.00  0.00     0.024 A 
HETATM   12  C   UNK N   1      36.485  14.148  16.055  0.00  0.00     0.002 A 
HETATM   13  C   UNK N   1      35.569  13.455  16.839  0.00  0.00     0.002 A 
HETATM   14  C   UNK N   1      35.111  10.245   9.984  0.00  0.00     0.090 A 
HETATM   15  C   UNK N   1      34.155   9.422  10.564  0.00  0.00     0.018 A 
ENDROOT
BRANCH   2  16
HETATM   16  C   UNK N   1      36.881  13.402  11.897  0.00  0.00     0.166 C 
BRANCH  16  17
HETATM   17  C   UNK N   1      36.123  14.364  10.986  0.00  0.00     0.236 C 
HETATM   18  C   UNK N   1      35.747  15.659  11.714  0.00  0.00     0.044 C 
BRANCH  17  19
HETATM   19  N   UNK N   1      36.890  14.590   9.752  0.00  0.00     0.085 N 
HETATM   20  C   UNK N   1      36.179  14.133   8.561  0.00  0.00     0.310 C 
HETATM   21  C   UNK N   1      38.153  13.876   9.832  0.00  0.00     0.310 C 
ENDBRANCH  17  19
ENDBRANCH  16  17
ENDBRANCH   2  16
TORSDOF 3
ENDMDL
MODEL 8
REMARK VINA RESULT:      -5.4      7.084     10.557
REMARK  3 active torsions:
REMARK  status: ('A' for Active; 'I' for Inactive)
REMARK    1  A    between atoms: N_2  and  C_7 
REMARK    2  A    between atoms: N_3  and  C_6 
REMARK    3  A    between atoms: C_6  and  C_7 
ROOT
HETATM    1  S   UNK N   1      36.343  13.756  15.261  0.00  0.00    -0.084 SA
HETATM    2  N   UNK N   1      34.660  11.512  13.710  0.00  0.00    -0.329 N 
HETATM    3  N   UNK N   1      34.617  12.824  11.695  0.00  0.00    -0.351 N 
ATOM      4  HN  UNK N   1      34.101  12.054  11.266  1.00  0.00     0.166 HD
HETATM    5  C   UNK N   1      34.908  11.318  15.111  0.00  0.00     0.053 A 
HETATM    6  C   UNK N   1      35.008  12.702  12.998  0.00  0.00     0.125 A 
HETATM    7  C   UNK N   1      35.622  12.253  15.898  0.00  0.00     0.032 A 
HETATM    8  C   UNK N   1      35.725  13.763  13.589  0.00  0.00     0.050 A 
HETATM    9  C   UNK N   1      34.425  10.153  15.741  0.00  0.00     0.031 A 
HETATM   10  C   UNK N   1      35.826  12.005  17.260  0.00  0.00     0.021 A 
HETATM   11  C   UNK N   1      36.010  14.896  12.822  0.00  0.00     0.024 A 
HETATM   12  C   UNK N   1      34.632   9.922  17.101  0.00  0.00     0.002 A 
HETATM   13  C   UNK N   1      35.333  10.850  17.863  0.00  0.00     0.002 A 
HETATM   14  C   UNK N   1      34.885  13.923  10.945  0.00  0.00     0.090 A 
HETATM   15  C   UNK N   1      35.589  14.984  11.500  0.00  0.00     0.018 A 
ENDROOT
BRANCH   2  16
HETATM   16  C   UNK N   1      34.032  10.448  12.934  0.00  0.00     0.166 C 
BRANCH  16  17
HETATM   17  C   UNK N   1      35.038   9.596  12.166  0.00  0.00     0.236 C 
HETATM   18  C   UNK N   1      35.469   8.363  12.968  0.00  0.00     0.044 C 
BRANCH  17  19
HETATM   19  N   UNK N   1      34.501   9.268  10.837  0.00  0.00     0.085 N 
HETATM   20  C   UNK N   1      35.262   9.893   9.757  0.00  0.00     0.310 C 
HETATM   21  C   UNK N   1      33.124   9.724  10.748  0.00  0.00     0.310 C 
ENDBRANCH  17  19
ENDBRANCH  16  17
ENDBRANCH   2  16
TORSDOF 3
ENDMDL
MODEL 9
REMARK VINA RESULT:      -5.4     13.369     15.714
REMARK  3 active torsions:
REMARK  status: ('A' for Active; 'I' for Inactive)
REMARK    1  A    between atoms: N_2  and  C_7 
REMARK    2  A    between atoms: N_3  and  C_6 
REMARK    3  A    between atoms: C_6  and  C_7 
ROOT
HETATM    1  S   UNK N   1      29.576  22.043  -7.112  0.00  0.00    -0.084 SA
HETATM    2  N   UNK N   1      27.398  23.619  -5.368  0.00  0.00    -0.329 N 
HETATM    3  N   UNK N   1      29.062  24.326  -3.782  0.00  0.00    -0.351 N 
ATOM      4  HN  UNK N   1      28.314  24.820  -3.295  1.00  0.00     0.166 HD
HETATM    5  C   UNK N   1      26.932  22.834  -6.476  0.00  0.00     0.053 A 
HETATM    6  C   UNK N   1      28.756  23.635  -4.921  0.00  0.00     0.125 A 
HETATM    7  C   UNK N   1      27.803  22.083  -7.301  0.00  0.00     0.032 A 
HETATM    8  C   UNK N   1      29.791  22.957  -5.598  0.00  0.00     0.050 A 
HETATM    9  C   UNK N   1      25.552  22.802  -6.766  0.00  0.00     0.031 A 
HETATM   10  C   UNK N   1      27.283  21.335  -8.365  0.00  0.00     0.021 A 
HETATM   11  C   UNK N   1      31.088  23.017  -5.081  0.00  0.00     0.024 A 
HETATM   12  C   UNK N   1      25.048  22.048  -7.826  0.00  0.00     0.002 A 
HETATM   13  C   UNK N   1      25.915  21.313  -8.627  0.00  0.00     0.002 A 
HETATM   14  C   UNK N   1      30.319  24.384  -3.272  0.00  0.00     0.090 A 
HETATM   15  C   UNK N   1      31.358  23.726  -3.916  0.00  0.00     0.018 A 
ENDROOT
BRANCH   2  16
HETATM   16  C   UNK N   1      26.462  24.470  -4.641  0.00  0.00     0.166 C 
BRANCH  16  17
HETATM   17  C   UNK N   1      26.467  25.915  -5.131  0.00  0.00     0.236 C 
HETATM   18  C   UNK N   1      25.155  26.282  -5.833  0.00  0.00     0.044 C 
BRANCH  17  19
HETATM   19  N   UNK N   1      26.804  26.816  -4.019  0.00  0.00     0.085 N 
HETATM   20  C   UNK N   1      25.699  27.703  -3.664  0.00  0.00     0.310 C 
HETATM   21  C   UNK N   1      27.946  27.634  -4.391  0.00  0.00     0.310 C 
ENDBRANCH  17  19
ENDBRANCH  16  17
ENDBRANCH   2  16
TORSDOF 3
ENDMDL
