REMARK  3 active torsions:
REMARK  status: ('A' for Active; 'I' for Inactive)
REMARK    1  A    between atoms: N_2  and  C_7 
REMARK    2  A    between atoms: N_3  and  C_6 
REMARK    3  A    between atoms: C_6  and  C_7 
ROOT
HETATM    1  S   UNK N   1       3.236  -3.591   0.210  0.00  0.00    -0.084 SA
HETATM    2  N   UNK N   1       3.644  -0.472  -0.405  0.00  0.00    -0.329 N 
HETATM    3  N   UNK N   1       6.038  -0.695  -0.364  0.00  0.00    -0.351 N 
ATOM      4  HN  UNK N   1       6.083   0.301  -0.582  1.00  0.00     0.166 HD
HETATM    5  C   UNK N   1       2.306  -0.944  -0.183  0.00  0.00     0.053 A 
HETATM    6  C   UNK N   1       4.810  -1.282  -0.242  0.00  0.00     0.125 A 
HETATM    7  C   UNK N   1       2.012  -2.296   0.115  0.00  0.00     0.032 A 
HETATM    8  C   UNK N   1       4.748  -2.660   0.054  0.00  0.00     0.050 A 
HETATM    9  C   UNK N   1       1.232  -0.034  -0.263  0.00  0.00     0.031 A 
HETATM   10  C   UNK N   1       0.685  -2.691   0.324  0.00  0.00     0.021 A 
HETATM   11  C   UNK N   1       5.940  -3.372   0.210  0.00  0.00     0.024 A 
HETATM   12  C   UNK N   1      -0.085  -0.441  -0.047  0.00  0.00     0.002 A 
HETATM   13  C   UNK N   1      -0.359  -1.772   0.248  0.00  0.00     0.002 A 
HETATM   14  C   UNK N   1       7.200  -1.379  -0.208  0.00  0.00     0.090 A 
HETATM   15  C   UNK N   1       7.170  -2.736   0.084  0.00  0.00     0.018 A 
ENDROOT
BRANCH   2  16
HETATM   16  C   UNK N   1       3.861   0.905  -0.836  0.00  0.00     0.166 C 
BRANCH  16  17
HETATM   17  C   UNK N   1       3.612   1.923   0.273  0.00  0.00     0.236 C 
HETATM   18  C   UNK N   1       4.507   1.668   1.491  0.00  0.00     0.044 C 
BRANCH  17  19
HETATM   19  N   UNK N   1       3.736   3.286  -0.266  0.00  0.00     0.085 N 
HETATM   20  C   UNK N   1       5.128   3.711  -0.394  0.00  0.00     0.310 C 
HETATM   21  C   UNK N   1       3.053   4.217   0.616  0.00  0.00     0.310 C 
ENDBRANCH  17  19
ENDBRANCH  16  17
ENDBRANCH   2  16
TORSDOF 3
