REMARK  9 active torsions:
REMARK  status: ('A' for Active; 'I' for Inactive)
REMARK    1  A    between atoms: O_1  and  C_8 
REMARK    2  A    between atoms: O_1  and  C_20 
REMARK    3  A    between atoms: O_2  and  C_12 
REMARK    4  A    between atoms: O_2  and  C_14 
REMARK    5  A    between atoms: N_4  and  C_6 
REMARK    6  A    between atoms: N_4  and  C_7 
REMARK    7  A    between atoms: C_7  and  C_8 
REMARK    8  A    between atoms: C_8  and  C_12 
REMARK    9  A    between atoms: C_20  and  C_23 
ROOT
HETATM    1  C   UNK N   1       3.624   1.029   0.524  0.00  0.00     0.173 C 
ENDROOT
BRANCH   1   2
HETATM    2  O   UNK N   1       4.576   1.609  -0.273  0.00  0.00    -0.308 OA
BRANCH   2   3
HETATM    3  C   UNK N   1       4.917   2.906  -0.110  0.00  0.00     0.293 C 
HETATM    4  O   UNK N   1       4.056   3.755   0.082  0.00  0.00    -0.259 OA
BRANCH   3   5
HETATM    5  C   UNK N   1       6.342   3.256  -0.041  0.00  0.00     0.039 A 
HETATM    6  C   UNK N   1       7.302   2.241  -0.154  0.00  0.00     0.017 A 
HETATM    7  C   UNK N   1       8.659   2.533  -0.009  0.00  0.00     0.001 A 
HETATM    8  C   UNK N   1       9.063   3.843   0.258  0.00  0.00     0.000 A 
HETATM    9  C   UNK N   1       8.111   4.861   0.372  0.00  0.00     0.001 A 
HETATM   10  C   UNK N   1       6.752   4.569   0.227  0.00  0.00     0.017 A 
ENDBRANCH   3   5
ENDBRANCH   2   3
ENDBRANCH   1   2
BRANCH   1  11
HETATM   11  C   UNK N   1       2.420   0.570  -0.260  0.00  0.00     0.149 C 
BRANCH  11  12
HETATM   12  N   UNK N   1       1.237   0.852   0.551  0.00  0.00    -0.411 N 
HETATM   13  H   UNK N   1       1.163   0.649   1.547  0.00  0.00     0.154 HD
BRANCH  12  14
HETATM   14  C   UNK N   1       0.171   1.463  -0.247  0.00  0.00     0.014 C 
HETATM   15  C   UNK N   1      -0.907   1.960   0.693  0.00  0.00     0.037 C 
HETATM   16  C   UNK N   1       0.670   2.657  -1.052  0.00  0.00     0.037 C 
HETATM   17  C   UNK N   1      -0.443   0.431  -1.177  0.00  0.00     0.037 C 
ENDBRANCH  12  14
ENDBRANCH  11  12
ENDBRANCH   1  11
BRANCH   1  18
HETATM   18  C   UNK N   1       4.231  -0.109   1.336  0.00  0.00     0.209 C 
BRANCH  18  19
HETATM   19  O   UNK N   1       5.283  -0.719   0.678  0.00  0.00    -0.348 OA
BRANCH  19  20
HETATM   20  C   UNK N   1       5.293  -2.037   0.368  0.00  0.00     0.081 A 
HETATM   21  C   UNK N   1       6.498  -2.683   0.077  0.00  0.00     0.026 A 
HETATM   22  C   UNK N   1       6.544  -4.025  -0.189  0.00  0.00     0.045 A 
HETATM   23  C   UNK N   1       7.786  -2.198   0.033  0.00  0.00     0.041 A 
HETATM   24  N   UNK N   1       7.809  -4.428  -0.400  0.00  0.00    -0.359 N 
HETATM   25  C   UNK N   1       5.402  -4.817  -0.202  0.00  0.00     0.030 A 
HETATM   26  C   UNK N   1       8.564  -3.314  -0.265  0.00  0.00     0.006 A 
HETATM   27  H   UNK N   1       8.119  -5.339  -0.608  0.00  0.00     0.166 HD
HETATM   28  C   UNK N   1      10.045  -3.307  -0.398  0.00  0.00     0.068 C 
HETATM   29  C   UNK N   1       4.169  -4.195   0.071  0.00  0.00     0.005 A 
HETATM   30  C   UNK N   1       4.114  -2.814   0.362  0.00  0.00     0.038 A 
ENDBRANCH  19  20
ENDBRANCH  18  19
ENDBRANCH   1  18
TORSDOF 9
