MODEL 1
REMARK VINA RESULT:      -6.4      0.000      0.000
REMARK  9 active torsions:
REMARK  status: ('A' for Active; 'I' for Inactive)
REMARK    1  A    between atoms: O_1  and  C_8 
REMARK    2  A    between atoms: O_1  and  C_20 
REMARK    3  A    between atoms: O_2  and  C_12 
REMARK    4  A    between atoms: O_2  and  C_14 
REMARK    5  A    between atoms: N_4  and  C_6 
REMARK    6  A    between atoms: N_4  and  C_7 
REMARK    7  A    between atoms: C_7  and  C_8 
REMARK    8  A    between atoms: C_8  and  C_12 
REMARK    9  A    between atoms: C_20  and  C_23 
ROOT
HETATM    1  C   UNK N   1      29.567  24.618  -4.023  0.00  0.00     0.173 C 
ENDROOT
BRANCH   1   2
HETATM    2  O   UNK N   1      28.424  23.862  -4.047  0.00  0.00    -0.308 OA
BRANCH   2   3
HETATM    3  C   UNK N   1      27.293  24.300  -3.453  0.00  0.00     0.293 C 
HETATM    4  O   UNK N   1      26.932  23.829  -2.382  0.00  0.00    -0.259 OA
BRANCH   3   5
HETATM    5  C   UNK N   1      26.577  25.434  -4.052  0.00  0.00     0.039 A 
HETATM    6  C   UNK N   1      26.373  26.593  -3.290  0.00  0.00     0.017 A 
HETATM    7  C   UNK N   1      25.625  27.654  -3.804  0.00  0.00     0.001 A 
HETATM    8  C   UNK N   1      25.069  27.557  -5.081  0.00  0.00     0.000 A 
HETATM    9  C   UNK N   1      25.268  26.404  -5.847  0.00  0.00     0.001 A 
HETATM   10  C   UNK N   1      26.017  25.342  -5.333  0.00  0.00     0.017 A 
ENDBRANCH   3   5
ENDBRANCH   2   3
ENDBRANCH   1   2
BRANCH   1  11
HETATM   11  C   UNK N   1      30.702  23.921  -3.315  0.00  0.00     0.149 C 
BRANCH  11  12
HETATM   12  N   UNK N   1      31.711  23.598  -4.322  0.00  0.00    -0.411 N 
HETATM   13  H   UNK N   1      32.130  24.279  -4.954  0.00  0.00     0.154 HD
BRANCH  12  14
HETATM   14  C   UNK N   1      32.047  22.171  -4.308  0.00  0.00     0.014 C 
HETATM   15  C   UNK N   1      32.018  21.686  -2.874  0.00  0.00     0.037 C 
HETATM   16  C   UNK N   1      31.045  21.339  -5.099  0.00  0.00     0.037 C 
HETATM   17  C   UNK N   1      33.446  21.958  -4.858  0.00  0.00     0.037 C 
ENDBRANCH  12  14
ENDBRANCH  11  12
ENDBRANCH   1  11
BRANCH   1  18
HETATM   18  C   UNK N   1      29.959  25.036  -5.435  0.00  0.00     0.209 C 
BRANCH  18  19
HETATM   19  O   UNK N   1      30.416  26.340  -5.488  0.00  0.00    -0.348 OA
BRANCH  19  20
HETATM   20  C   UNK N   1      29.588  27.407  -5.588  0.00  0.00     0.081 A 
HETATM   21  C   UNK N   1      29.439  28.286  -4.511  0.00  0.00     0.026 A 
HETATM   22  C   UNK N   1      28.650  29.401  -4.602  0.00  0.00     0.045 A 
HETATM   23  C   UNK N   1      30.012  28.274  -3.259  0.00  0.00     0.041 A 
HETATM   24  N   UNK N   1      28.692  30.111  -3.462  0.00  0.00    -0.359 N 
HETATM   25  C   UNK N   1      27.941  29.714  -5.756  0.00  0.00     0.030 A 
HETATM   26  C   UNK N   1      29.521  29.423  -2.645  0.00  0.00     0.006 A 
HETATM   27  H   UNK N   1      28.219  30.952  -3.264  0.00  0.00     0.166 HD
HETATM   28  C   UNK N   1      29.873  29.869  -1.271  0.00  0.00     0.068 C 
HETATM   29  C   UNK N   1      28.056  28.841  -6.854  0.00  0.00     0.005 A 
HETATM   30  C   UNK N   1      28.881  27.697  -6.775  0.00  0.00     0.038 A 
ENDBRANCH  19  20
ENDBRANCH  18  19
ENDBRANCH   1  18
TORSDOF 9
ENDMDL
MODEL 2
REMARK VINA RESULT:      -6.2     12.252     15.033
REMARK  9 active torsions:
REMARK  status: ('A' for Active; 'I' for Inactive)
REMARK    1  A    between atoms: O_1  and  C_8 
REMARK    2  A    between atoms: O_1  and  C_20 
REMARK    3  A    between atoms: O_2  and  C_12 
REMARK    4  A    between atoms: O_2  and  C_14 
REMARK    5  A    between atoms: N_4  and  C_6 
REMARK    6  A    between atoms: N_4  and  C_7 
REMARK    7  A    between atoms: C_7  and  C_8 
REMARK    8  A    between atoms: C_8  and  C_12 
REMARK    9  A    between atoms: C_20  and  C_23 
ROOT
HETATM    1  C   UNK N   1      31.936  16.333   7.836  0.00  0.00     0.173 C 
ENDROOT
BRANCH   1   2
HETATM    2  O   UNK N   1      32.575  17.535   7.683  0.00  0.00    -0.308 OA
BRANCH   2   3
HETATM    3  C   UNK N   1      33.617  17.660   6.832  0.00  0.00     0.293 C 
HETATM    4  O   UNK N   1      34.669  18.162   7.208  0.00  0.00    -0.259 OA
BRANCH   3   5
HETATM    5  C   UNK N   1      33.507  17.069   5.492  0.00  0.00     0.039 A 
HETATM    6  C   UNK N   1      32.731  17.716   4.520  0.00  0.00     0.017 A 
HETATM    7  C   UNK N   1      32.541  17.135   3.266  0.00  0.00     0.001 A 
HETATM    8  C   UNK N   1      33.120  15.897   2.979  0.00  0.00     0.000 A 
HETATM    9  C   UNK N   1      33.895  15.245   3.943  0.00  0.00     0.001 A 
HETATM   10  C   UNK N   1      34.086  15.826   5.200  0.00  0.00     0.017 A 
ENDBRANCH   3   5
ENDBRANCH   2   3
ENDBRANCH   1   2
BRANCH   1  11
HETATM   11  C   UNK N   1      32.596  15.459   8.874  0.00  0.00     0.149 C 
BRANCH  11  12
HETATM   12  N   UNK N   1      33.412  16.327   9.721  0.00  0.00    -0.411 N 
HETATM   13  H   UNK N   1      33.151  17.275   9.990  0.00  0.00     0.154 HD
BRANCH  12  14
HETATM   14  C   UNK N   1      34.651  15.665  10.136  0.00  0.00     0.014 C 
HETATM   15  C   UNK N   1      35.568  16.702  10.749  0.00  0.00     0.037 C 
HETATM   16  C   UNK N   1      34.402  14.588  11.185  0.00  0.00     0.037 C 
HETATM   17  C   UNK N   1      35.349  15.061   8.930  0.00  0.00     0.037 C 
ENDBRANCH  12  14
ENDBRANCH  11  12
ENDBRANCH   1  11
BRANCH   1  18
HETATM   18  C   UNK N   1      30.459  16.550   8.145  0.00  0.00     0.209 C 
BRANCH  18  19
HETATM   19  O   UNK N   1      29.967  17.703   7.562  0.00  0.00    -0.348 OA
BRANCH  19  20
HETATM   20  C   UNK N   1      29.243  17.699   6.418  0.00  0.00     0.081 A 
HETATM   21  C   UNK N   1      28.295  18.698   6.180  0.00  0.00     0.026 A 
HETATM   22  C   UNK N   1      27.586  18.747   5.010  0.00  0.00     0.045 A 
HETATM   23  C   UNK N   1      27.914  19.773   6.952  0.00  0.00     0.041 A 
HETATM   24  N   UNK N   1      26.765  19.812   4.993  0.00  0.00    -0.359 N 
HETATM   25  C   UNK N   1      27.753  17.805   4.002  0.00  0.00     0.030 A 
HETATM   26  C   UNK N   1      26.966  20.435   6.176  0.00  0.00     0.006 A 
HETATM   27  H   UNK N   1      26.150  20.081   4.272  0.00  0.00     0.166 HD
HETATM   28  C   UNK N   1      26.269  21.687   6.572  0.00  0.00     0.068 C 
HETATM   29  C   UNK N   1      28.689  16.776   4.215  0.00  0.00     0.005 A 
HETATM   30  C   UNK N   1      29.437  16.726   5.413  0.00  0.00     0.038 A 
ENDBRANCH  19  20
ENDBRANCH  18  19
ENDBRANCH   1  18
TORSDOF 9
ENDMDL
MODEL 3
REMARK VINA RESULT:      -6.2      2.643      4.461
REMARK  9 active torsions:
REMARK  status: ('A' for Active; 'I' for Inactive)
REMARK    1  A    between atoms: O_1  and  C_8 
REMARK    2  A    between atoms: O_1  and  C_20 
REMARK    3  A    between atoms: O_2  and  C_12 
REMARK    4  A    between atoms: O_2  and  C_14 
REMARK    5  A    between atoms: N_4  and  C_6 
REMARK    6  A    between atoms: N_4  and  C_7 
REMARK    7  A    between atoms: C_7  and  C_8 
REMARK    8  A    between atoms: C_8  and  C_12 
REMARK    9  A    between atoms: C_20  and  C_23 
ROOT
HETATM    1  C   UNK N   1      29.458  24.061  -4.299  0.00  0.00     0.173 C 
ENDROOT
BRANCH   1   2
HETATM    2  O   UNK N   1      28.141  23.684  -4.286  0.00  0.00    -0.308 OA
BRANCH   2   3
HETATM    3  C   UNK N   1      27.243  24.332  -3.512  0.00  0.00     0.293 C 
HETATM    4  O   UNK N   1      27.067  23.993  -2.349  0.00  0.00    -0.259 OA
BRANCH   3   5
HETATM    5  C   UNK N   1      26.580  25.526  -4.052  0.00  0.00     0.039 A 
HETATM    6  C   UNK N   1      25.443  25.372  -4.857  0.00  0.00     0.017 A 
HETATM    7  C   UNK N   1      24.842  26.483  -5.451  0.00  0.00     0.001 A 
HETATM    8  C   UNK N   1      25.382  27.755  -5.250  0.00  0.00     0.000 A 
HETATM    9  C   UNK N   1      26.516  27.917  -4.449  0.00  0.00     0.001 A 
HETATM   10  C   UNK N   1      27.118  26.805  -3.853  0.00  0.00     0.017 A 
ENDBRANCH   3   5
ENDBRANCH   2   3
ENDBRANCH   1   2
BRANCH   1  11
HETATM   11  C   UNK N   1      30.394  22.884  -4.180  0.00  0.00     0.149 C 
BRANCH  11  12
HETATM   12  N   UNK N   1      29.826  21.793  -4.969  0.00  0.00    -0.411 N 
HETATM   13  H   UNK N   1      28.829  21.592  -5.036  0.00  0.00     0.154 HD
BRANCH  12  14
HETATM   14  C   UNK N   1      30.870  21.023  -5.651  0.00  0.00     0.014 C 
HETATM   15  C   UNK N   1      31.533  20.112  -4.640  0.00  0.00     0.037 C 
HETATM   16  C   UNK N   1      30.302  20.147  -6.762  0.00  0.00     0.037 C 
HETATM   17  C   UNK N   1      31.924  21.959  -6.217  0.00  0.00     0.037 C 
ENDBRANCH  12  14
ENDBRANCH  11  12
ENDBRANCH   1  11
BRANCH   1  18
HETATM   18  C   UNK N   1      29.761  24.895  -5.538  0.00  0.00     0.209 C 
BRANCH  18  19
HETATM   19  O   UNK N   1      29.282  24.308  -6.695  0.00  0.00    -0.348 OA
BRANCH  19  20
HETATM   20  C   UNK N   1      28.225  24.795  -7.385  0.00  0.00     0.081 A 
HETATM   21  C   UNK N   1      27.105  23.991  -7.619  0.00  0.00     0.026 A 
HETATM   22  C   UNK N   1      26.001  24.473  -8.269  0.00  0.00     0.045 A 
HETATM   23  C   UNK N   1      26.850  22.686  -7.262  0.00  0.00     0.041 A 
HETATM   24  N   UNK N   1      25.041  23.535  -8.343  0.00  0.00    -0.359 N 
HETATM   25  C   UNK N   1      25.933  25.777  -8.746  0.00  0.00     0.030 A 
HETATM   26  C   UNK N   1      25.560  22.447  -7.730  0.00  0.00     0.006 A 
HETATM   27  H   UNK N   1      24.152  23.622  -8.755  0.00  0.00     0.166 HD
HETATM   28  C   UNK N   1      24.818  21.169  -7.563  0.00  0.00     0.068 C 
HETATM   29  C   UNK N   1      27.050  26.610  -8.541  0.00  0.00     0.005 A 
HETATM   30  C   UNK N   1      28.187  26.125  -7.858  0.00  0.00     0.038 A 
ENDBRANCH  19  20
ENDBRANCH  18  19
ENDBRANCH   1  18
TORSDOF 9
ENDMDL
MODEL 4
REMARK VINA RESULT:      -6.2      1.308      2.913
REMARK  9 active torsions:
REMARK  status: ('A' for Active; 'I' for Inactive)
REMARK    1  A    between atoms: O_1  and  C_8 
REMARK    2  A    between atoms: O_1  and  C_20 
REMARK    3  A    between atoms: O_2  and  C_12 
REMARK    4  A    between atoms: O_2  and  C_14 
REMARK    5  A    between atoms: N_4  and  C_6 
REMARK    6  A    between atoms: N_4  and  C_7 
REMARK    7  A    between atoms: C_7  and  C_8 
REMARK    8  A    between atoms: C_8  and  C_12 
REMARK    9  A    between atoms: C_20  and  C_23 
ROOT
HETATM    1  C   UNK N   1      29.497  23.543  -3.450  0.00  0.00     0.173 C 
ENDROOT
BRANCH   1   2
HETATM    2  O   UNK N   1      28.328  23.814  -4.111  0.00  0.00    -0.308 OA
BRANCH   2   3
HETATM    3  C   UNK N   1      27.234  24.235  -3.438  0.00  0.00     0.293 C 
HETATM    4  O   UNK N   1      26.971  23.777  -2.333  0.00  0.00    -0.259 OA
BRANCH   3   5
HETATM    5  C   UNK N   1      26.443  25.338  -3.999  0.00  0.00     0.039 A 
HETATM    6  C   UNK N   1      25.848  25.181  -5.258  0.00  0.00     0.017 A 
HETATM    7  C   UNK N   1      25.161  26.242  -5.851  0.00  0.00     0.001 A 
HETATM    8  C   UNK N   1      25.073  27.469  -5.190  0.00  0.00     0.000 A 
HETATM    9  C   UNK N   1      25.665  27.633  -3.934  0.00  0.00     0.001 A 
HETATM   10  C   UNK N   1      26.353  26.571  -3.340  0.00  0.00     0.017 A 
ENDBRANCH   3   5
ENDBRANCH   2   3
ENDBRANCH   1   2
BRANCH   1  11
HETATM   11  C   UNK N   1      30.254  22.395  -4.068  0.00  0.00     0.149 C 
BRANCH  11  12
HETATM   12  N   UNK N   1      31.641  22.493  -3.618  0.00  0.00    -0.411 N 
HETATM   13  H   UNK N   1      31.999  23.238  -3.021  0.00  0.00     0.154 HD
BRANCH  12  14
HETATM   14  C   UNK N   1      32.454  21.387  -4.132  0.00  0.00     0.014 C 
HETATM   15  C   UNK N   1      33.189  21.865  -5.366  0.00  0.00     0.037 C 
HETATM   16  C   UNK N   1      33.497  20.924  -3.122  0.00  0.00     0.037 C 
HETATM   17  C   UNK N   1      31.562  20.223  -4.527  0.00  0.00     0.037 C 
ENDBRANCH  12  14
ENDBRANCH  11  12
ENDBRANCH   1  11
BRANCH   1  18
HETATM   18  C   UNK N   1      30.358  24.797  -3.357  0.00  0.00     0.209 C 
BRANCH  18  19
HETATM   19  O   UNK N   1      30.398  25.495  -4.550  0.00  0.00    -0.348 OA
BRANCH  19  20
HETATM   20  C   UNK N   1      29.875  26.735  -4.696  0.00  0.00     0.081 A 
HETATM   21  C   UNK N   1      29.184  27.075  -5.863  0.00  0.00     0.026 A 
HETATM   22  C   UNK N   1      28.601  28.304  -6.016  0.00  0.00     0.045 A 
HETATM   23  C   UNK N   1      28.916  26.335  -6.993  0.00  0.00     0.041 A 
HETATM   24  N   UNK N   1      27.963  28.387  -7.197  0.00  0.00    -0.359 N 
HETATM   25  C   UNK N   1      28.673  29.285  -5.035  0.00  0.00     0.030 A 
HETATM   26  C   UNK N   1      28.157  27.187  -7.791  0.00  0.00     0.006 A 
HETATM   27  H   UNK N   1      27.463  29.156  -7.553  0.00  0.00     0.166 HD
HETATM   28  C   UNK N   1      27.598  26.832  -9.122  0.00  0.00     0.068 C 
HETATM   29  C   UNK N   1      29.375  28.982  -3.854  0.00  0.00     0.005 A 
HETATM   30  C   UNK N   1      29.967  27.711  -3.680  0.00  0.00     0.038 A 
ENDBRANCH  19  20
ENDBRANCH  18  19
ENDBRANCH   1  18
TORSDOF 9
ENDMDL
MODEL 5
REMARK VINA RESULT:      -6.1      2.721      7.246
REMARK  9 active torsions:
REMARK  status: ('A' for Active; 'I' for Inactive)
REMARK    1  A    between atoms: O_1  and  C_8 
REMARK    2  A    between atoms: O_1  and  C_20 
REMARK    3  A    between atoms: O_2  and  C_12 
REMARK    4  A    between atoms: O_2  and  C_14 
REMARK    5  A    between atoms: N_4  and  C_6 
REMARK    6  A    between atoms: N_4  and  C_7 
REMARK    7  A    between atoms: C_7  and  C_8 
REMARK    8  A    between atoms: C_8  and  C_12 
REMARK    9  A    between atoms: C_20  and  C_23 
ROOT
HETATM    1  C   UNK N   1      26.942  24.664  -3.470  0.00  0.00     0.173 C 
ENDROOT
BRANCH   1   2
HETATM    2  O   UNK N   1      28.283  24.400  -3.577  0.00  0.00    -0.308 OA
BRANCH   2   3
HETATM    3  C   UNK N   1      28.864  23.452  -2.810  0.00  0.00     0.293 C 
HETATM    4  O   UNK N   1      28.289  23.015  -1.821  0.00  0.00    -0.259 OA
BRANCH   3   5
HETATM    5  C   UNK N   1      30.136  22.868  -3.256  0.00  0.00     0.039 A 
HETATM    6  C   UNK N   1      31.115  23.703  -3.811  0.00  0.00     0.017 A 
HETATM    7  C   UNK N   1      32.298  23.164  -4.319  0.00  0.00     0.001 A 
HETATM    8  C   UNK N   1      32.505  21.783  -4.281  0.00  0.00     0.000 A 
HETATM    9  C   UNK N   1      31.532  20.944  -3.729  0.00  0.00     0.001 A 
HETATM   10  C   UNK N   1      30.347  21.483  -3.220  0.00  0.00     0.017 A 
ENDBRANCH   3   5
ENDBRANCH   2   3
ENDBRANCH   1   2
BRANCH   1  11
HETATM   11  C   UNK N   1      26.650  26.142  -3.411  0.00  0.00     0.149 C 
BRANCH  11  12
HETATM   12  N   UNK N   1      27.293  26.761  -4.569  0.00  0.00    -0.411 N 
HETATM   13  H   UNK N   1      28.188  26.464  -4.954  0.00  0.00     0.154 HD
BRANCH  12  14
HETATM   14  C   UNK N   1      26.489  27.862  -5.106  0.00  0.00     0.014 C 
HETATM   15  C   UNK N   1      25.318  27.274  -5.865  0.00  0.00     0.037 C 
HETATM   16  C   UNK N   1      25.926  28.751  -4.004  0.00  0.00     0.037 C 
HETATM   17  C   UNK N   1      27.317  28.692  -6.070  0.00  0.00     0.037 C 
ENDBRANCH  12  14
ENDBRANCH  11  12
ENDBRANCH   1  11
BRANCH   1  18
HETATM   18  C   UNK N   1      26.174  23.986  -4.598  0.00  0.00     0.209 C 
BRANCH  18  19
HETATM   19  O   UNK N   1      26.923  23.888  -5.757  0.00  0.00    -0.348 OA
BRANCH  19  20
HETATM   20  C   UNK N   1      26.682  22.961  -6.713  0.00  0.00     0.081 A 
HETATM   21  C   UNK N   1      27.693  22.082  -7.112  0.00  0.00     0.026 A 
HETATM   22  C   UNK N   1      27.464  21.101  -8.040  0.00  0.00     0.045 A 
HETATM   23  C   UNK N   1      29.000  21.970  -6.692  0.00  0.00     0.041 A 
HETATM   24  N   UNK N   1      28.567  20.358  -8.234  0.00  0.00    -0.359 N 
HETATM   25  C   UNK N   1      26.226  20.932  -8.648  0.00  0.00     0.030 A 
HETATM   26  C   UNK N   1      29.502  20.889  -7.413  0.00  0.00     0.006 A 
HETATM   27  H   UNK N   1      28.672  19.592  -8.843  0.00  0.00     0.166 HD
HETATM   28  C   UNK N   1      30.884  20.354  -7.291  0.00  0.00     0.068 C 
HETATM   29  C   UNK N   1      25.189  21.811  -8.281  0.00  0.00     0.005 A 
HETATM   30  C   UNK N   1      25.412  22.816  -7.313  0.00  0.00     0.038 A 
ENDBRANCH  19  20
ENDBRANCH  18  19
ENDBRANCH   1  18
TORSDOF 9
ENDMDL
MODEL 6
REMARK VINA RESULT:      -6.0     12.820     16.207
REMARK  9 active torsions:
REMARK  status: ('A' for Active; 'I' for Inactive)
REMARK    1  A    between atoms: O_1  and  C_8 
REMARK    2  A    between atoms: O_1  and  C_20 
REMARK    3  A    between atoms: O_2  and  C_12 
REMARK    4  A    between atoms: O_2  and  C_14 
REMARK    5  A    between atoms: N_4  and  C_6 
REMARK    6  A    between atoms: N_4  and  C_7 
REMARK    7  A    between atoms: C_7  and  C_8 
REMARK    8  A    between atoms: C_8  and  C_12 
REMARK    9  A    between atoms: C_20  and  C_23 
ROOT
HETATM    1  C   UNK N   1      33.467  14.897   8.035  0.00  0.00     0.173 C 
ENDROOT
BRANCH   1   2
HETATM    2  O   UNK N   1      34.383  15.808   7.579  0.00  0.00    -0.308 OA
BRANCH   2   3
HETATM    3  C   UNK N   1      34.829  15.762   6.305  0.00  0.00     0.293 C 
HETATM    4  O   UNK N   1      35.930  15.291   6.049  0.00  0.00    -0.259 OA
BRANCH   3   5
HETATM    5  C   UNK N   1      33.920  16.169   5.226  0.00  0.00     0.039 A 
HETATM    6  C   UNK N   1      33.733  15.316   4.130  0.00  0.00     0.017 A 
HETATM    7  C   UNK N   1      32.940  15.713   3.052  0.00  0.00     0.001 A 
HETATM    8  C   UNK N   1      32.335  16.972   3.061  0.00  0.00     0.000 A 
HETATM    9  C   UNK N   1      32.517  17.829   4.151  0.00  0.00     0.001 A 
HETATM   10  C   UNK N   1      33.311  17.432   5.230  0.00  0.00     0.017 A 
ENDBRANCH   3   5
ENDBRANCH   2   3
ENDBRANCH   1   2
BRANCH   1  11
HETATM   11  C   UNK N   1      34.070  13.909   9.002  0.00  0.00     0.149 C 
BRANCH  11  12
HETATM   12  N   UNK N   1      33.898  14.454  10.347  0.00  0.00    -0.411 N 
HETATM   13  H   UNK N   1      32.996  14.568  10.808  0.00  0.00     0.154 HD
BRANCH  12  14
HETATM   14  C   UNK N   1      35.183  14.815  10.950  0.00  0.00     0.014 C 
HETATM   15  C   UNK N   1      36.293  14.240  10.095  0.00  0.00     0.037 C 
HETATM   16  C   UNK N   1      35.383  16.325  11.012  0.00  0.00     0.037 C 
HETATM   17  C   UNK N   1      35.294  14.220  12.343  0.00  0.00     0.037 C 
ENDBRANCH  12  14
ENDBRANCH  11  12
ENDBRANCH   1  11
BRANCH   1  18
HETATM   18  C   UNK N   1      32.263  15.609   8.639  0.00  0.00     0.209 C 
BRANCH  18  19
HETATM   19  O   UNK N   1      31.330  15.965   7.683  0.00  0.00    -0.348 OA
BRANCH  19  20
HETATM   20  C   UNK N   1      30.376  16.902   7.898  0.00  0.00     0.081 A 
HETATM   21  C   UNK N   1      29.495  17.257   6.872  0.00  0.00     0.026 A 
HETATM   22  C   UNK N   1      28.489  18.163   7.076  0.00  0.00     0.045 A 
HETATM   23  C   UNK N   1      29.403  16.807   5.574  0.00  0.00     0.041 A 
HETATM   24  N   UNK N   1      27.749  18.315   5.964  0.00  0.00    -0.359 N 
HETATM   25  C   UNK N   1      28.295  18.792   8.300  0.00  0.00     0.030 A 
HETATM   26  C   UNK N   1      28.308  17.489   5.050  0.00  0.00     0.006 A 
HETATM   27  H   UNK N   1      26.968  18.902   5.841  0.00  0.00     0.166 HD
HETATM   28  C   UNK N   1      27.786  17.325   3.667  0.00  0.00     0.068 C 
HETATM   29  C   UNK N   1      29.176  18.470   9.350  0.00  0.00     0.005 A 
HETATM   30  C   UNK N   1      30.206  17.524   9.154  0.00  0.00     0.038 A 
ENDBRANCH  19  20
ENDBRANCH  18  19
ENDBRANCH   1  18
TORSDOF 9
ENDMDL
MODEL 7
REMARK VINA RESULT:      -5.9      3.022      7.001
REMARK  9 active torsions:
REMARK  status: ('A' for Active; 'I' for Inactive)
REMARK    1  A    between atoms: O_1  and  C_8 
REMARK    2  A    between atoms: O_1  and  C_20 
REMARK    3  A    between atoms: O_2  and  C_12 
REMARK    4  A    between atoms: O_2  and  C_14 
REMARK    5  A    between atoms: N_4  and  C_6 
REMARK    6  A    between atoms: N_4  and  C_7 
REMARK    7  A    between atoms: C_7  and  C_8 
REMARK    8  A    between atoms: C_8  and  C_12 
REMARK    9  A    between atoms: C_20  and  C_23 
ROOT
HETATM    1  C   UNK N   1      26.133  26.319  -3.850  0.00  0.00     0.173 C 
ENDROOT
BRANCH   1   2
HETATM    2  O   UNK N   1      27.352  25.699  -3.933  0.00  0.00    -0.308 OA
BRANCH   2   3
HETATM    3  C   UNK N   1      27.535  24.463  -3.421  0.00  0.00     0.293 C 
HETATM    4  O   UNK N   1      26.777  24.027  -2.564  0.00  0.00    -0.259 OA
BRANCH   3   5
HETATM    5  C   UNK N   1      28.579  23.607  -4.002  0.00  0.00     0.039 A 
HETATM    6  C   UNK N   1      28.569  23.358  -5.382  0.00  0.00     0.017 A 
HETATM    7  C   UNK N   1      29.498  22.483  -5.948  0.00  0.00     0.001 A 
HETATM    8  C   UNK N   1      30.438  21.846  -5.134  0.00  0.00     0.000 A 
HETATM    9  C   UNK N   1      30.453  22.090  -3.757  0.00  0.00     0.001 A 
HETATM   10  C   UNK N   1      29.523  22.966  -3.190  0.00  0.00     0.017 A 
ENDBRANCH   3   5
ENDBRANCH   2   3
ENDBRANCH   1   2
BRANCH   1  11
HETATM   11  C   UNK N   1      26.185  27.581  -3.024  0.00  0.00     0.149 C 
BRANCH  11  12
HETATM   12  N   UNK N   1      25.852  28.696  -3.909  0.00  0.00    -0.411 N 
HETATM   13  H   UNK N   1      24.983  28.769  -4.436  0.00  0.00     0.154 HD
BRANCH  12  14
HETATM   14  C   UNK N   1      26.923  29.695  -3.942  0.00  0.00     0.014 C 
HETATM   15  C   UNK N   1      26.314  31.058  -3.689  0.00  0.00     0.037 C 
HETATM   16  C   UNK N   1      27.971  29.448  -2.864  0.00  0.00     0.037 C 
HETATM   17  C   UNK N   1      27.581  29.710  -5.311  0.00  0.00     0.037 C 
ENDBRANCH  12  14
ENDBRANCH  11  12
ENDBRANCH   1  11
BRANCH   1  18
HETATM   18  C   UNK N   1      25.574  26.584  -5.243  0.00  0.00     0.209 C 
BRANCH  18  19
HETATM   19  O   UNK N   1      25.338  25.415  -5.943  0.00  0.00    -0.348 OA
BRANCH  19  20
HETATM   20  C   UNK N   1      25.708  25.243  -7.234  0.00  0.00     0.081 A 
HETATM   21  C   UNK N   1      25.784  23.958  -7.780  0.00  0.00     0.026 A 
HETATM   22  C   UNK N   1      26.105  23.758  -9.095  0.00  0.00     0.045 A 
HETATM   23  C   UNK N   1      25.542  22.728  -7.211  0.00  0.00     0.041 A 
HETATM   24  N   UNK N   1      26.077  22.449  -9.401  0.00  0.00    -0.359 N 
HETATM   25  C   UNK N   1      26.389  24.810  -9.957  0.00  0.00     0.030 A 
HETATM   26  C   UNK N   1      25.734  21.823  -8.251  0.00  0.00     0.006 A 
HETATM   27  H   UNK N   1      26.266  22.035 -10.274  0.00  0.00     0.166 HD
HETATM   28  C   UNK N   1      25.565  20.350  -8.140  0.00  0.00     0.068 C 
HETATM   29  C   UNK N   1      26.338  26.117  -9.436  0.00  0.00     0.005 A 
HETATM   30  C   UNK N   1      25.993  26.334  -8.084  0.00  0.00     0.038 A 
ENDBRANCH  19  20
ENDBRANCH  18  19
ENDBRANCH   1  18
TORSDOF 9
ENDMDL
MODEL 8
REMARK VINA RESULT:      -5.9      1.997      4.770
REMARK  9 active torsions:
REMARK  status: ('A' for Active; 'I' for Inactive)
REMARK    1  A    between atoms: O_1  and  C_8 
REMARK    2  A    between atoms: O_1  and  C_20 
REMARK    3  A    between atoms: O_2  and  C_12 
REMARK    4  A    between atoms: O_2  and  C_14 
REMARK    5  A    between atoms: N_4  and  C_6 
REMARK    6  A    between atoms: N_4  and  C_7 
REMARK    7  A    between atoms: C_7  and  C_8 
REMARK    8  A    between atoms: C_8  and  C_12 
REMARK    9  A    between atoms: C_20  and  C_23 
ROOT
HETATM    1  C   UNK N   1      28.908  23.867  -3.740  0.00  0.00     0.173 C 
ENDROOT
BRANCH   1   2
HETATM    2  O   UNK N   1      29.575  25.051  -3.916  0.00  0.00    -0.308 OA
BRANCH   2   3
HETATM    3  C   UNK N   1      29.799  25.541  -5.155  0.00  0.00     0.293 C 
HETATM    4  O   UNK N   1      30.390  24.870  -5.991  0.00  0.00    -0.259 OA
BRANCH   3   5
HETATM    5  C   UNK N   1      29.209  26.837  -5.516  0.00  0.00     0.039 A 
HETATM    6  C   UNK N   1      28.837  27.073  -6.847  0.00  0.00     0.017 A 
HETATM    7  C   UNK N   1      28.352  28.323  -7.234  0.00  0.00     0.001 A 
HETATM    8  C   UNK N   1      28.243  29.348  -6.292  0.00  0.00     0.000 A 
HETATM    9  C   UNK N   1      28.612  29.121  -4.962  0.00  0.00     0.001 A 
HETATM   10  C   UNK N   1      29.098  27.869  -4.574  0.00  0.00     0.017 A 
ENDBRANCH   3   5
ENDBRANCH   2   3
ENDBRANCH   1   2
BRANCH   1  11
HETATM   11  C   UNK N   1      29.825  22.748  -3.314  0.00  0.00     0.149 C 
BRANCH  11  12
HETATM   12  N   UNK N   1      30.328  22.109  -4.528  0.00  0.00    -0.411 N 
HETATM   13  H   UNK N   1      29.822  22.079  -5.412  0.00  0.00     0.154 HD
BRANCH  12  14
HETATM   14  C   UNK N   1      31.651  21.515  -4.316  0.00  0.00     0.014 C 
HETATM   15  C   UNK N   1      32.645  22.225  -5.210  0.00  0.00     0.037 C 
HETATM   16  C   UNK N   1      32.126  21.675  -2.877  0.00  0.00     0.037 C 
HETATM   17  C   UNK N   1      31.631  20.044  -4.694  0.00  0.00     0.037 C 
ENDBRANCH  12  14
ENDBRANCH  11  12
ENDBRANCH   1  11
BRANCH   1  18
HETATM   18  C   UNK N   1      27.753  24.048  -2.763  0.00  0.00     0.209 C 
BRANCH  18  19
HETATM   19  O   UNK N   1      26.523  24.008  -3.394  0.00  0.00    -0.348 OA
BRANCH  19  20
HETATM   20  C   UNK N   1      26.145  24.912  -4.329  0.00  0.00     0.081 A 
HETATM   21  C   UNK N   1      25.969  24.517  -5.658  0.00  0.00     0.026 A 
HETATM   22  C   UNK N   1      25.538  25.397  -6.614  0.00  0.00     0.045 A 
HETATM   23  C   UNK N   1      26.124  23.286  -6.255  0.00  0.00     0.041 A 
HETATM   24  N   UNK N   1      25.406  24.785  -7.804  0.00  0.00    -0.359 N 
HETATM   25  C   UNK N   1      25.268  26.730  -6.326  0.00  0.00     0.030 A 
HETATM   26  C   UNK N   1      25.764  23.499  -7.583  0.00  0.00     0.006 A 
HETATM   27  H   UNK N   1      25.111  25.186  -8.653  0.00  0.00     0.166 HD
HETATM   28  C   UNK N   1      25.745  22.451  -8.638  0.00  0.00     0.068 C 
HETATM   29  C   UNK N   1      25.450  27.165  -5.000  0.00  0.00     0.005 A 
HETATM   30  C   UNK N   1      25.880  26.260  -4.004  0.00  0.00     0.038 A 
ENDBRANCH  19  20
ENDBRANCH  18  19
ENDBRANCH   1  18
TORSDOF 9
ENDMDL
MODEL 9
REMARK VINA RESULT:      -5.7      2.576      5.386
REMARK  9 active torsions:
REMARK  status: ('A' for Active; 'I' for Inactive)
REMARK    1  A    between atoms: O_1  and  C_8 
REMARK    2  A    between atoms: O_1  and  C_20 
REMARK    3  A    between atoms: O_2  and  C_12 
REMARK    4  A    between atoms: O_2  and  C_14 
REMARK    5  A    between atoms: N_4  and  C_6 
REMARK    6  A    between atoms: N_4  and  C_7 
REMARK    7  A    between atoms: C_7  and  C_8 
REMARK    8  A    between atoms: C_8  and  C_12 
REMARK    9  A    between atoms: C_20  and  C_23 
ROOT
HETATM    1  C   UNK N   1      25.567  24.626  -5.302  0.00  0.00     0.173 C 
ENDROOT
BRANCH   1   2
HETATM    2  O   UNK N   1      25.802  25.588  -6.249  0.00  0.00    -0.308 OA
BRANCH   2   3
HETATM    3  C   UNK N   1      25.513  26.885  -6.004  0.00  0.00     0.293 C 
HETATM    4  O   UNK N   1      24.385  27.216  -5.664  0.00  0.00    -0.259 OA
BRANCH   3   5
HETATM    5  C   UNK N   1      26.606  27.866  -6.029  0.00  0.00     0.039 A 
HETATM    6  C   UNK N   1      26.675  28.839  -5.022  0.00  0.00     0.017 A 
HETATM    7  C   UNK N   1      27.653  29.833  -5.067  0.00  0.00     0.001 A 
HETATM    8  C   UNK N   1      28.565  29.864  -6.125  0.00  0.00     0.000 A 
HETATM    9  C   UNK N   1      28.502  28.897  -7.133  0.00  0.00     0.001 A 
HETATM   10  C   UNK N   1      27.522  27.901  -7.089  0.00  0.00     0.017 A 
ENDBRANCH   3   5
ENDBRANCH   2   3
ENDBRANCH   1   2
BRANCH   1  11
HETATM   11  C   UNK N   1      25.793  23.231  -5.830  0.00  0.00     0.149 C 
BRANCH  11  12
HETATM   12  N   UNK N   1      26.774  23.327  -6.910  0.00  0.00    -0.411 N 
HETATM   13  H   UNK N   1      27.545  23.993  -6.926  0.00  0.00     0.154 HD
BRANCH  12  14
HETATM   14  C   UNK N   1      26.510  22.345  -7.964  0.00  0.00     0.014 C 
HETATM   15  C   UNK N   1      25.220  21.623  -7.636  0.00  0.00     0.037 C 
HETATM   16  C   UNK N   1      26.338  23.001  -9.329  0.00  0.00     0.037 C 
HETATM   17  C   UNK N   1      27.631  21.321  -8.019  0.00  0.00     0.037 C 
ENDBRANCH  12  14
ENDBRANCH  11  12
ENDBRANCH   1  11
BRANCH   1  18
HETATM   18  C   UNK N   1      26.400  24.894  -4.054  0.00  0.00     0.209 C 
BRANCH  18  19
HETATM   19  O   UNK N   1      27.547  24.123  -4.014  0.00  0.00    -0.348 OA
BRANCH  19  20
HETATM   20  C   UNK N   1      28.792  24.652  -4.057  0.00  0.00     0.081 A 
HETATM   21  C   UNK N   1      29.913  23.816  -4.059  0.00  0.00     0.026 A 
HETATM   22  C   UNK N   1      31.182  24.322  -4.154  0.00  0.00     0.045 A 
HETATM   23  C   UNK N   1      30.006  22.443  -4.015  0.00  0.00     0.041 A 
HETATM   24  N   UNK N   1      32.091  23.332  -4.176  0.00  0.00    -0.359 N 
HETATM   25  C   UNK N   1      31.431  25.686  -4.236  0.00  0.00     0.030 A 
HETATM   26  C   UNK N   1      31.373  22.188  -4.091  0.00  0.00     0.006 A 
HETATM   27  H   UNK N   1      33.069  23.420  -4.241  0.00  0.00     0.166 HD
HETATM   28  C   UNK N   1      31.986  20.834  -4.104  0.00  0.00     0.068 C 
HETATM   29  C   UNK N   1      30.326  26.558  -4.220  0.00  0.00     0.005 A 
HETATM   30  C   UNK N   1      29.012  26.044  -4.138  0.00  0.00     0.038 A 
ENDBRANCH  19  20
ENDBRANCH  18  19
ENDBRANCH   1  18
TORSDOF 9
ENDMDL
