MODEL 1
REMARK VINA RESULT:      -7.4      0.000      0.000
REMARK  12 active torsions:
REMARK  status: ('A' for Active; 'I' for Inactive)
REMARK    1  A    between atoms: S_1  and  C_26 
REMARK    2  A    between atoms: S_1  and  C_34 
REMARK    3  A    between atoms: O_3  and  C_19 
REMARK    4  A    between atoms: O_5  and  C_27 
REMARK    5  A    between atoms: O_8  and  C_31 
REMARK    6  A    between atoms: O_10  and  C_37 
REMARK    7  A    between atoms: C_19  and  N_12 
REMARK       I    between atoms: N_12  and  C_25 
REMARK    8  A    between atoms: C_22  and  C_27 
REMARK    9  A    between atoms: C_23  and  C_26 
REMARK   10  A    between atoms: C_25  and  C_29 
REMARK   11  A    between atoms: C_29  and  C_30 
REMARK   12  A    between atoms: C_29  and  C_31 
ROOT
HETATM    1  O   UNK N   1      33.787  16.068   8.959  0.00  0.00    -0.356 OA
HETATM    2  O   UNK N   1      35.669  13.201   6.672  0.00  0.00    -0.267 OA
HETATM    3  N   UNK N   1      35.601  14.964   8.100  0.00  0.00    -0.274 N 
HETATM    4  C   UNK N   1      34.248  15.234   6.530  0.00  0.00     0.265 A 
HETATM    5  C   UNK N   1      34.691  16.035   7.877  0.00  0.00     0.297 A 
HETATM    6  C   UNK N   1      35.336  14.330   6.999  0.00  0.00     0.287 A 
HETATM    7  C   UNK N   1      36.126  14.591   9.359  0.00  0.00     0.119 C 
HETATM    8  C   UNK N   1      35.619  15.286  10.408  0.00  0.00    -0.013 C 
HETATM    9  C   UNK N   1      34.565  16.361  10.120  0.00  0.00     0.208 C 
ENDROOT
BRANCH   4  10
HETATM   10  O   UNK N   1      34.531  15.867   5.304  0.00  0.00    -0.354 OA
HETATM   11  C   UNK N   1      34.392  14.901   4.297  0.00  0.00     0.205 C 
ENDBRANCH   4  10
BRANCH   4  12
HETATM   12  N   UNK N   1      32.975  14.541   6.619  0.00  0.00    -0.317 N 
HETATM   13  C   UNK N   1      31.785  15.107   6.293  0.00  0.00     0.239 C 
HETATM   14  O   UNK N   1      30.775  14.420   6.301  0.00  0.00    -0.272 OA
HETATM   15  H   UNK N   1      32.975  13.608   6.935  0.00  0.00     0.166 HD
BRANCH  13  16
HETATM   16  C   UNK N   1      31.687  16.583   5.999  0.00  0.00     0.208 C 
BRANCH  16  17
HETATM   17  C   UNK N   1      30.609  17.159   6.865  0.00  0.00    -0.035 A 
HETATM   18  C   UNK N   1      29.342  17.464   6.348  0.00  0.00     0.011 A 
HETATM   19  C   UNK N   1      28.310  17.852   7.206  0.00  0.00     0.037 A 
HETATM   20  C   UNK N   1      28.531  17.904   8.586  0.00  0.00     0.065 A 
HETATM   21  C   UNK N   1      29.789  17.594   9.106  0.00  0.00     0.037 A 
HETATM   22  C   UNK N   1      30.824  17.221   8.247  0.00  0.00     0.011 A 
BRANCH  20  23
HETATM   23  O   UNK N   1      27.532  18.245   9.414  0.00  0.00    -0.361 OA
HETATM   24  H   UNK N   1      26.682  18.438   9.069  0.00  0.00     0.217 HD
ENDBRANCH  20  23
ENDBRANCH  16  17
BRANCH  16  25
HETATM   25  C   UNK N   1      31.564  16.954   4.541  0.00  0.00     0.157 C 
HETATM   26  O   UNK N   1      32.021  18.008   4.122  0.00  0.00    -0.649 OA
BRANCH  25  27
HETATM   27  O   UNK N   1      30.918  16.129   3.695  0.00  0.00    -0.775 OA
HETATM   28  H   UNK N   1      30.364  15.384   3.827  0.00  0.00     0.167 HD
ENDBRANCH  25  27
ENDBRANCH  16  25
ENDBRANCH  13  16
ENDBRANCH   4  12
BRANCH   7  29
HETATM   29  C   UNK N   1      37.107  13.470   9.501  0.00  0.00     0.194 C 
HETATM   30  O   UNK N   1      38.293  13.710   9.659  0.00  0.00    -0.645 OA
BRANCH  29  31
HETATM   31  O   UNK N   1      36.707  12.184   9.461  0.00  0.00    -0.772 OA
HETATM   32  H   UNK N   1      37.283  11.480   9.236  0.00  0.00     0.167 HD
ENDBRANCH  29  31
ENDBRANCH   7  29
BRANCH   8  33
HETATM   33  C   UNK N   1      36.038  15.033  11.818  0.00  0.00     0.121 C 
BRANCH  33  34
HETATM   34  S   UNK N   1      35.201  13.589  12.530  0.00  0.00    -0.087 SA
BRANCH  34  35
HETATM   35  C   UNK N   1      35.998  13.949  14.085  0.00  0.00     0.175 A 
HETATM   36  N   UNK N   1      35.687  13.415  15.273  0.00  0.00    -0.262 N 
HETATM   37  N   UNK N   1      36.475  13.983  16.164  0.00  0.00    -0.223 N 
HETATM   38  C   UNK N   1      34.673  12.419  15.575  0.00  0.00     0.181 C 
HETATM   39  N   UNK N   1      37.261  14.853  15.541  0.00  0.00    -0.005 NA
ATOM     40  HN  UNK N   1      36.480  13.788  17.165  1.00  0.00     0.206 HD
HETATM   41  N   UNK N   1      36.982  14.852  14.243  0.00  0.00    -0.261 N 
ATOM     42  HN  UNK N   1      37.422  15.418  13.517  1.00  0.00     0.186 HD
ENDBRANCH  34  35
ENDBRANCH  33  34
ENDBRANCH   8  33
TORSDOF 12
ENDMDL
MODEL 2
REMARK VINA RESULT:      -7.3      4.102      9.913
REMARK  12 active torsions:
REMARK  status: ('A' for Active; 'I' for Inactive)
REMARK    1  A    between atoms: S_1  and  C_26 
REMARK    2  A    between atoms: S_1  and  C_34 
REMARK    3  A    between atoms: O_3  and  C_19 
REMARK    4  A    between atoms: O_5  and  C_27 
REMARK    5  A    between atoms: O_8  and  C_31 
REMARK    6  A    between atoms: O_10  and  C_37 
REMARK    7  A    between atoms: C_19  and  N_12 
REMARK       I    between atoms: N_12  and  C_25 
REMARK    8  A    between atoms: C_22  and  C_27 
REMARK    9  A    between atoms: C_23  and  C_26 
REMARK   10  A    between atoms: C_25  and  C_29 
REMARK   11  A    between atoms: C_29  and  C_30 
REMARK   12  A    between atoms: C_29  and  C_31 
ROOT
HETATM    1  O   UNK N   1      36.625  11.350  10.936  0.00  0.00    -0.356 OA
HETATM    2  O   UNK N   1      35.695  14.139  13.825  0.00  0.00    -0.267 OA
HETATM    3  N   UNK N   1      36.786  13.380  11.985  0.00  0.00    -0.274 N 
HETATM    4  C   UNK N   1      36.754  11.919  13.479  0.00  0.00     0.265 A 
HETATM    5  C   UNK N   1      37.303  12.055  11.952  0.00  0.00     0.297 A 
HETATM    6  C   UNK N   1      36.402  13.344  13.224  0.00  0.00     0.287 A 
HETATM    7  C   UNK N   1      36.410  14.136  10.849  0.00  0.00     0.119 C 
HETATM    8  C   UNK N   1      36.487  13.462   9.675  0.00  0.00    -0.013 C 
HETATM    9  C   UNK N   1      36.955  12.002   9.709  0.00  0.00     0.208 C 
ENDROOT
BRANCH   4  10
HETATM   10  O   UNK N   1      37.729  11.751  14.481  0.00  0.00    -0.354 OA
HETATM   11  C   UNK N   1      38.400  10.550  14.210  0.00  0.00     0.205 C 
ENDBRANCH   4  10
BRANCH   4  12
HETATM   12  N   UNK N   1      35.537  11.141  13.626  0.00  0.00    -0.317 N 
HETATM   13  C   UNK N   1      34.889  10.971  14.807  0.00  0.00     0.239 C 
HETATM   14  O   UNK N   1      33.817  10.386  14.821  0.00  0.00    -0.272 OA
HETATM   15  H   UNK N   1      35.160  10.711  12.823  0.00  0.00     0.166 HD
BRANCH  13  16
HETATM   16  C   UNK N   1      35.514  11.426  16.103  0.00  0.00     0.208 C 
BRANCH  16  17
HETATM   17  C   UNK N   1      35.583  10.248  17.024  0.00  0.00    -0.035 A 
HETATM   18  C   UNK N   1      36.795   9.589  17.277  0.00  0.00     0.011 A 
HETATM   19  C   UNK N   1      36.861   8.595  18.256  0.00  0.00     0.037 A 
HETATM   20  C   UNK N   1      35.725   8.278  19.008  0.00  0.00     0.065 A 
HETATM   21  C   UNK N   1      34.518   8.936  18.764  0.00  0.00     0.037 A 
HETATM   22  C   UNK N   1      34.449   9.919  17.776  0.00  0.00     0.011 A 
BRANCH  20  23
HETATM   23  O   UNK N   1      35.795   7.346  19.971  0.00  0.00    -0.361 OA
HETATM   24  H   UNK N   1      36.460   7.402  20.629  0.00  0.00     0.217 HD
ENDBRANCH  20  23
ENDBRANCH  16  17
BRANCH  16  25
HETATM   25  C   UNK N   1      34.902  12.657  16.728  0.00  0.00     0.157 C 
HETATM   26  O   UNK N   1      35.277  13.056  17.821  0.00  0.00    -0.649 OA
BRANCH  25  27
HETATM   27  O   UNK N   1      33.912  13.308  16.089  0.00  0.00    -0.775 OA
HETATM   28  H   UNK N   1      33.014  13.471  16.301  0.00  0.00     0.167 HD
ENDBRANCH  25  27
ENDBRANCH  16  25
ENDBRANCH  13  16
ENDBRANCH   4  12
BRANCH   7  29
HETATM   29  C   UNK N   1      35.906  15.540  10.971  0.00  0.00     0.194 C 
HETATM   30  O   UNK N   1      36.645  16.479  10.730  0.00  0.00    -0.645 OA
BRANCH  29  31
HETATM   31  O   UNK N   1      34.636  15.794  11.343  0.00  0.00    -0.772 OA
HETATM   32  H   UNK N   1      34.411  16.117  12.193  0.00  0.00     0.167 HD
ENDBRANCH  29  31
ENDBRANCH   7  29
BRANCH   8  33
HETATM   33  C   UNK N   1      36.124  14.082   8.367  0.00  0.00     0.121 C 
BRANCH  33  34
HETATM   34  S   UNK N   1      34.742  13.223   7.565  0.00  0.00    -0.087 SA
BRANCH  34  35
HETATM   35  C   UNK N   1      33.625  14.344   8.388  0.00  0.00     0.175 A 
HETATM   36  N   UNK N   1      33.452  15.640   8.096  0.00  0.00    -0.262 N 
HETATM   37  N   UNK N   1      32.582  16.113   8.967  0.00  0.00    -0.223 N 
HETATM   38  C   UNK N   1      34.091  16.422   7.051  0.00  0.00     0.181 C 
HETATM   39  N   UNK N   1      32.222  15.130   9.783  0.00  0.00    -0.005 NA
ATOM     40  HN  UNK N   1      32.243  17.074   9.008  1.00  0.00     0.206 HD
HETATM   41  N   UNK N   1      32.861  14.016   9.444  0.00  0.00    -0.261 N 
ATOM     42  HN  UNK N   1      32.786  13.103   9.891  1.00  0.00     0.186 HD
ENDBRANCH  34  35
ENDBRANCH  33  34
ENDBRANCH   8  33
TORSDOF 12
ENDMDL
MODEL 3
REMARK VINA RESULT:      -7.0      1.900      2.445
REMARK  12 active torsions:
REMARK  status: ('A' for Active; 'I' for Inactive)
REMARK    1  A    between atoms: S_1  and  C_26 
REMARK    2  A    between atoms: S_1  and  C_34 
REMARK    3  A    between atoms: O_3  and  C_19 
REMARK    4  A    between atoms: O_5  and  C_27 
REMARK    5  A    between atoms: O_8  and  C_31 
REMARK    6  A    between atoms: O_10  and  C_37 
REMARK    7  A    between atoms: C_19  and  N_12 
REMARK       I    between atoms: N_12  and  C_25 
REMARK    8  A    between atoms: C_22  and  C_27 
REMARK    9  A    between atoms: C_23  and  C_26 
REMARK   10  A    between atoms: C_25  and  C_29 
REMARK   11  A    between atoms: C_29  and  C_30 
REMARK   12  A    between atoms: C_29  and  C_31 
ROOT
HETATM    1  O   UNK N   1      33.675  15.838   8.165  0.00  0.00    -0.356 OA
HETATM    2  O   UNK N   1      35.498  13.195   5.581  0.00  0.00    -0.267 OA
HETATM    3  N   UNK N   1      35.460  14.896   7.082  0.00  0.00    -0.274 N 
HETATM    4  C   UNK N   1      33.938  15.126   5.669  0.00  0.00     0.265 A 
HETATM    5  C   UNK N   1      34.463  15.907   6.998  0.00  0.00     0.297 A 
HETATM    6  C   UNK N   1      35.126  14.285   5.988  0.00  0.00     0.287 A 
HETATM    7  C   UNK N   1      36.136  14.516   8.266  0.00  0.00     0.119 C 
HETATM    8  C   UNK N   1      35.694  15.136   9.389  0.00  0.00    -0.013 C 
HETATM    9  C   UNK N   1      34.547  16.144   9.254  0.00  0.00     0.208 C 
ENDROOT
BRANCH   4  10
HETATM   10  O   UNK N   1      34.051  15.820   4.449  0.00  0.00    -0.354 OA
HETATM   11  C   UNK N   1      33.822  14.894   3.422  0.00  0.00     0.205 C 
ENDBRANCH   4  10
BRANCH   4  12
HETATM   12  N   UNK N   1      32.730  14.342   5.856  0.00  0.00    -0.317 N 
HETATM   13  C   UNK N   1      31.477  14.858   5.774  0.00  0.00     0.239 C 
HETATM   14  O   UNK N   1      30.516  14.107   5.843  0.00  0.00    -0.272 OA
HETATM   15  H   UNK N   1      32.825  13.382   6.054  0.00  0.00     0.166 HD
BRANCH  13  16
HETATM   16  C   UNK N   1      31.261  16.348   5.675  0.00  0.00     0.208 C 
BRANCH  16  17
HETATM   17  C   UNK N   1      30.264  16.743   6.721  0.00  0.00    -0.035 A 
HETATM   18  C   UNK N   1      30.670  17.197   7.983  0.00  0.00     0.011 A 
HETATM   19  C   UNK N   1      29.729  17.704   8.882  0.00  0.00     0.037 A 
HETATM   20  C   UNK N   1      28.383  17.790   8.511  0.00  0.00     0.065 A 
HETATM   21  C   UNK N   1      27.975  17.345   7.252  0.00  0.00     0.037 A 
HETATM   22  C   UNK N   1      28.913  16.824   6.360  0.00  0.00     0.011 A 
BRANCH  20  23
HETATM   23  O   UNK N   1      27.483  18.307   9.361  0.00  0.00    -0.361 OA
HETATM   24  H   UNK N   1      27.506  18.071  10.268  0.00  0.00     0.217 HD
ENDBRANCH  20  23
ENDBRANCH  16  17
BRANCH  16  25
HETATM   25  C   UNK N   1      30.943  16.874   4.296  0.00  0.00     0.157 C 
HETATM   26  O   UNK N   1      30.522  16.129   3.424  0.00  0.00    -0.649 OA
BRANCH  25  27
HETATM   27  O   UNK N   1      31.151  18.174   4.014  0.00  0.00    -0.775 OA
HETATM   28  H   UNK N   1      31.398  18.626   3.230  0.00  0.00     0.167 HD
ENDBRANCH  25  27
ENDBRANCH  16  25
ENDBRANCH  13  16
ENDBRANCH   4  12
BRANCH   7  29
HETATM   29  C   UNK N   1      37.199  13.463   8.261  0.00  0.00     0.194 C 
HETATM   30  O   UNK N   1      38.376  13.781   8.249  0.00  0.00    -0.645 OA
BRANCH  29  31
HETATM   31  O   UNK N   1      36.882  12.153   8.271  0.00  0.00    -0.772 OA
HETATM   32  H   UNK N   1      36.796  11.659   9.062  0.00  0.00     0.167 HD
ENDBRANCH  29  31
ENDBRANCH   7  29
BRANCH   8  33
HETATM   33  C   UNK N   1      36.272  14.863  10.738  0.00  0.00     0.121 C 
BRANCH  33  34
HETATM   34  S   UNK N   1      35.009  14.327  11.925  0.00  0.00    -0.087 SA
BRANCH  34  35
HETATM   35  C   UNK N   1      35.191  12.666  11.300  0.00  0.00     0.175 A 
HETATM   36  N   UNK N   1      36.167  11.806  11.618  0.00  0.00    -0.262 N 
HETATM   37  N   UNK N   1      35.962  10.717  10.904  0.00  0.00    -0.223 N 
HETATM   38  C   UNK N   1      37.269  11.997  12.546  0.00  0.00     0.181 C 
HETATM   39  N   UNK N   1      34.880  10.897  10.156  0.00  0.00    -0.005 NA
ATOM     40  HN  UNK N   1      36.539   9.875  10.922  1.00  0.00     0.206 HD
HETATM   41  N   UNK N   1      34.382  12.106  10.384  0.00  0.00    -0.261 N 
ATOM     42  HN  UNK N   1      33.556  12.524   9.954  1.00  0.00     0.186 HD
ENDBRANCH  34  35
ENDBRANCH  33  34
ENDBRANCH   8  33
TORSDOF 12
ENDMDL
MODEL 4
REMARK VINA RESULT:      -7.0     10.645     13.467
REMARK  12 active torsions:
REMARK  status: ('A' for Active; 'I' for Inactive)
REMARK    1  A    between atoms: S_1  and  C_26 
REMARK    2  A    between atoms: S_1  and  C_34 
REMARK    3  A    between atoms: O_3  and  C_19 
REMARK    4  A    between atoms: O_5  and  C_27 
REMARK    5  A    between atoms: O_8  and  C_31 
REMARK    6  A    between atoms: O_10  and  C_37 
REMARK    7  A    between atoms: C_19  and  N_12 
REMARK       I    between atoms: N_12  and  C_25 
REMARK    8  A    between atoms: C_22  and  C_27 
REMARK    9  A    between atoms: C_23  and  C_26 
REMARK   10  A    between atoms: C_25  and  C_29 
REMARK   11  A    between atoms: C_29  and  C_30 
REMARK   12  A    between atoms: C_29  and  C_31 
ROOT
HETATM    1  O   UNK N   1      23.033  15.766   3.485  0.00  0.00    -0.356 OA
HETATM    2  O   UNK N   1      18.977  15.345   4.083  0.00  0.00    -0.267 OA
HETATM    3  N   UNK N   1      20.988  14.776   3.199  0.00  0.00    -0.274 N 
HETATM    4  C   UNK N   1      20.690  16.841   3.083  0.00  0.00     0.265 A 
HETATM    5  C   UNK N   1      21.863  15.779   2.698  0.00  0.00     0.297 A 
HETATM    6  C   UNK N   1      19.996  15.574   3.450  0.00  0.00     0.287 A 
HETATM    7  C   UNK N   1      21.394  13.511   3.687  0.00  0.00     0.119 C 
HETATM    8  C   UNK N   1      22.737  13.334   3.739  0.00  0.00    -0.013 C 
HETATM    9  C   UNK N   1      23.637  14.488   3.281  0.00  0.00     0.208 C 
ENDROOT
BRANCH   4  10
HETATM   10  O   UNK N   1      20.086  17.522   2.009  0.00  0.00    -0.354 OA
HETATM   11  C   UNK N   1      19.034  18.284   2.540  0.00  0.00     0.205 C 
ENDBRANCH   4  10
BRANCH   4  12
HETATM   12  N   UNK N   1      20.937  17.619   4.284  0.00  0.00    -0.317 N 
HETATM   13  C   UNK N   1      21.616  18.794   4.292  0.00  0.00     0.239 C 
HETATM   14  O   UNK N   1      21.690  19.434   5.331  0.00  0.00    -0.272 OA
HETATM   15  H   UNK N   1      20.594  17.274   5.140  0.00  0.00     0.166 HD
BRANCH  13  16
HETATM   16  C   UNK N   1      22.341  19.277   3.060  0.00  0.00     0.208 C 
BRANCH  16  17
HETATM   17  C   UNK N   1      23.784  19.466   3.414  0.00  0.00    -0.035 A 
HETATM   18  C   UNK N   1      24.475  18.525   4.190  0.00  0.00     0.011 A 
HETATM   19  C   UNK N   1      25.854  18.646   4.375  0.00  0.00     0.037 A 
HETATM   20  C   UNK N   1      26.553  19.690   3.758  0.00  0.00     0.065 A 
HETATM   21  C   UNK N   1      25.870  20.625   2.979  0.00  0.00     0.037 A 
HETATM   22  C   UNK N   1      24.489  20.512   2.807  0.00  0.00     0.011 A 
BRANCH  20  23
HETATM   23  O   UNK N   1      27.883  19.789   3.908  0.00  0.00    -0.361 OA
HETATM   24  H   UNK N   1      28.377  20.349   3.342  0.00  0.00     0.217 HD
ENDBRANCH  20  23
ENDBRANCH  16  17
BRANCH  16  25
HETATM   25  C   UNK N   1      21.722  20.462   2.358  0.00  0.00     0.157 C 
HETATM   26  O   UNK N   1      21.729  20.540   1.138  0.00  0.00    -0.649 OA
BRANCH  25  27
HETATM   27  O   UNK N   1      21.181  21.459   3.083  0.00  0.00    -0.775 OA
HETATM   28  H   UNK N   1      20.671  22.212   2.853  0.00  0.00     0.167 HD
ENDBRANCH  25  27
ENDBRANCH  16  25
ENDBRANCH  13  16
ENDBRANCH   4  12
BRANCH   7  29
HETATM   29  C   UNK N   1      20.402  12.498   4.165  0.00  0.00     0.194 C 
HETATM   30  O   UNK N   1      20.108  11.548   3.459  0.00  0.00    -0.645 OA
BRANCH  29  31
HETATM   31  O   UNK N   1      19.820  12.609   5.375  0.00  0.00    -0.772 OA
HETATM   32  H   UNK N   1      19.573  11.867   5.890  0.00  0.00     0.167 HD
ENDBRANCH  29  31
ENDBRANCH   7  29
BRANCH   8  33
HETATM   33  C   UNK N   1      23.363  12.072   4.235  0.00  0.00     0.121 C 
BRANCH  33  34
HETATM   34  S   UNK N   1      24.466  12.366   5.645  0.00  0.00    -0.087 SA
BRANCH  34  35
HETATM   35  C   UNK N   1      23.022  12.618   6.663  0.00  0.00     0.175 A 
HETATM   36  N   UNK N   1      22.589  13.792   7.141  0.00  0.00    -0.262 N 
HETATM   37  N   UNK N   1      21.530  13.534   7.882  0.00  0.00    -0.223 N 
HETATM   38  C   UNK N   1      23.155  15.114   6.930  0.00  0.00     0.181 C 
HETATM   39  N   UNK N   1      21.309  12.225   7.865  0.00  0.00    -0.005 NA
ATOM     40  HN  UNK N   1      20.973  14.225   8.386  1.00  0.00     0.206 HD
HETATM   41  N   UNK N   1      22.228  11.631   7.113  0.00  0.00    -0.261 N 
ATOM     42  HN  UNK N   1      22.313  10.634   6.916  1.00  0.00     0.186 HD
ENDBRANCH  34  35
ENDBRANCH  33  34
ENDBRANCH   8  33
TORSDOF 12
ENDMDL
MODEL 5
REMARK VINA RESULT:      -6.9      3.811      5.609
REMARK  12 active torsions:
REMARK  status: ('A' for Active; 'I' for Inactive)
REMARK    1  A    between atoms: S_1  and  C_26 
REMARK    2  A    between atoms: S_1  and  C_34 
REMARK    3  A    between atoms: O_3  and  C_19 
REMARK    4  A    between atoms: O_5  and  C_27 
REMARK    5  A    between atoms: O_8  and  C_31 
REMARK    6  A    between atoms: O_10  and  C_37 
REMARK    7  A    between atoms: C_19  and  N_12 
REMARK       I    between atoms: N_12  and  C_25 
REMARK    8  A    between atoms: C_22  and  C_27 
REMARK    9  A    between atoms: C_23  and  C_26 
REMARK   10  A    between atoms: C_25  and  C_29 
REMARK   11  A    between atoms: C_29  and  C_30 
REMARK   12  A    between atoms: C_29  and  C_31 
ROOT
HETATM    1  O   UNK N   1      30.639  16.976   5.120  0.00  0.00    -0.356 OA
HETATM    2  O   UNK N   1      30.710  12.864   5.378  0.00  0.00    -0.267 OA
HETATM    3  N   UNK N   1      31.530  14.894   4.781  0.00  0.00    -0.274 N 
HETATM    4  C   UNK N   1      29.491  14.765   4.346  0.00  0.00     0.265 A 
HETATM    5  C   UNK N   1      30.669  15.883   4.230  0.00  0.00     0.297 A 
HETATM    6  C   UNK N   1      30.643  13.948   4.820  0.00  0.00     0.287 A 
HETATM    7  C   UNK N   1      32.732  15.158   5.480  0.00  0.00     0.119 C 
HETATM    8  C   UNK N   1      32.983  16.475   5.687  0.00  0.00    -0.013 C 
HETATM    9  C   UNK N   1      31.969  17.496   5.158  0.00  0.00     0.208 C 
ENDROOT
BRANCH   4  10
HETATM   10  O   UNK N   1      28.939  14.310   3.133  0.00  0.00    -0.354 OA
HETATM   11  C   UNK N   1      28.087  13.239   3.442  0.00  0.00     0.205 C 
ENDBRANCH   4  10
BRANCH   4  12
HETATM   12  N   UNK N   1      28.560  14.967   5.443  0.00  0.00    -0.317 N 
HETATM   13  C   UNK N   1      27.466  15.767   5.365  0.00  0.00     0.239 C 
HETATM   14  O   UNK N   1      26.682  15.799   6.301  0.00  0.00    -0.272 OA
HETATM   15  H   UNK N   1      28.733  14.498   6.291  0.00  0.00     0.166 HD
BRANCH  13  16
HETATM   16  C   UNK N   1      27.252  16.669   4.174  0.00  0.00     0.208 C 
BRANCH  16  17
HETATM   17  C   UNK N   1      27.374  18.087   4.638  0.00  0.00    -0.035 A 
HETATM   18  C   UNK N   1      26.976  19.158   3.825  0.00  0.00     0.011 A 
HETATM   19  C   UNK N   1      26.955  20.457   4.338  0.00  0.00     0.037 A 
HETATM   20  C   UNK N   1      27.299  20.687   5.674  0.00  0.00     0.065 A 
HETATM   21  C   UNK N   1      27.689  19.623   6.489  0.00  0.00     0.037 A 
HETATM   22  C   UNK N   1      27.725  18.327   5.972  0.00  0.00     0.011 A 
BRANCH  20  23
HETATM   23  O   UNK N   1      27.247  21.930   6.177  0.00  0.00    -0.361 OA
HETATM   24  H   UNK N   1      28.011  22.309   6.567  0.00  0.00     0.217 HD
ENDBRANCH  20  23
ENDBRANCH  16  17
BRANCH  16  25
HETATM   25  C   UNK N   1      26.010  16.395   3.360  0.00  0.00     0.157 C 
HETATM   26  O   UNK N   1      26.090  16.094   2.178  0.00  0.00    -0.649 OA
BRANCH  25  27
HETATM   27  O   UNK N   1      24.798  16.511   3.933  0.00  0.00    -0.775 OA
HETATM   28  H   UNK N   1      24.449  16.223   4.755  0.00  0.00     0.167 HD
ENDBRANCH  25  27
ENDBRANCH  16  25
ENDBRANCH  13  16
ENDBRANCH   4  12
BRANCH   7  29
HETATM   29  C   UNK N   1      33.599  14.054   5.999  0.00  0.00     0.194 C 
HETATM   30  O   UNK N   1      34.565  13.680   5.356  0.00  0.00    -0.645 OA
BRANCH  29  31
HETATM   31  O   UNK N   1      33.336  13.458   7.179  0.00  0.00    -0.772 OA
HETATM   32  H   UNK N   1      33.672  13.775   7.994  0.00  0.00     0.167 HD
ENDBRANCH  29  31
ENDBRANCH   7  29
BRANCH   8  33
HETATM   33  C   UNK N   1      34.195  16.957   6.413  0.00  0.00     0.121 C 
BRANCH  33  34
HETATM   34  S   UNK N   1      33.768  18.027   7.815  0.00  0.00    -0.087 SA
BRANCH  34  35
HETATM   35  C   UNK N   1      33.307  16.566   8.731  0.00  0.00     0.175 A 
HETATM   36  N   UNK N   1      32.060  16.191   9.041  0.00  0.00    -0.262 N 
HETATM   37  N   UNK N   1      32.161  15.092   9.762  0.00  0.00    -0.223 N 
HETATM   38  C   UNK N   1      30.809  16.845   8.693  0.00  0.00     0.181 C 
HETATM   39  N   UNK N   1      33.447  14.791   9.897  0.00  0.00    -0.005 NA
ATOM     40  HN  UNK N   1      31.382  14.561  10.152  1.00  0.00     0.206 HD
HETATM   41  N   UNK N   1      34.183  15.697   9.265  0.00  0.00    -0.261 N 
ATOM     42  HN  UNK N   1      35.200  15.727   9.197  1.00  0.00     0.186 HD
ENDBRANCH  34  35
ENDBRANCH  33  34
ENDBRANCH   8  33
TORSDOF 12
ENDMDL
MODEL 6
REMARK VINA RESULT:      -6.8      3.760      9.560
REMARK  12 active torsions:
REMARK  status: ('A' for Active; 'I' for Inactive)
REMARK    1  A    between atoms: S_1  and  C_26 
REMARK    2  A    between atoms: S_1  and  C_34 
REMARK    3  A    between atoms: O_3  and  C_19 
REMARK    4  A    between atoms: O_5  and  C_27 
REMARK    5  A    between atoms: O_8  and  C_31 
REMARK    6  A    between atoms: O_10  and  C_37 
REMARK    7  A    between atoms: C_19  and  N_12 
REMARK       I    between atoms: N_12  and  C_25 
REMARK    8  A    between atoms: C_22  and  C_27 
REMARK    9  A    between atoms: C_23  and  C_26 
REMARK   10  A    between atoms: C_25  and  C_29 
REMARK   11  A    between atoms: C_29  and  C_30 
REMARK   12  A    between atoms: C_29  and  C_31 
ROOT
HETATM    1  O   UNK N   1      34.490  12.663   9.855  0.00  0.00    -0.356 OA
HETATM    2  O   UNK N   1      36.053  15.154  12.742  0.00  0.00    -0.267 OA
HETATM    3  N   UNK N   1      35.760  14.409  10.619  0.00  0.00    -0.274 N 
HETATM    4  C   UNK N   1      36.071  12.809  11.926  0.00  0.00     0.265 A 
HETATM    5  C   UNK N   1      35.767  13.014  10.339  0.00  0.00     0.297 A 
HETATM    6  C   UNK N   1      36.078  14.297  11.872  0.00  0.00     0.287 A 
HETATM    7  C   UNK N   1      35.097  15.391   9.845  0.00  0.00     0.119 C 
HETATM    8  C   UNK N   1      34.355  14.895   8.824  0.00  0.00    -0.013 C 
HETATM    9  C   UNK N   1      34.318  13.375   8.630  0.00  0.00     0.208 C 
ENDROOT
BRANCH   4  10
HETATM   10  O   UNK N   1      37.321  12.252  12.256  0.00  0.00    -0.354 OA
HETATM   11  C   UNK N   1      37.387  10.991  11.647  0.00  0.00     0.205 C 
ENDBRANCH   4  10
BRANCH   4  12
HETATM   12  N   UNK N   1      34.937  12.360  12.714  0.00  0.00    -0.317 N 
HETATM   13  C   UNK N   1      34.971  12.205  14.062  0.00  0.00     0.239 C 
HETATM   14  O   UNK N   1      33.942  11.922  14.657  0.00  0.00    -0.272 OA
HETATM   15  H   UNK N   1      34.096  12.157  12.244  0.00  0.00     0.166 HD
BRANCH  13  16
HETATM   16  C   UNK N   1      36.273  12.301  14.818  0.00  0.00     0.208 C 
BRANCH  16  17
HETATM   17  C   UNK N   1      36.436  11.049  15.623  0.00  0.00    -0.035 A 
HETATM   18  C   UNK N   1      37.176   9.961  15.139  0.00  0.00     0.011 A 
HETATM   19  C   UNK N   1      37.443   8.870  15.969  0.00  0.00     0.037 A 
HETATM   20  C   UNK N   1      37.000   8.876  17.296  0.00  0.00     0.065 A 
HETATM   21  C   UNK N   1      36.269   9.961  17.784  0.00  0.00     0.037 A 
HETATM   22  C   UNK N   1      35.990  11.044  16.950  0.00  0.00     0.011 A 
BRANCH  20  23
HETATM   23  O   UNK N   1      37.284   7.843  18.104  0.00  0.00    -0.361 OA
HETATM   24  H   UNK N   1      37.608   8.001  18.969  0.00  0.00     0.217 HD
ENDBRANCH  20  23
ENDBRANCH  16  17
BRANCH  16  25
HETATM   25  C   UNK N   1      36.478  13.569  15.610  0.00  0.00     0.157 C 
HETATM   26  O   UNK N   1      35.672  13.912  16.463  0.00  0.00    -0.649 OA
BRANCH  25  27
HETATM   27  O   UNK N   1      37.547  14.349  15.358  0.00  0.00    -0.775 OA
HETATM   28  H   UNK N   1      37.909  14.699  14.567  0.00  0.00     0.167 HD
ENDBRANCH  25  27
ENDBRANCH  16  25
ENDBRANCH  13  16
ENDBRANCH   4  12
BRANCH   7  29
HETATM   29  C   UNK N   1      35.169  16.845  10.192  0.00  0.00     0.194 C 
HETATM   30  O   UNK N   1      35.412  17.670   9.326  0.00  0.00    -0.645 OA
BRANCH  29  31
HETATM   31  O   UNK N   1      34.966  17.272  11.454  0.00  0.00    -0.772 OA
HETATM   32  H   UNK N   1      34.146  17.173  11.897  0.00  0.00     0.167 HD
ENDBRANCH  29  31
ENDBRANCH   7  29
BRANCH   8  33
HETATM   33  C   UNK N   1      33.573  15.770   7.900  0.00  0.00     0.121 C 
BRANCH  33  34
HETATM   34  S   UNK N   1      32.003  15.007   7.407  0.00  0.00    -0.087 SA
BRANCH  34  35
HETATM   35  C   UNK N   1      31.166  16.489   7.942  0.00  0.00     0.175 A 
HETATM   36  N   UNK N   1      30.045  16.996   7.414  0.00  0.00    -0.262 N 
HETATM   37  N   UNK N   1      29.792  18.117   8.061  0.00  0.00    -0.223 N 
HETATM   38  C   UNK N   1      29.241  16.465   6.326  0.00  0.00     0.181 C 
HETATM   39  N   UNK N   1      30.738  18.302   8.973  0.00  0.00    -0.005 NA
ATOM     40  HN  UNK N   1      29.002  18.739   7.889  1.00  0.00     0.206 HD
HETATM   41  N   UNK N   1      31.609  17.301   8.918  0.00  0.00    -0.261 N 
ATOM     42  HN  UNK N   1      32.439  17.173   9.496  1.00  0.00     0.186 HD
ENDBRANCH  34  35
ENDBRANCH  33  34
ENDBRANCH   8  33
TORSDOF 12
ENDMDL
MODEL 7
REMARK VINA RESULT:      -6.8      2.246      3.802
REMARK  12 active torsions:
REMARK  status: ('A' for Active; 'I' for Inactive)
REMARK    1  A    between atoms: S_1  and  C_26 
REMARK    2  A    between atoms: S_1  and  C_34 
REMARK    3  A    between atoms: O_3  and  C_19 
REMARK    4  A    between atoms: O_5  and  C_27 
REMARK    5  A    between atoms: O_8  and  C_31 
REMARK    6  A    between atoms: O_10  and  C_37 
REMARK    7  A    between atoms: C_19  and  N_12 
REMARK       I    between atoms: N_12  and  C_25 
REMARK    8  A    between atoms: C_22  and  C_27 
REMARK    9  A    between atoms: C_23  and  C_26 
REMARK   10  A    between atoms: C_25  and  C_29 
REMARK   11  A    between atoms: C_29  and  C_30 
REMARK   12  A    between atoms: C_29  and  C_31 
ROOT
HETATM    1  O   UNK N   1      36.024  12.586   8.326  0.00  0.00    -0.356 OA
HETATM    2  O   UNK N   1      33.642  15.448  10.094  0.00  0.00    -0.267 OA
HETATM    3  N   UNK N   1      34.648  13.418   9.957  0.00  0.00    -0.274 N 
HETATM    4  C   UNK N   1      33.810  13.951   8.119  0.00  0.00     0.265 A 
HETATM    5  C   UNK N   1      34.677  12.711   8.723  0.00  0.00     0.297 A 
HETATM    6  C   UNK N   1      33.894  14.388   9.540  0.00  0.00     0.287 A 
HETATM    7  C   UNK N   1      35.592  13.271  11.002  0.00  0.00     0.119 C 
HETATM    8  C   UNK N   1      36.628  12.447  10.710  0.00  0.00    -0.013 C 
HETATM    9  C   UNK N   1      36.661  11.789   9.325  0.00  0.00     0.208 C 
ENDROOT
BRANCH   4  10
HETATM   10  O   UNK N   1      32.500  13.652   7.698  0.00  0.00    -0.354 OA
HETATM   11  C   UNK N   1      32.597  13.051   6.435  0.00  0.00     0.205 C 
ENDBRANCH   4  10
BRANCH   4  12
HETATM   12  N   UNK N   1      34.560  14.875   7.286  0.00  0.00    -0.317 N 
HETATM   13  C   UNK N   1      34.134  16.126   6.977  0.00  0.00     0.239 C 
HETATM   14  O   UNK N   1      34.874  16.872   6.354  0.00  0.00    -0.272 OA
HETATM   15  H   UNK N   1      35.426  14.576   6.925  0.00  0.00     0.166 HD
BRANCH  13  16
HETATM   16  C   UNK N   1      32.735  16.573   7.324  0.00  0.00     0.208 C 
BRANCH  16  17
HETATM   17  C   UNK N   1      31.974  16.752   6.047  0.00  0.00    -0.035 A 
HETATM   18  C   UNK N   1      32.550  17.386   4.937  0.00  0.00     0.011 A 
HETATM   19  C   UNK N   1      31.878  17.402   3.712  0.00  0.00     0.037 A 
HETATM   20  C   UNK N   1      30.644  16.756   3.584  0.00  0.00     0.065 A 
HETATM   21  C   UNK N   1      30.070  16.118   4.685  0.00  0.00     0.037 A 
HETATM   22  C   UNK N   1      30.735  16.115   5.912  0.00  0.00     0.011 A 
BRANCH  20  23
HETATM   23  O   UNK N   1      30.012  16.742   2.400  0.00  0.00    -0.361 OA
HETATM   24  H   UNK N   1      30.168  17.426   1.778  0.00  0.00     0.217 HD
ENDBRANCH  20  23
ENDBRANCH  16  17
BRANCH  16  25
HETATM   25  C   UNK N   1      32.639  17.751   8.264  0.00  0.00     0.157 C 
HETATM   26  O   UNK N   1      31.552  18.202   8.592  0.00  0.00    -0.649 OA
BRANCH  25  27
HETATM   27  O   UNK N   1      33.763  18.329   8.726  0.00  0.00    -0.775 OA
HETATM   28  H   UNK N   1      33.924  19.114   9.214  0.00  0.00     0.167 HD
ENDBRANCH  25  27
ENDBRANCH  16  25
ENDBRANCH  13  16
ENDBRANCH   4  12
BRANCH   7  29
HETATM   29  C   UNK N   1      35.468  14.031  12.285  0.00  0.00     0.194 C 
HETATM   30  O   UNK N   1      36.028  15.106  12.416  0.00  0.00    -0.645 OA
BRANCH  29  31
HETATM   31  O   UNK N   1      34.742  13.549  13.313  0.00  0.00    -0.772 OA
HETATM   32  H   UNK N   1      34.074  12.901  13.202  0.00  0.00     0.167 HD
ENDBRANCH  29  31
ENDBRANCH   7  29
BRANCH   8  33
HETATM   33  C   UNK N   1      37.732  12.170  11.677  0.00  0.00     0.121 C 
BRANCH  33  34
HETATM   34  S   UNK N   1      37.631  10.494  12.364  0.00  0.00    -0.087 SA
BRANCH  34  35
HETATM   35  C   UNK N   1      37.012  11.202  13.881  0.00  0.00     0.175 A 
HETATM   36  N   UNK N   1      36.001  10.725  14.619  0.00  0.00    -0.262 N 
HETATM   37  N   UNK N   1      35.833  11.565  15.621  0.00  0.00    -0.223 N 
HETATM   38  C   UNK N   1      35.202   9.533  14.389  0.00  0.00     0.181 C 
HETATM   39  N   UNK N   1      36.722  12.544  15.508  0.00  0.00    -0.005 NA
ATOM     40  HN  UNK N   1      35.135  11.478  16.361  1.00  0.00     0.206 HD
HETATM   41  N   UNK N   1      37.469  12.342  14.429  0.00  0.00    -0.261 N 
ATOM     42  HN  UNK N   1      38.230  12.928  14.087  1.00  0.00     0.186 HD
ENDBRANCH  34  35
ENDBRANCH  33  34
ENDBRANCH   8  33
TORSDOF 12
ENDMDL
MODEL 8
REMARK VINA RESULT:      -6.8      2.000      2.666
REMARK  12 active torsions:
REMARK  status: ('A' for Active; 'I' for Inactive)
REMARK    1  A    between atoms: S_1  and  C_26 
REMARK    2  A    between atoms: S_1  and  C_34 
REMARK    3  A    between atoms: O_3  and  C_19 
REMARK    4  A    between atoms: O_5  and  C_27 
REMARK    5  A    between atoms: O_8  and  C_31 
REMARK    6  A    between atoms: O_10  and  C_37 
REMARK    7  A    between atoms: C_19  and  N_12 
REMARK       I    between atoms: N_12  and  C_25 
REMARK    8  A    between atoms: C_22  and  C_27 
REMARK    9  A    between atoms: C_23  and  C_26 
REMARK   10  A    between atoms: C_25  and  C_29 
REMARK   11  A    between atoms: C_29  and  C_30 
REMARK   12  A    between atoms: C_29  and  C_31 
ROOT
HETATM    1  O   UNK N   1      32.280  15.885   7.732  0.00  0.00    -0.356 OA
HETATM    2  O   UNK N   1      33.107  12.135   6.234  0.00  0.00    -0.267 OA
HETATM    3  N   UNK N   1      33.629  14.099   7.244  0.00  0.00    -0.274 N 
HETATM    4  C   UNK N   1      32.421  14.429   5.572  0.00  0.00     0.265 A 
HETATM    5  C   UNK N   1      33.113  15.326   6.741  0.00  0.00     0.297 A 
HETATM    6  C   UNK N   1      33.162  13.354   6.290  0.00  0.00     0.287 A 
HETATM    7  C   UNK N   1      34.019  13.868   8.585  0.00  0.00     0.119 C 
HETATM    8  C   UNK N   1      33.775  14.904   9.427  0.00  0.00    -0.013 C 
HETATM    9  C   UNK N   1      33.124  16.166   8.850  0.00  0.00     0.208 C 
ENDROOT
BRANCH   4  10
HETATM   10  O   UNK N   1      32.881  14.649   4.259  0.00  0.00    -0.354 OA
HETATM   11  C   UNK N   1      32.167  13.782   3.419  0.00  0.00     0.205 C 
ENDBRANCH   4  10
BRANCH   4  12
HETATM   12  N   UNK N   1      30.993  14.216   5.727  0.00  0.00    -0.317 N 
HETATM   13  C   UNK N   1      30.065  15.195   5.579  0.00  0.00     0.239 C 
HETATM   14  O   UNK N   1      28.878  14.906   5.627  0.00  0.00    -0.272 OA
HETATM   15  H   UNK N   1      30.680  13.309   5.954  0.00  0.00     0.166 HD
BRANCH  13  16
HETATM   16  C   UNK N   1      30.481  16.638   5.434  0.00  0.00     0.208 C 
BRANCH  16  17
HETATM   17  C   UNK N   1      29.459  17.488   6.124  0.00  0.00    -0.035 A 
HETATM   18  C   UNK N   1      29.439  17.618   7.519  0.00  0.00     0.011 A 
HETATM   19  C   UNK N   1      28.578  18.535   8.126  0.00  0.00     0.037 A 
HETATM   20  C   UNK N   1      27.756  19.348   7.338  0.00  0.00     0.065 A 
HETATM   21  C   UNK N   1      27.777  19.227   5.948  0.00  0.00     0.037 A 
HETATM   22  C   UNK N   1      28.627  18.300   5.343  0.00  0.00     0.011 A 
BRANCH  20  23
HETATM   23  O   UNK N   1      26.952  20.253   7.918  0.00  0.00    -0.361 OA
HETATM   24  H   UNK N   1      26.462  20.851   7.388  0.00  0.00     0.217 HD
ENDBRANCH  20  23
ENDBRANCH  16  17
BRANCH  16  25
HETATM   25  C   UNK N   1      30.805  17.088   4.030  0.00  0.00     0.157 C 
HETATM   26  O   UNK N   1      31.753  17.828   3.813  0.00  0.00    -0.649 OA
BRANCH  25  27
HETATM   27  O   UNK N   1      30.024  16.694   3.006  0.00  0.00    -0.775 OA
HETATM   28  H   UNK N   1      29.168  16.313   2.965  0.00  0.00     0.167 HD
ENDBRANCH  25  27
ENDBRANCH  16  25
ENDBRANCH  13  16
ENDBRANCH   4  12
BRANCH   7  29
HETATM   29  C   UNK N   1      34.584  12.555   9.025  0.00  0.00     0.194 C 
HETATM   30  O   UNK N   1      33.858  11.711   9.522  0.00  0.00    -0.645 OA
BRANCH  29  31
HETATM   31  O   UNK N   1      35.895  12.276   8.879  0.00  0.00    -0.772 OA
HETATM   32  H   UNK N   1      36.568  12.907   9.042  0.00  0.00     0.167 HD
ENDBRANCH  29  31
ENDBRANCH   7  29
BRANCH   8  33
HETATM   33  C   UNK N   1      34.104  14.851  10.882  0.00  0.00     0.121 C 
BRANCH  33  34
HETATM   34  S   UNK N   1      35.409  16.030  11.327  0.00  0.00    -0.087 SA
BRANCH  34  35
HETATM   35  C   UNK N   1      36.574  14.678  11.311  0.00  0.00     0.175 A 
HETATM   36  N   UNK N   1      36.772  13.795  12.299  0.00  0.00    -0.262 N 
HETATM   37  N   UNK N   1      37.747  12.999  11.908  0.00  0.00    -0.223 N 
HETATM   38  C   UNK N   1      36.087  13.706  13.577  0.00  0.00     0.181 C 
HETATM   39  N   UNK N   1      38.147  13.380  10.701  0.00  0.00    -0.005 NA
ATOM     40  HN  UNK N   1      38.131  12.221  12.443  1.00  0.00     0.206 HD
HETATM   41  N   UNK N   1      37.432  14.427  10.307  0.00  0.00    -0.261 N 
ATOM     42  HN  UNK N   1      37.515  14.934   9.426  1.00  0.00     0.186 HD
ENDBRANCH  34  35
ENDBRANCH  33  34
ENDBRANCH   8  33
TORSDOF 12
ENDMDL
MODEL 9
REMARK VINA RESULT:      -6.7      4.080      9.386
REMARK  12 active torsions:
REMARK  status: ('A' for Active; 'I' for Inactive)
REMARK    1  A    between atoms: S_1  and  C_26 
REMARK    2  A    between atoms: S_1  and  C_34 
REMARK    3  A    between atoms: O_3  and  C_19 
REMARK    4  A    between atoms: O_5  and  C_27 
REMARK    5  A    between atoms: O_8  and  C_31 
REMARK    6  A    between atoms: O_10  and  C_37 
REMARK    7  A    between atoms: C_19  and  N_12 
REMARK       I    between atoms: N_12  and  C_25 
REMARK    8  A    between atoms: C_22  and  C_27 
REMARK    9  A    between atoms: C_23  and  C_26 
REMARK   10  A    between atoms: C_25  and  C_29 
REMARK   11  A    between atoms: C_29  and  C_30 
REMARK   12  A    between atoms: C_29  and  C_31 
ROOT
HETATM    1  O   UNK N   1      30.861  14.645   5.586  0.00  0.00    -0.356 OA
HETATM    2  O   UNK N   1      31.667  17.240   8.685  0.00  0.00    -0.267 OA
HETATM    3  N   UNK N   1      30.867  16.681   6.637  0.00  0.00    -0.274 N 
HETATM    4  C   UNK N   1      32.745  15.823   6.954  0.00  0.00     0.265 A 
HETATM    5  C   UNK N   1      31.614  15.822   5.783  0.00  0.00     0.297 A 
HETATM    6  C   UNK N   1      31.772  16.773   7.561  0.00  0.00     0.287 A 
HETATM    7  C   UNK N   1      29.461  16.841   6.603  0.00  0.00     0.119 C 
HETATM    8  C   UNK N   1      28.823  16.021   5.730  0.00  0.00    -0.013 C 
HETATM    9  C   UNK N   1      29.670  15.043   4.907  0.00  0.00     0.208 C 
ENDROOT
BRANCH   4  10
HETATM   10  O   UNK N   1      33.981  16.414   6.629  0.00  0.00    -0.354 OA
HETATM   11  C   UNK N   1      34.440  15.797   5.456  0.00  0.00     0.205 C 
ENDBRANCH   4  10
BRANCH   4  12
HETATM   12  N   UNK N   1      32.800  14.613   7.755  0.00  0.00    -0.317 N 
HETATM   13  C   UNK N   1      33.733  14.387   8.715  0.00  0.00     0.239 C 
HETATM   14  O   UNK N   1      33.644  13.386   9.410  0.00  0.00    -0.272 OA
HETATM   15  H   UNK N   1      32.123  13.917   7.592  0.00  0.00     0.166 HD
BRANCH  13  16
HETATM   16  C   UNK N   1      34.913  15.312   8.878  0.00  0.00     0.208 C 
BRANCH  16  17
HETATM   17  C   UNK N   1      36.163  14.491   8.792  0.00  0.00    -0.035 A 
HETATM   18  C   UNK N   1      36.552  13.877   7.594  0.00  0.00     0.011 A 
HETATM   19  C   UNK N   1      37.796  13.249   7.499  0.00  0.00     0.037 A 
HETATM   20  C   UNK N   1      38.669  13.260   8.592  0.00  0.00     0.065 A 
HETATM   21  C   UNK N   1      38.288  13.876   9.786  0.00  0.00     0.037 A 
HETATM   22  C   UNK N   1      37.039  14.491   9.884  0.00  0.00     0.011 A 
BRANCH  20  23
HETATM   23  O   UNK N   1      39.878  12.685   8.493  0.00  0.00    -0.361 OA
HETATM   24  H   UNK N   1      40.402  12.826   7.729  0.00  0.00     0.217 HD
ENDBRANCH  20  23
ENDBRANCH  16  17
BRANCH  16  25
HETATM   25  C   UNK N   1      34.865  16.230  10.076  0.00  0.00     0.157 C 
HETATM   26  O   UNK N   1      35.366  17.344  10.031  0.00  0.00    -0.649 OA
BRANCH  25  27
HETATM   27  O   UNK N   1      34.289  15.808  11.218  0.00  0.00    -0.775 OA
HETATM   28  H   UNK N   1      33.533  15.282  11.395  0.00  0.00     0.167 HD
ENDBRANCH  25  27
ENDBRANCH  16  25
ENDBRANCH  13  16
ENDBRANCH   4  12
BRANCH   7  29
HETATM   29  C   UNK N   1      28.756  17.793   7.516  0.00  0.00     0.194 C 
HETATM   30  O   UNK N   1      28.464  17.451   8.650  0.00  0.00    -0.645 OA
BRANCH  29  31
HETATM   31  O   UNK N   1      28.434  19.038   7.112  0.00  0.00    -0.772 OA
HETATM   32  H   UNK N   1      28.851  19.805   7.453  0.00  0.00     0.167 HD
ENDBRANCH  29  31
ENDBRANCH   7  29
BRANCH   8  33
HETATM   33  C   UNK N   1      27.340  16.031   5.555  0.00  0.00     0.121 C 
BRANCH  33  34
HETATM   34  S   UNK N   1      26.860  16.353   3.836  0.00  0.00    -0.087 SA
BRANCH  34  35
HETATM   35  C   UNK N   1      26.971  18.100   4.180  0.00  0.00     0.175 A 
HETATM   36  N   UNK N   1      25.967  18.891   4.583  0.00  0.00    -0.262 N 
HETATM   37  N   UNK N   1      26.457  20.112   4.671  0.00  0.00    -0.223 N 
HETATM   38  C   UNK N   1      24.588  18.525   4.859  0.00  0.00     0.181 C 
HETATM   39  N   UNK N   1      27.739  20.080   4.330  0.00  0.00    -0.005 NA
ATOM     40  HN  UNK N   1      25.937  20.943   4.954  1.00  0.00     0.206 HD
HETATM   41  N   UNK N   1      28.084  18.837   4.017  0.00  0.00    -0.261 N 
ATOM     42  HN  UNK N   1      29.002  18.509   3.717  1.00  0.00     0.186 HD
ENDBRANCH  34  35
ENDBRANCH  33  34
ENDBRANCH   8  33
TORSDOF 12
ENDMDL
