MODEL 1
REMARK VINA RESULT:      -8.5      0.000      0.000
REMARK  3 active torsions:
REMARK  status: ('A' for Active; 'I' for Inactive)
REMARK    1  A    between atoms: C_6  and  O_1 
REMARK    2  A    between atoms: O_2  and  C_21 
REMARK    3  A    between atoms: O_2  and  C_23 
ROOT
HETATM    1  C   UNK N   1      35.744  12.361  13.523  0.00  0.00     0.003 C 
HETATM    2  C   UNK N   1      35.584  13.364  14.666  0.00  0.00     0.002 C 
HETATM    3  C   UNK N   1      35.827  12.734  16.046  0.00  0.00    -0.001 C 
HETATM    4  C   UNK N   1      35.547  13.295  12.314  0.00  0.00     0.128 C 
HETATM    5  C   UNK N   1      34.787  11.615  16.203  0.00  0.00     0.023 C 
HETATM    6  C   UNK N   1      34.705  11.244  13.679  0.00  0.00     0.014 C 
HETATM    7  C   UNK N   1      36.468  14.522  14.246  0.00  0.00     0.010 C 
HETATM    8  C   UNK N   1      34.875  10.578  15.054  0.00  0.00     0.010 C 
HETATM    9  C   UNK N   1      36.303  14.569  12.719  0.00  0.00     0.052 C 
HETATM   10  C   UNK N   1      35.602  13.812  17.128  0.00  0.00     0.010 C 
HETATM   11  C   UNK N   1      37.157  11.741  13.525  0.00  0.00     0.020 C 
HETATM   12  C   UNK N   1      34.938  10.994  17.556  0.00  0.00    -0.047 A 
HETATM   13  C   UNK N   1      35.313  13.303  18.555  0.00  0.00     0.039 C 
HETATM   14  C   UNK N   1      35.109  11.818  18.687  0.00  0.00    -0.049 A 
HETATM   15  C   UNK N   1      36.067  12.793  11.032  0.00  0.00    -0.078 C 
HETATM   16  C   UNK N   1      34.873   9.607  17.714  0.00  0.00     0.011 A 
HETATM   17  C   UNK N   1      35.116  11.248  19.963  0.00  0.00     0.044 A 
HETATM   18  C   UNK N   1      34.888   9.051  18.982  0.00  0.00     0.037 A 
HETATM   19  C   UNK N   1      34.958   9.868  20.116  0.00  0.00     0.069 A 
HETATM   20  C   UNK N   1      36.471  12.355   9.984  0.00  0.00     0.015 C 
ENDROOT
BRANCH   4  21
HETATM   21  O   UNK N   1      34.188  13.602  12.162  0.00  0.00    -0.377 OA
HETATM   22  H   UNK N   1      33.227  13.539  12.038  0.00  0.00     0.211 HD
ENDBRANCH   4  21
BRANCH  19  23
HETATM   23  O   UNK N   1      34.805   9.354  21.360  0.00  0.00    -0.346 OA
BRANCH  23  24
HETATM   24  C   UNK N   1      33.615   9.348  22.093  0.00  0.00     0.129 C 
HETATM   25  C   UNK N   1      32.420  10.039  21.434  0.00  0.00     0.032 C 
HETATM   26  C   UNK N   1      31.614   8.938  20.762  0.00  0.00     0.002 C 
HETATM   27  C   UNK N   1      32.201   7.616  21.230  0.00  0.00     0.002 C 
HETATM   28  C   UNK N   1      33.144   7.943  22.369  0.00  0.00     0.032 C 
ENDBRANCH  23  24
ENDBRANCH  19  23
TORSDOF 3
ENDMDL
MODEL 2
REMARK VINA RESULT:      -7.7      1.394      2.174
REMARK  3 active torsions:
REMARK  status: ('A' for Active; 'I' for Inactive)
REMARK    1  A    between atoms: C_6  and  O_1 
REMARK    2  A    between atoms: O_2  and  C_21 
REMARK    3  A    between atoms: O_2  and  C_23 
ROOT
HETATM    1  C   UNK N   1      35.738  12.330  13.395  0.00  0.00     0.003 C 
HETATM    2  C   UNK N   1      35.590  13.300  14.568  0.00  0.00     0.002 C 
HETATM    3  C   UNK N   1      35.859  12.635  15.926  0.00  0.00    -0.001 C 
HETATM    4  C   UNK N   1      35.515  13.295  12.215  0.00  0.00     0.128 C 
HETATM    5  C   UNK N   1      34.830  11.504  16.069  0.00  0.00     0.023 C 
HETATM    6  C   UNK N   1      34.709  11.201  13.537  0.00  0.00     0.014 C 
HETATM    7  C   UNK N   1      36.459  14.475  14.165  0.00  0.00     0.010 C 
HETATM    8  C   UNK N   1      34.906  10.499  14.891  0.00  0.00     0.010 C 
HETATM    9  C   UNK N   1      36.269  14.562  12.642  0.00  0.00     0.052 C 
HETATM   10  C   UNK N   1      35.645  13.681  17.040  0.00  0.00     0.010 C 
HETATM   11  C   UNK N   1      37.155  11.720  13.357  0.00  0.00     0.020 C 
HETATM   12  C   UNK N   1      35.006  10.848  17.402  0.00  0.00    -0.047 A 
HETATM   13  C   UNK N   1      35.382  13.131  18.457  0.00  0.00     0.039 C 
HETATM   14  C   UNK N   1      35.190  11.642  18.552  0.00  0.00    -0.049 A 
HETATM   15  C   UNK N   1      36.018  12.831  10.912  0.00  0.00    -0.078 C 
HETATM   16  C   UNK N   1      34.954   9.457  17.523  0.00  0.00     0.011 A 
HETATM   17  C   UNK N   1      35.222  11.037  19.811  0.00  0.00     0.044 A 
HETATM   18  C   UNK N   1      34.993   8.866  18.775  0.00  0.00     0.037 A 
HETATM   19  C   UNK N   1      35.076   9.653  19.929  0.00  0.00     0.069 A 
HETATM   20  C   UNK N   1      36.408  12.424   9.846  0.00  0.00     0.015 C 
ENDROOT
BRANCH   4  21
HETATM   21  O   UNK N   1      34.151  13.596  12.094  0.00  0.00    -0.377 OA
HETATM   22  H   UNK N   1      33.187  13.601  12.198  0.00  0.00     0.211 HD
ENDBRANCH   4  21
BRANCH  19  23
HETATM   23  O   UNK N   1      34.947   9.104  21.161  0.00  0.00    -0.346 OA
BRANCH  23  24
HETATM   24  C   UNK N   1      35.970   8.481  21.882  0.00  0.00     0.129 C 
HETATM   25  C   UNK N   1      37.269   8.228  21.115  0.00  0.00     0.032 C 
HETATM   26  C   UNK N   1      38.195   9.386  21.460  0.00  0.00     0.002 C 
HETATM   27  C   UNK N   1      37.531  10.158  22.589  0.00  0.00     0.002 C 
HETATM   28  C   UNK N   1      36.381   9.301  23.078  0.00  0.00     0.032 C 
ENDBRANCH  23  24
ENDBRANCH  19  23
TORSDOF 3
ENDMDL
MODEL 3
REMARK VINA RESULT:      -7.5      4.367      7.740
REMARK  3 active torsions:
REMARK  status: ('A' for Active; 'I' for Inactive)
REMARK    1  A    between atoms: C_6  and  O_1 
REMARK    2  A    between atoms: O_2  and  C_21 
REMARK    3  A    between atoms: O_2  and  C_23 
ROOT
HETATM    1  C   UNK N   1      33.458  15.303   6.649  0.00  0.00     0.003 C 
HETATM    2  C   UNK N   1      33.771  16.280   7.783  0.00  0.00     0.002 C 
HETATM    3  C   UNK N   1      34.683  15.668   8.857  0.00  0.00    -0.001 C 
HETATM    4  C   UNK N   1      32.641  16.220   5.718  0.00  0.00     0.128 C 
HETATM    5  C   UNK N   1      33.932  14.455   9.426  0.00  0.00     0.023 C 
HETATM    6  C   UNK N   1      32.707  14.091   7.216  0.00  0.00     0.014 C 
HETATM    7  C   UNK N   1      34.257  17.519   7.056  0.00  0.00     0.010 C 
HETATM    8  C   UNK N   1      33.555  13.437   8.319  0.00  0.00     0.010 C 
HETATM    9  C   UNK N   1      33.392  17.558   5.786  0.00  0.00     0.052 C 
HETATM   10  C   UNK N   1      34.904  16.714   9.970  0.00  0.00     0.010 C 
HETATM   11  C   UNK N   1      34.751  14.819   5.961  0.00  0.00     0.020 C 
HETATM   12  C   UNK N   1      34.749  13.844  10.520  0.00  0.00    -0.047 A 
HETATM   13  C   UNK N   1      35.360  16.172  11.341  0.00  0.00     0.039 C 
HETATM   14  C   UNK N   1      35.363  14.674  11.480  0.00  0.00    -0.049 A 
HETATM   15  C   UNK N   1      32.538  15.776   4.319  0.00  0.00    -0.078 C 
HETATM   16  C   UNK N   1      34.879  12.456  10.621  0.00  0.00     0.011 A 
HETATM   17  C   UNK N   1      36.014  14.100  12.575  0.00  0.00     0.044 A 
HETATM   18  C   UNK N   1      35.532  11.897  11.707  0.00  0.00     0.037 A 
HETATM   19  C   UNK N   1      36.059  12.711  12.716  0.00  0.00     0.069 A 
HETATM   20  C   UNK N   1      32.438  15.384   3.183  0.00  0.00     0.015 C 
ENDROOT
BRANCH   4  21
HETATM   21  O   UNK N   1      31.349  16.398   6.233  0.00  0.00    -0.377 OA
HETATM   22  H   UNK N   1      30.413  16.280   6.459  0.00  0.00     0.211 HD
ENDBRANCH   4  21
BRANCH  19  23
HETATM   23  O   UNK N   1      36.549  12.178  13.861  0.00  0.00    -0.346 OA
BRANCH  23  24
HETATM   24  C   UNK N   1      35.833  12.014  15.050  0.00  0.00     0.129 C 
HETATM   25  C   UNK N   1      34.312  12.130  14.936  0.00  0.00     0.032 C 
HETATM   26  C   UNK N   1      33.788  10.705  14.822  0.00  0.00     0.002 C 
HETATM   27  C   UNK N   1      34.961   9.782  15.110  0.00  0.00     0.002 C 
HETATM   28  C   UNK N   1      36.072  10.655  15.656  0.00  0.00     0.032 C 
ENDBRANCH  23  24
ENDBRANCH  19  23
TORSDOF 3
ENDMDL
MODEL 4
REMARK VINA RESULT:      -7.5     22.683     26.075
REMARK  3 active torsions:
REMARK  status: ('A' for Active; 'I' for Inactive)
REMARK    1  A    between atoms: C_6  and  O_1 
REMARK    2  A    between atoms: O_2  and  C_21 
REMARK    3  A    between atoms: O_2  and  C_23 
ROOT
HETATM    1  C   UNK N   1      32.471  20.858  -5.141  0.00  0.00     0.003 C 
HETATM    2  C   UNK N   1      32.221  21.918  -4.067  0.00  0.00     0.002 C 
HETATM    3  C   UNK N   1      30.741  22.314  -3.959  0.00  0.00    -0.001 C 
HETATM    4  C   UNK N   1      33.977  20.611  -4.931  0.00  0.00     0.128 C 
HETATM    5  C   UNK N   1      30.340  22.878  -5.330  0.00  0.00     0.023 C 
HETATM    6  C   UNK N   1      32.072  21.421  -6.511  0.00  0.00     0.014 C 
HETATM    7  C   UNK N   1      32.895  21.340  -2.838  0.00  0.00     0.010 C 
HETATM    8  C   UNK N   1      30.600  21.861  -6.472  0.00  0.00     0.010 C 
HETATM    9  C   UNK N   1      34.133  20.628  -3.404  0.00  0.00     0.052 C 
HETATM   10  C   UNK N   1      30.601  23.412  -2.882  0.00  0.00     0.010 C 
HETATM   11  C   UNK N   1      31.652  19.582  -4.861  0.00  0.00     0.020 C 
HETATM   12  C   UNK N   1      28.916  23.334  -5.274  0.00  0.00    -0.047 A 
HETATM   13  C   UNK N   1      29.330  24.283  -2.952  0.00  0.00     0.039 C 
HETATM   14  C   UNK N   1      28.464  24.077  -4.165  0.00  0.00    -0.049 A 
HETATM   15  C   UNK N   1      34.494  19.343  -5.472  0.00  0.00    -0.078 C 
HETATM   16  C   UNK N   1      28.040  23.063  -6.329  0.00  0.00     0.011 A 
HETATM   17  C   UNK N   1      27.175  24.616  -4.172  0.00  0.00     0.044 A 
HETATM   18  C   UNK N   1      26.762  23.596  -6.324  0.00  0.00     0.037 A 
HETATM   19  C   UNK N   1      26.338  24.417  -5.273  0.00  0.00     0.069 A 
HETATM   20  C   UNK N   1      34.908  18.315  -5.946  0.00  0.00     0.015 C 
ENDROOT
BRANCH   4  21
HETATM   21  O   UNK N   1      34.717  21.670  -5.475  0.00  0.00    -0.377 OA
HETATM   22  H   UNK N   1      35.315  22.203  -6.024  0.00  0.00     0.211 HD
ENDBRANCH   4  21
BRANCH  19  23
HETATM   23  O   UNK N   1      25.157  25.079  -5.334  0.00  0.00    -0.346 OA
BRANCH  23  24
HETATM   24  C   UNK N   1      24.961  26.332  -5.920  0.00  0.00     0.129 C 
HETATM   25  C   UNK N   1      25.189  27.540  -5.008  0.00  0.00     0.032 C 
HETATM   26  C   UNK N   1      26.609  28.013  -5.282  0.00  0.00     0.002 C 
HETATM   27  C   UNK N   1      27.101  27.244  -6.498  0.00  0.00     0.002 C 
HETATM   28  C   UNK N   1      25.891  26.548  -7.086  0.00  0.00     0.032 C 
ENDBRANCH  23  24
ENDBRANCH  19  23
TORSDOF 3
ENDMDL
MODEL 5
REMARK VINA RESULT:      -7.4     23.177     26.303
REMARK  3 active torsions:
REMARK  status: ('A' for Active; 'I' for Inactive)
REMARK    1  A    between atoms: C_6  and  O_1 
REMARK    2  A    between atoms: O_2  and  C_21 
REMARK    3  A    between atoms: O_2  and  C_23 
ROOT
HETATM    1  C   UNK N   1      32.987  21.723  -4.686  0.00  0.00     0.003 C 
HETATM    2  C   UNK N   1      31.983  21.108  -5.662  0.00  0.00     0.002 C 
HETATM    3  C   UNK N   1      30.799  22.040  -5.959  0.00  0.00    -0.001 C 
HETATM    4  C   UNK N   1      34.066  20.623  -4.679  0.00  0.00     0.128 C 
HETATM    5  C   UNK N   1      30.103  22.303  -4.615  0.00  0.00     0.023 C 
HETATM    6  C   UNK N   1      32.293  21.984  -3.343  0.00  0.00     0.014 C 
HETATM    7  C   UNK N   1      32.849  20.664  -6.825  0.00  0.00     0.010 C 
HETATM    8  C   UNK N   1      31.077  22.898  -3.566  0.00  0.00     0.010 C 
HETATM    9  C   UNK N   1      34.148  20.194  -6.151  0.00  0.00     0.052 C 
HETATM   10  C   UNK N   1      29.828  21.316  -6.917  0.00  0.00     0.010 C 
HETATM   11  C   UNK N   1      33.548  23.052  -5.232  0.00  0.00     0.020 C 
HETATM   12  C   UNK N   1      28.903  23.166  -4.846  0.00  0.00    -0.047 A 
HETATM   13  C   UNK N   1      28.379  21.845  -6.954  0.00  0.00     0.039 C 
HETATM   14  C   UNK N   1      28.039  22.887  -5.924  0.00  0.00    -0.049 A 
HETATM   15  C   UNK N   1      35.396  21.041  -4.207  0.00  0.00    -0.078 C 
HETATM   16  C   UNK N   1      28.610  24.224  -3.981  0.00  0.00     0.011 A 
HETATM   17  C   UNK N   1      26.851  23.608  -6.062  0.00  0.00     0.044 A 
HETATM   18  C   UNK N   1      27.432  24.937  -4.130  0.00  0.00     0.037 A 
HETATM   19  C   UNK N   1      26.521  24.602  -5.138  0.00  0.00     0.069 A 
HETATM   20  C   UNK N   1      36.471  21.391  -3.789  0.00  0.00     0.015 C 
ENDROOT
BRANCH   4  21
HETATM   21  O   UNK N   1      33.634  19.533  -3.911  0.00  0.00    -0.377 OA
HETATM   22  H   UNK N   1      33.589  18.805  -3.270  0.00  0.00     0.211 HD
ENDBRANCH   4  21
BRANCH  19  23
HETATM   23  O   UNK N   1      25.295  25.176  -5.193  0.00  0.00    -0.346 OA
BRANCH  23  24
HETATM   24  C   UNK N   1      24.991  26.375  -5.843  0.00  0.00     0.129 C 
HETATM   25  C   UNK N   1      25.196  27.651  -5.023  0.00  0.00     0.032 C 
HETATM   26  C   UNK N   1      26.568  28.185  -5.411  0.00  0.00     0.002 C 
HETATM   27  C   UNK N   1      27.036  27.367  -6.604  0.00  0.00     0.002 C 
HETATM   28  C   UNK N   1      25.839  26.567  -7.074  0.00  0.00     0.032 C 
ENDBRANCH  23  24
ENDBRANCH  19  23
TORSDOF 3
ENDMDL
MODEL 6
REMARK VINA RESULT:      -7.4     11.113     15.188
REMARK  3 active torsions:
REMARK  status: ('A' for Active; 'I' for Inactive)
REMARK    1  A    between atoms: C_6  and  O_1 
REMARK    2  A    between atoms: O_2  and  C_21 
REMARK    3  A    between atoms: O_2  and  C_23 
ROOT
HETATM    1  C   UNK N   1      32.309  16.538   6.138  0.00  0.00     0.003 C 
HETATM    2  C   UNK N   1      31.506  17.398   7.115  0.00  0.00     0.002 C 
HETATM    3  C   UNK N   1      29.999  17.381   6.820  0.00  0.00    -0.001 C 
HETATM    4  C   UNK N   1      33.717  16.678   6.747  0.00  0.00     0.128 C 
HETATM    5  C   UNK N   1      29.828  17.936   5.398  0.00  0.00     0.023 C 
HETATM    6  C   UNK N   1      32.139  17.093   4.718  0.00  0.00     0.014 C 
HETATM    7  C   UNK N   1      31.971  16.913   8.475  0.00  0.00     0.010 C 
HETATM    8  C   UNK N   1      30.644  17.126   4.358  0.00  0.00     0.010 C 
HETATM    9  C   UNK N   1      33.461  16.603   8.259  0.00  0.00     0.052 C 
HETATM   10  C   UNK N   1      29.287  18.305   7.831  0.00  0.00     0.010 C 
HETATM   11  C   UNK N   1      31.831  15.072   6.168  0.00  0.00     0.020 C 
HETATM   12  C   UNK N   1      28.369  17.995   5.069  0.00  0.00    -0.047 A 
HETATM   13  C   UNK N   1      27.888  18.815   7.427  0.00  0.00     0.039 C 
HETATM   14  C   UNK N   1      27.458  18.494   6.022  0.00  0.00    -0.049 A 
HETATM   15  C   UNK N   1      34.685  15.642   6.353  0.00  0.00    -0.078 C 
HETATM   16  C   UNK N   1      27.906  17.596   3.813  0.00  0.00     0.011 A 
HETATM   17  C   UNK N   1      26.118  18.674   5.669  0.00  0.00     0.044 A 
HETATM   18  C   UNK N   1      26.575  17.772   3.475  0.00  0.00     0.037 A 
HETATM   19  C   UNK N   1      25.683  18.358   4.380  0.00  0.00     0.069 A 
HETATM   20  C   UNK N   1      35.475  14.804   5.997  0.00  0.00     0.015 C 
ENDROOT
BRANCH   4  21
HETATM   21  O   UNK N   1      34.250  17.937   6.438  0.00  0.00    -0.377 OA
HETATM   22  H   UNK N   1      34.602  18.840   6.500  0.00  0.00     0.211 HD
ENDBRANCH   4  21
BRANCH  19  23
HETATM   23  O   UNK N   1      24.423  18.690   4.007  0.00  0.00    -0.346 OA
BRANCH  23  24
HETATM   24  C   UNK N   1      23.362  17.794   3.857  0.00  0.00     0.129 C 
HETATM   25  C   UNK N   1      23.423  16.533   4.721  0.00  0.00     0.032 C 
HETATM   26  C   UNK N   1      22.562  16.817   5.944  0.00  0.00     0.002 C 
HETATM   27  C   UNK N   1      21.828  18.120   5.671  0.00  0.00     0.002 C 
HETATM   28  C   UNK N   1      22.043  18.436   4.205  0.00  0.00     0.032 C 
ENDBRANCH  23  24
ENDBRANCH  19  23
TORSDOF 3
ENDMDL
MODEL 7
REMARK VINA RESULT:      -7.4     22.255     25.810
REMARK  3 active torsions:
REMARK  status: ('A' for Active; 'I' for Inactive)
REMARK    1  A    between atoms: C_6  and  O_1 
REMARK    2  A    between atoms: O_2  and  C_21 
REMARK    3  A    between atoms: O_2  and  C_23 
ROOT
HETATM    1  C   UNK N   1      33.064  20.588  -4.543  0.00  0.00     0.003 C 
HETATM    2  C   UNK N   1      33.459  21.962  -5.088  0.00  0.00     0.002 C 
HETATM    3  C   UNK N   1      32.556  23.088  -4.565  0.00  0.00    -0.001 C 
HETATM    4  C   UNK N   1      34.186  19.724  -5.151  0.00  0.00     0.128 C 
HETATM    5  C   UNK N   1      31.129  22.751  -5.023  0.00  0.00     0.023 C 
HETATM    6  C   UNK N   1      31.640  20.250  -5.001  0.00  0.00     0.014 C 
HETATM    7  C   UNK N   1      34.944  22.044  -4.795  0.00  0.00     0.010 C 
HETATM    8  C   UNK N   1      30.678  21.353  -4.529  0.00  0.00     0.010 C 
HETATM    9  C   UNK N   1      35.435  20.603  -5.002  0.00  0.00     0.052 C 
HETATM   10  C   UNK N   1      33.008  24.420  -5.202  0.00  0.00     0.010 C 
HETATM   11  C   UNK N   1      33.118  20.568  -3.002  0.00  0.00     0.020 C 
HETATM   12  C   UNK N   1      30.205  23.845  -4.587  0.00  0.00    -0.047 A 
HETATM   13  C   UNK N   1      31.972  25.563  -5.210  0.00  0.00     0.039 C 
HETATM   14  C   UNK N   1      30.587  25.191  -4.756  0.00  0.00    -0.049 A 
HETATM   15  C   UNK N   1      34.409  18.424  -4.498  0.00  0.00    -0.078 C 
HETATM   16  C   UNK N   1      28.951  23.544  -4.049  0.00  0.00     0.011 A 
HETATM   17  C   UNK N   1      29.674  26.210  -4.474  0.00  0.00     0.044 A 
HETATM   18  C   UNK N   1      28.055  24.562  -3.766  0.00  0.00     0.037 A 
HETATM   19  C   UNK N   1      28.389  25.896  -4.024  0.00  0.00     0.069 A 
HETATM   20  C   UNK N   1      34.561  17.349  -3.972  0.00  0.00     0.015 C 
ENDROOT
BRANCH   4  21
HETATM   21  O   UNK N   1      33.940  19.510  -6.515  0.00  0.00    -0.377 OA
HETATM   22  H   UNK N   1      33.508  19.402  -7.377  0.00  0.00     0.211 HD
ENDBRANCH   4  21
BRANCH  19  23
HETATM   23  O   UNK N   1      27.468  26.883  -3.911  0.00  0.00    -0.346 OA
BRANCH  23  24
HETATM   24  C   UNK N   1      27.017  27.693  -4.957  0.00  0.00     0.129 C 
HETATM   25  C   UNK N   1      27.113  27.089  -6.360  0.00  0.00     0.032 C 
HETATM   26  C   UNK N   1      25.738  26.513  -6.665  0.00  0.00     0.002 C 
HETATM   27  C   UNK N   1      24.806  26.990  -5.563  0.00  0.00     0.002 C 
HETATM   28  C   UNK N   1      25.563  28.051  -4.790  0.00  0.00     0.032 C 
ENDBRANCH  23  24
ENDBRANCH  19  23
TORSDOF 3
ENDMDL
MODEL 8
REMARK VINA RESULT:      -7.3     22.964     26.086
REMARK  3 active torsions:
REMARK  status: ('A' for Active; 'I' for Inactive)
REMARK    1  A    between atoms: C_6  and  O_1 
REMARK    2  A    between atoms: O_2  and  C_21 
REMARK    3  A    between atoms: O_2  and  C_23 
ROOT
HETATM    1  C   UNK N   1      27.510  25.568  -4.931  0.00  0.00     0.003 C 
HETATM    2  C   UNK N   1      27.533  24.526  -6.051  0.00  0.00     0.002 C 
HETATM    3  C   UNK N   1      28.255  23.234  -5.643  0.00  0.00    -0.001 C 
HETATM    4  C   UNK N   1      26.655  26.663  -5.597  0.00  0.00     0.128 C 
HETATM    5  C   UNK N   1      29.696  23.632  -5.290  0.00  0.00     0.023 C 
HETATM    6  C   UNK N   1      28.948  25.967  -4.580  0.00  0.00     0.014 C 
HETATM    7  C   UNK N   1      26.079  24.429  -6.471  0.00  0.00     0.010 C 
HETATM    8  C   UNK N   1      29.743  24.713  -4.180  0.00  0.00     0.010 C 
HETATM    9  C   UNK N   1      25.562  25.869  -6.328  0.00  0.00     0.052 C 
HETATM   10  C   UNK N   1      28.259  22.269  -6.848  0.00  0.00     0.010 C 
HETATM   11  C   UNK N   1      26.818  25.010  -3.670  0.00  0.00     0.020 C 
HETATM   12  C   UNK N   1      30.470  22.402  -4.934  0.00  0.00    -0.047 A 
HETATM   13  C   UNK N   1      29.324  21.153  -6.829  0.00  0.00     0.039 C 
HETATM   14  C   UNK N   1      30.344  21.244  -5.727  0.00  0.00    -0.049 A 
HETATM   15  C   UNK N   1      26.037  27.633  -4.679  0.00  0.00    -0.078 C 
HETATM   16  C   UNK N   1      31.345  22.403  -3.844  0.00  0.00     0.011 A 
HETATM   17  C   UNK N   1      31.164  20.141  -5.475  0.00  0.00     0.044 A 
HETATM   18  C   UNK N   1      32.148  21.302  -3.598  0.00  0.00     0.037 A 
HETATM   19  C   UNK N   1      32.102  20.185  -4.440  0.00  0.00     0.069 A 
HETATM   20  C   UNK N   1      25.563  28.438  -3.917  0.00  0.00     0.015 C 
ENDROOT
BRANCH   4  21
HETATM   21  O   UNK N   1      27.420  27.359  -6.544  0.00  0.00    -0.377 OA
HETATM   22  H   UNK N   1      27.717  27.812  -7.349  0.00  0.00     0.211 HD
ENDBRANCH   4  21
BRANCH  19  23
HETATM   23  O   UNK N   1      32.995  19.175  -4.313  0.00  0.00    -0.346 OA
BRANCH  23  24
HETATM   24  C   UNK N   1      34.365  19.268  -4.574  0.00  0.00     0.129 C 
HETATM   25  C   UNK N   1      35.092  17.943  -4.813  0.00  0.00     0.032 C 
HETATM   26  C   UNK N   1      35.163  17.767  -6.323  0.00  0.00     0.002 C 
HETATM   27  C   UNK N   1      34.703  19.078  -6.940  0.00  0.00     0.002 C 
HETATM   28  C   UNK N   1      34.638  20.086  -5.810  0.00  0.00     0.032 C 
ENDBRANCH  23  24
ENDBRANCH  19  23
TORSDOF 3
ENDMDL
MODEL 9
REMARK VINA RESULT:      -7.2      4.349     10.829
REMARK  3 active torsions:
REMARK  status: ('A' for Active; 'I' for Inactive)
REMARK    1  A    between atoms: C_6  and  O_1 
REMARK    2  A    between atoms: O_2  and  C_21 
REMARK    3  A    between atoms: O_2  and  C_23 
ROOT
HETATM    1  C   UNK N   1      36.400  11.971  13.142  0.00  0.00     0.003 C 
HETATM    2  C   UNK N   1      36.406  13.500  13.128  0.00  0.00     0.002 C 
HETATM    3  C   UNK N   1      35.633  14.085  11.936  0.00  0.00    -0.001 C 
HETATM    4  C   UNK N   1      37.139  11.709  14.468  0.00  0.00     0.128 C 
HETATM    5  C   UNK N   1      36.328  13.564  10.669  0.00  0.00     0.023 C 
HETATM    6  C   UNK N   1      37.096  11.450  11.878  0.00  0.00     0.014 C 
HETATM    7  C   UNK N   1      35.944  13.866  14.525  0.00  0.00     0.010 C 
HETATM    8  C   UNK N   1      36.386  12.015  10.636  0.00  0.00     0.010 C 
HETATM    9  C   UNK N   1      36.570  12.778  15.411  0.00  0.00     0.052 C 
HETATM   10  C   UNK N   1      35.732  15.624  11.991  0.00  0.00     0.010 C 
HETATM   11  C   UNK N   1      34.960  11.422  13.189  0.00  0.00     0.020 C 
HETATM   12  C   UNK N   1      35.652  14.144   9.467  0.00  0.00    -0.047 A 
HETATM   13  C   UNK N   1      35.466  16.376  10.670  0.00  0.00     0.039 C 
HETATM   14  C   UNK N   1      35.316  15.513   9.448  0.00  0.00    -0.049 A 
HETATM   15  C   UNK N   1      36.943  10.373  15.052  0.00  0.00    -0.078 C 
HETATM   16  C   UNK N   1      35.384  13.350   8.349  0.00  0.00     0.011 A 
HETATM   17  C   UNK N   1      34.807  16.083   8.278  0.00  0.00     0.044 A 
HETATM   18  C   UNK N   1      34.873  13.923   7.196  0.00  0.00     0.037 A 
HETATM   19  C   UNK N   1      34.629  15.299   7.135  0.00  0.00     0.069 A 
HETATM   20  C   UNK N   1      36.796   9.264  15.502  0.00  0.00     0.015 C 
ENDROOT
BRANCH   4  21
HETATM   21  O   UNK N   1      38.514  11.934  14.303  0.00  0.00    -0.377 OA
HETATM   22  H   UNK N   1      39.373  12.336  14.100  0.00  0.00     0.211 HD
ENDBRANCH   4  21
BRANCH  19  23
HETATM   23  O   UNK N   1      34.290  15.899   5.968  0.00  0.00    -0.346 OA
BRANCH  23  24
HETATM   24  C   UNK N   1      32.985  16.151   5.537  0.00  0.00     0.129 C 
HETATM   25  C   UNK N   1      32.781  17.441   4.739  0.00  0.00     0.032 C 
HETATM   26  C   UNK N   1      32.826  17.040   3.271  0.00  0.00     0.002 C 
HETATM   27  C   UNK N   1      32.812  15.521   3.230  0.00  0.00     0.002 C 
HETATM   28  C   UNK N   1      32.481  15.055   4.633  0.00  0.00     0.032 C 
ENDBRANCH  23  24
ENDBRANCH  19  23
TORSDOF 3
ENDMDL
