REMARK  5 active torsions:
REMARK  status: ('A' for Active; 'I' for Inactive)
REMARK    1  A    between atoms: N_3  and  C_6 
REMARK    2  A    between atoms: C_4  and  C_5 
REMARK    3  A    between atoms: C_4  and  C_7 
REMARK    4  A    between atoms: C_4  and  C_8 
REMARK    5  A    between atoms: C_5  and  C_6 
ROOT
HETATM    1  O   UNK N   1       3.771   0.045  -2.018  0.00  0.00    -0.380 OA
HETATM    2  C   UNK N   1       3.681  -0.008  -0.620  0.00  0.00     0.115 C 
HETATM    3  H   UNK N   1       3.834   0.010  -2.985  0.00  0.00     0.211 HD
ENDROOT
BRANCH   2   4
HETATM    4  C   UNK N   1       5.098  -0.212  -0.050  0.00  0.00     0.078 C 
BRANCH   4   5
HETATM    5  C   UNK N   1       6.147   0.729  -0.636  0.00  0.00     0.275 C 
BRANCH   5   6
HETATM    6  N   UNK N   1       7.406   0.594   0.082  0.00  0.00     0.080 N 
HETATM    7  C   UNK N   1       8.290   1.632  -0.414  0.00  0.00     0.309 C 
HETATM    8  C   UNK N   1       8.014  -0.679  -0.275  0.00  0.00     0.309 C 
ENDBRANCH   5   6
ENDBRANCH   4   5
ENDBRANCH   2   4
BRANCH   2   9
HETATM    9  C   UNK N   1       2.917  -1.290  -0.252  0.00  0.00     0.002 A 
HETATM   10  C   UNK N   1       1.861  -1.410   0.707  0.00  0.00     0.043 A 
HETATM   11 Cl   UNK N   1       1.252  -0.097   1.702  0.00  0.00    -0.084 Cl
HETATM   12  C   UNK N   1       1.283  -2.665   0.944  0.00  0.00     0.024 A 
HETATM   13  C   UNK N   1       1.717  -3.800   0.263  0.00  0.00     0.002 A 
HETATM   14  C   UNK N   1       2.751  -3.701  -0.660  0.00  0.00     0.001 A 
HETATM   15  C   UNK N   1       3.343  -2.464  -0.908  0.00  0.00     0.012 A 
ENDBRANCH   2   9
BRANCH   2  16
HETATM   16  C   UNK N   1       3.067   1.315  -0.177  0.00  0.00    -0.019 A 
HETATM   17  C   UNK N   1       1.832   1.722  -0.718  0.00  0.00     0.010 A 
HETATM   18  C   UNK N   1       1.269   2.950  -0.357  0.00  0.00     0.001 A 
HETATM   19  C   UNK N   1       1.936   3.791   0.536  0.00  0.00     0.000 A 
HETATM   20  C   UNK N   1       3.167   3.406   1.071  0.00  0.00     0.001 A 
HETATM   21  C   UNK N   1       3.731   2.178   0.716  0.00  0.00     0.010 A 
ENDBRANCH   2  16
TORSDOF 5
