MODEL 1
REMARK VINA RESULT:      -5.9      0.000      0.000
REMARK  5 active torsions:
REMARK  status: ('A' for Active; 'I' for Inactive)
REMARK    1  A    between atoms: N_3  and  C_6 
REMARK    2  A    between atoms: C_4  and  C_5 
REMARK    3  A    between atoms: C_4  and  C_7 
REMARK    4  A    between atoms: C_4  and  C_8 
REMARK    5  A    between atoms: C_5  and  C_6 
ROOT
HETATM    1  O   UNK N   1      37.654  12.268  14.423  0.00  0.00    -0.380 OA
HETATM    2  C   UNK N   1      36.263  12.340  14.584  0.00  0.00     0.115 C 
HETATM    3  H   UNK N   1      38.622  12.248  14.376  0.00  0.00     0.211 HD
ENDROOT
BRANCH   2   4
HETATM    4  C   UNK N   1      35.806  13.765  14.217  0.00  0.00     0.078 C 
BRANCH   4   5
HETATM    5  C   UNK N   1      36.284  14.240  12.847  0.00  0.00     0.275 C 
BRANCH   5   6
HETATM    6  N   UNK N   1      35.148  14.601  12.012  0.00  0.00     0.080 N 
HETATM    7  C   UNK N   1      35.086  13.629  10.937  0.00  0.00     0.309 C 
HETATM    8  C   UNK N   1      35.414  15.892  11.394  0.00  0.00     0.309 C 
ENDBRANCH   5   6
ENDBRANCH   4   5
ENDBRANCH   2   4
BRANCH   2   9
HETATM    9  C   UNK N   1      35.962  12.201  16.085  0.00  0.00     0.002 A 
HETATM   10  C   UNK N   1      36.137  11.029  16.887  0.00  0.00     0.043 A 
HETATM   11 Cl   UNK N   1      36.701   9.477  16.289  0.00  0.00    -0.084 Cl
HETATM   12  C   UNK N   1      35.788  11.062  18.244  0.00  0.00     0.024 A 
HETATM   13  C   UNK N   1      35.273  12.216  18.829  0.00  0.00     0.002 A 
HETATM   14  C   UNK N   1      35.083  13.357  18.059  0.00  0.00     0.001 A 
HETATM   15  C   UNK N   1      35.419  13.345  16.707  0.00  0.00     0.012 A 
ENDBRANCH   2   9
BRANCH   2  16
HETATM   16  C   UNK N   1      35.666  11.287  13.658  0.00  0.00    -0.019 A 
HETATM   17  C   UNK N   1      36.515  10.540  12.819  0.00  0.00     0.010 A 
HETATM   18  C   UNK N   1      35.987   9.597  11.932  0.00  0.00     0.001 A 
HETATM   19  C   UNK N   1      34.607   9.398  11.862  0.00  0.00     0.000 A 
HETATM   20  C   UNK N   1      33.751  10.140  12.679  0.00  0.00     0.001 A 
HETATM   21  C   UNK N   1      34.276  11.080  13.570  0.00  0.00     0.010 A 
ENDBRANCH   2  16
TORSDOF 5
ENDMDL
MODEL 2
REMARK VINA RESULT:      -5.8      9.931     12.880
REMARK  5 active torsions:
REMARK  status: ('A' for Active; 'I' for Inactive)
REMARK    1  A    between atoms: N_3  and  C_6 
REMARK    2  A    between atoms: C_4  and  C_5 
REMARK    3  A    between atoms: C_4  and  C_7 
REMARK    4  A    between atoms: C_4  and  C_8 
REMARK    5  A    between atoms: C_5  and  C_6 
ROOT
HETATM    1  O   UNK N   1      27.590  17.303   8.218  0.00  0.00    -0.380 OA
HETATM    2  C   UNK N   1      28.252  17.444   6.991  0.00  0.00     0.115 C 
HETATM    3  H   UNK N   1      27.184  17.162   9.088  0.00  0.00     0.211 HD
ENDROOT
BRANCH   2   4
HETATM    4  C   UNK N   1      27.903  16.230   6.109  0.00  0.00     0.078 C 
BRANCH   4   5
HETATM    5  C   UNK N   1      26.619  15.513   6.515  0.00  0.00     0.275 C 
BRANCH   5   6
HETATM    6  N   UNK N   1      25.482  16.062   5.791  0.00  0.00     0.080 N 
HETATM    7  C   UNK N   1      24.305  15.345   6.245  0.00  0.00     0.309 C 
HETATM    8  C   UNK N   1      25.637  15.758   4.377  0.00  0.00     0.309 C 
ENDBRANCH   5   6
ENDBRANCH   4   5
ENDBRANCH   2   4
BRANCH   2   9
HETATM    9  C   UNK N   1      29.761  17.318   7.261  0.00  0.00     0.002 A 
HETATM   10  C   UNK N   1      30.472  17.828   8.394  0.00  0.00     0.043 A 
HETATM   11 Cl   UNK N   1      29.751  18.754   9.700  0.00  0.00    -0.084 Cl
HETATM   12  C   UNK N   1      31.860  17.648   8.476  0.00  0.00     0.024 A 
HETATM   13  C   UNK N   1      32.562  16.982   7.474  0.00  0.00     0.002 A 
HETATM   14  C   UNK N   1      31.887  16.495   6.361  0.00  0.00     0.001 A 
HETATM   15  C   UNK N   1      30.508  16.666   6.257  0.00  0.00     0.012 A 
ENDBRANCH   2   9
BRANCH   2  16
HETATM   16  C   UNK N   1      27.765  18.755   6.386  0.00  0.00    -0.019 A 
HETATM   17  C   UNK N   1      27.706  18.893   4.985  0.00  0.00     0.010 A 
HETATM   18  C   UNK N   1      27.300  20.100   4.407  0.00  0.00     0.001 A 
HETATM   19  C   UNK N   1      26.961  21.185   5.217  0.00  0.00     0.000 A 
HETATM   20  C   UNK N   1      27.026  21.067   6.607  0.00  0.00     0.001 A 
HETATM   21  C   UNK N   1      27.427  19.862   7.188  0.00  0.00     0.010 A 
ENDBRANCH   2  16
TORSDOF 5
ENDMDL
MODEL 3
REMARK VINA RESULT:      -5.8      2.242      4.328
REMARK  5 active torsions:
REMARK  status: ('A' for Active; 'I' for Inactive)
REMARK    1  A    between atoms: N_3  and  C_6 
REMARK    2  A    between atoms: C_4  and  C_5 
REMARK    3  A    between atoms: C_4  and  C_7 
REMARK    4  A    between atoms: C_4  and  C_8 
REMARK    5  A    between atoms: C_5  and  C_6 
ROOT
HETATM    1  O   UNK N   1      34.617  12.415  14.591  0.00  0.00    -0.380 OA
HETATM    2  C   UNK N   1      35.991  12.654  14.732  0.00  0.00     0.115 C 
HETATM    3  H   UNK N   1      33.683  12.186  14.465  0.00  0.00     0.211 HD
ENDROOT
BRANCH   2   4
HETATM    4  C   UNK N   1      36.540  13.144  13.378  0.00  0.00     0.078 C 
BRANCH   4   5
HETATM    5  C   UNK N   1      35.468  13.644  12.415  0.00  0.00     0.275 C 
BRANCH   5   6
HETATM    6  N   UNK N   1      36.040  13.879  11.097  0.00  0.00     0.080 N 
HETATM    7  C   UNK N   1      37.356  13.268  11.092  0.00  0.00     0.309 C 
HETATM    8  C   UNK N   1      36.242  15.310  10.923  0.00  0.00     0.309 C 
ENDBRANCH   5   6
ENDBRANCH   4   5
ENDBRANCH   2   4
BRANCH   2   9
HETATM    9  C   UNK N   1      36.676  11.299  14.971  0.00  0.00     0.002 A 
HETATM   10  C   UNK N   1      36.156  10.200  15.727  0.00  0.00     0.043 A 
HETATM   11 Cl   UNK N   1      34.622  10.205  16.584  0.00  0.00    -0.084 Cl
HETATM   12  C   UNK N   1      36.923   9.035  15.870  0.00  0.00     0.024 A 
HETATM   13  C   UNK N   1      38.184   8.926  15.289  0.00  0.00     0.002 A 
HETATM   14  C   UNK N   1      38.708   9.990  14.565  0.00  0.00     0.001 A 
HETATM   15  C   UNK N   1      37.964  11.159  14.414  0.00  0.00     0.012 A 
ENDBRANCH   2   9
BRANCH   2  16
HETATM   16  C   UNK N   1      36.136  13.705  15.827  0.00  0.00    -0.019 A 
HETATM   17  C   UNK N   1      37.067  14.749  15.667  0.00  0.00     0.010 A 
HETATM   18  C   UNK N   1      37.245  15.702  16.675  0.00  0.00     0.001 A 
HETATM   19  C   UNK N   1      36.509  15.617  17.858  0.00  0.00     0.000 A 
HETATM   20  C   UNK N   1      35.591  14.579  18.035  0.00  0.00     0.001 A 
HETATM   21  C   UNK N   1      35.406  13.628  17.029  0.00  0.00     0.010 A 
ENDBRANCH   2  16
TORSDOF 5
ENDMDL
MODEL 4
REMARK VINA RESULT:      -5.7     21.568     24.655
REMARK  5 active torsions:
REMARK  status: ('A' for Active; 'I' for Inactive)
REMARK    1  A    between atoms: N_3  and  C_6 
REMARK    2  A    between atoms: C_4  and  C_5 
REMARK    3  A    between atoms: C_4  and  C_7 
REMARK    4  A    between atoms: C_4  and  C_8 
REMARK    5  A    between atoms: C_5  and  C_6 
ROOT
HETATM    1  O   UNK N   1      26.543  24.064  -3.168  0.00  0.00    -0.380 OA
HETATM    2  C   UNK N   1      27.357  24.547  -4.203  0.00  0.00     0.115 C 
HETATM    3  H   UNK N   1      25.983  23.796  -2.423  0.00  0.00     0.211 HD
ENDROOT
BRANCH   2   4
HETATM    4  C   UNK N   1      28.821  24.514  -3.724  0.00  0.00     0.078 C 
BRANCH   4   5
HETATM    5  C   UNK N   1      29.098  23.482  -2.633  0.00  0.00     0.275 C 
BRANCH   5   6
HETATM    6  N   UNK N   1      30.452  22.964  -2.757  0.00  0.00     0.080 N 
HETATM    7  C   UNK N   1      31.146  23.815  -3.706  0.00  0.00     0.309 C 
HETATM    8  C   UNK N   1      30.393  21.637  -3.352  0.00  0.00     0.309 C 
ENDBRANCH   5   6
ENDBRANCH   4   5
ENDBRANCH   2   4
BRANCH   2   9
HETATM    9  C   UNK N   1      27.035  26.038  -4.390  0.00  0.00     0.002 A 
HETATM   10  C   UNK N   1      27.497  26.885  -5.447  0.00  0.00     0.043 A 
HETATM   11 Cl   UNK N   1      28.581  26.386  -6.736  0.00  0.00    -0.084 Cl
HETATM   12  C   UNK N   1      27.129  28.238  -5.458  0.00  0.00     0.024 A 
HETATM   13  C   UNK N   1      26.320  28.775  -4.459  0.00  0.00     0.002 A 
HETATM   14  C   UNK N   1      25.876  27.967  -3.419  0.00  0.00     0.001 A 
HETATM   15  C   UNK N   1      26.234  26.620  -3.386  0.00  0.00     0.012 A 
ENDBRANCH   2   9
BRANCH   2  16
HETATM   16  C   UNK N   1      27.122  23.632  -5.399  0.00  0.00    -0.019 A 
HETATM   17  C   UNK N   1      28.222  23.026  -6.036  0.00  0.00     0.010 A 
HETATM   18  C   UNK N   1      28.034  22.215  -7.159  0.00  0.00     0.001 A 
HETATM   19  C   UNK N   1      26.749  22.009  -7.667  0.00  0.00     0.000 A 
HETATM   20  C   UNK N   1      25.650  22.613  -7.053  0.00  0.00     0.001 A 
HETATM   21  C   UNK N   1      25.834  23.421  -5.928  0.00  0.00     0.010 A 
ENDBRANCH   2  16
TORSDOF 5
ENDMDL
MODEL 5
REMARK VINA RESULT:      -5.7     10.617     13.463
REMARK  5 active torsions:
REMARK  status: ('A' for Active; 'I' for Inactive)
REMARK    1  A    between atoms: N_3  and  C_6 
REMARK    2  A    between atoms: C_4  and  C_5 
REMARK    3  A    between atoms: C_4  and  C_7 
REMARK    4  A    between atoms: C_4  and  C_8 
REMARK    5  A    between atoms: C_5  and  C_6 
ROOT
HETATM    1  O   UNK N   1      28.562  16.348   6.102  0.00  0.00    -0.380 OA
HETATM    2  C   UNK N   1      29.103  17.282   5.208  0.00  0.00     0.115 C 
HETATM    3  H   UNK N   1      28.249  15.665   6.715  0.00  0.00     0.211 HD
ENDROOT
BRANCH   2   4
HETATM    4  C   UNK N   1      28.899  16.756   3.774  0.00  0.00     0.078 C 
BRANCH   4   5
HETATM    5  C   UNK N   1      27.766  15.743   3.637  0.00  0.00     0.275 C 
BRANCH   5   6
HETATM    6  N   UNK N   1      26.655  16.323   2.898  0.00  0.00     0.080 N 
HETATM    7  C   UNK N   1      25.559  16.483   3.835  0.00  0.00     0.309 C 
HETATM    8  C   UNK N   1      26.211  15.368   1.894  0.00  0.00     0.309 C 
ENDBRANCH   5   6
ENDBRANCH   4   5
ENDBRANCH   2   4
BRANCH   2   9
HETATM    9  C   UNK N   1      30.626  17.294   5.413  0.00  0.00     0.002 A 
HETATM   10  C   UNK N   1      31.322  17.156   6.657  0.00  0.00     0.043 A 
HETATM   11 Cl   UNK N   1      30.552  16.989   8.226  0.00  0.00    -0.084 Cl
HETATM   12  C   UNK N   1      32.723  17.215   6.674  0.00  0.00     0.024 A 
HETATM   13  C   UNK N   1      33.452  17.404   5.503  0.00  0.00     0.002 A 
HETATM   14  C   UNK N   1      32.790  17.554   4.291  0.00  0.00     0.001 A 
HETATM   15  C   UNK N   1      31.398  17.504   4.251  0.00  0.00     0.012 A 
ENDBRANCH   2   9
BRANCH   2  16
HETATM   16  C   UNK N   1      28.362  18.592   5.451  0.00  0.00    -0.019 A 
HETATM   17  C   UNK N   1      28.057  18.981   6.770  0.00  0.00     0.010 A 
HETATM   18  C   UNK N   1      27.343  20.158   7.015  0.00  0.00     0.001 A 
HETATM   19  C   UNK N   1      26.913  20.952   5.950  0.00  0.00     0.000 A 
HETATM   20  C   UNK N   1      27.198  20.572   4.637  0.00  0.00     0.001 A 
HETATM   21  C   UNK N   1      27.915  19.399   4.387  0.00  0.00     0.010 A 
ENDBRANCH   2  16
TORSDOF 5
ENDMDL
MODEL 6
REMARK VINA RESULT:      -5.6     21.567     24.809
REMARK  5 active torsions:
REMARK  status: ('A' for Active; 'I' for Inactive)
REMARK    1  A    between atoms: N_3  and  C_6 
REMARK    2  A    between atoms: C_4  and  C_5 
REMARK    3  A    between atoms: C_4  and  C_7 
REMARK    4  A    between atoms: C_4  and  C_8 
REMARK    5  A    between atoms: C_5  and  C_6 
ROOT
HETATM    1  O   UNK N   1      26.041  24.353  -3.635  0.00  0.00    -0.380 OA
HETATM    2  C   UNK N   1      27.104  24.830  -4.414  0.00  0.00     0.115 C 
HETATM    3  H   UNK N   1      25.345  23.966  -3.082  0.00  0.00     0.211 HD
ENDROOT
BRANCH   2   4
HETATM    4  C   UNK N   1      27.022  24.168  -5.803  0.00  0.00     0.078 C 
BRANCH   4   5
HETATM    5  C   UNK N   1      25.802  23.272  -5.996  0.00  0.00     0.275 C 
BRANCH   5   6
HETATM    6  N   UNK N   1      25.967  22.438  -7.177  0.00  0.00     0.080 N 
HETATM    7  C   UNK N   1      27.394  22.276  -7.385  0.00  0.00     0.309 C 
HETATM    8  C   UNK N   1      25.455  23.158  -8.334  0.00  0.00     0.309 C 
ENDBRANCH   5   6
ENDBRANCH   4   5
ENDBRANCH   2   4
BRANCH   2   9
HETATM    9  C   UNK N   1      28.407  24.298  -3.797  0.00  0.00     0.002 A 
HETATM   10  C   UNK N   1      29.735  24.511  -4.289  0.00  0.00     0.043 A 
HETATM   11 Cl   UNK N   1      30.136  25.403  -5.748  0.00  0.00    -0.084 Cl
HETATM   12  C   UNK N   1      30.821  23.931  -3.619  0.00  0.00     0.024 A 
HETATM   13  C   UNK N   1      30.633  23.150  -2.481  0.00  0.00     0.002 A 
HETATM   14  C   UNK N   1      29.349  22.922  -2.001  0.00  0.00     0.001 A 
HETATM   15  C   UNK N   1      28.255  23.486  -2.654  0.00  0.00     0.012 A 
ENDBRANCH   2   9
BRANCH   2  16
HETATM   16  C   UNK N   1      26.940  26.344  -4.487  0.00  0.00    -0.019 A 
HETATM   17  C   UNK N   1      26.471  27.046  -3.360  0.00  0.00     0.010 A 
HETATM   18  C   UNK N   1      26.275  28.429  -3.416  0.00  0.00     0.001 A 
HETATM   19  C   UNK N   1      26.531  29.126  -4.599  0.00  0.00     0.000 A 
HETATM   20  C   UNK N   1      26.985  28.441  -5.728  0.00  0.00     0.001 A 
HETATM   21  C   UNK N   1      27.186  27.060  -5.675  0.00  0.00     0.010 A 
ENDBRANCH   2  16
TORSDOF 5
ENDMDL
MODEL 7
REMARK VINA RESULT:      -5.5      7.154     10.275
REMARK  5 active torsions:
REMARK  status: ('A' for Active; 'I' for Inactive)
REMARK    1  A    between atoms: N_3  and  C_6 
REMARK    2  A    between atoms: C_4  and  C_5 
REMARK    3  A    between atoms: C_4  and  C_7 
REMARK    4  A    between atoms: C_4  and  C_8 
REMARK    5  A    between atoms: C_5  and  C_6 
ROOT
HETATM    1  O   UNK N   1      31.662  14.800   7.498  0.00  0.00    -0.380 OA
HETATM    2  C   UNK N   1      31.901  16.151   7.210  0.00  0.00     0.115 C 
HETATM    3  H   UNK N   1      31.458  13.887   7.754  0.00  0.00     0.211 HD
ENDROOT
BRANCH   2   4
HETATM    4  C   UNK N   1      33.075  16.633   8.084  0.00  0.00     0.078 C 
BRANCH   4   5
HETATM    5  C   UNK N   1      34.280  15.696   8.081  0.00  0.00     0.275 C 
BRANCH   5   6
HETATM    6  N   UNK N   1      34.733  15.448   9.442  0.00  0.00     0.080 N 
HETATM    7  C   UNK N   1      35.048  16.739  10.025  0.00  0.00     0.309 C 
HETATM    8  C   UNK N   1      35.979  14.697   9.391  0.00  0.00     0.309 C 
ENDBRANCH   5   6
ENDBRANCH   4   5
ENDBRANCH   2   4
BRANCH   2   9
HETATM    9  C   UNK N   1      30.686  16.953   7.701  0.00  0.00     0.002 A 
HETATM   10  C   UNK N   1      29.353  16.889   7.182  0.00  0.00     0.043 A 
HETATM   11 Cl   UNK N   1      28.849  15.893   5.826  0.00  0.00    -0.084 Cl
HETATM   12  C   UNK N   1      28.359  17.711   7.730  0.00  0.00     0.024 A 
HETATM   13  C   UNK N   1      28.642  18.591   8.771  0.00  0.00     0.002 A 
HETATM   14  C   UNK N   1      29.935  18.675   9.275  0.00  0.00     0.001 A 
HETATM   15  C   UNK N   1      30.940  17.870   8.742  0.00  0.00     0.012 A 
ENDBRANCH   2   9
BRANCH   2  16
HETATM   16  C   UNK N   1      32.224  16.223   5.722  0.00  0.00    -0.019 A 
HETATM   17  C   UNK N   1      32.407  15.032   4.993  0.00  0.00     0.010 A 
HETATM   18  C   UNK N   1      32.743  15.075   3.636  0.00  0.00     0.001 A 
HETATM   19  C   UNK N   1      32.912  16.303   2.994  0.00  0.00     0.000 A 
HETATM   20  C   UNK N   1      32.745  17.492   3.707  0.00  0.00     0.001 A 
HETATM   21  C   UNK N   1      32.406  17.454   5.062  0.00  0.00     0.010 A 
ENDBRANCH   2  16
TORSDOF 5
ENDMDL
MODEL 8
REMARK VINA RESULT:      -5.4      1.374      4.467
REMARK  5 active torsions:
REMARK  status: ('A' for Active; 'I' for Inactive)
REMARK    1  A    between atoms: N_3  and  C_6 
REMARK    2  A    between atoms: C_4  and  C_5 
REMARK    3  A    between atoms: C_4  and  C_7 
REMARK    4  A    between atoms: C_4  and  C_8 
REMARK    5  A    between atoms: C_5  and  C_6 
ROOT
HETATM    1  O   UNK N   1      34.163  12.659  14.086  0.00  0.00    -0.380 OA
HETATM    2  C   UNK N   1      35.385  12.141  14.537  0.00  0.00     0.115 C 
HETATM    3  H   UNK N   1      33.329  12.985  13.712  0.00  0.00     0.211 HD
ENDROOT
BRANCH   2   4
HETATM    4  C   UNK N   1      36.518  13.045  14.015  0.00  0.00     0.078 C 
BRANCH   4   5
HETATM    5  C   UNK N   1      36.049  14.152  13.075  0.00  0.00     0.275 C 
BRANCH   5   6
HETATM    6  N   UNK N   1      36.189  13.732  11.688  0.00  0.00     0.080 N 
HETATM    7  C   UNK N   1      37.440  13.003  11.591  0.00  0.00     0.309 C 
HETATM    8  C   UNK N   1      36.328  14.915  10.852  0.00  0.00     0.309 C 
ENDBRANCH   5   6
ENDBRANCH   4   5
ENDBRANCH   2   4
BRANCH   2   9
HETATM    9  C   UNK N   1      35.602  10.789  13.839  0.00  0.00     0.002 A 
HETATM   10  C   UNK N   1      36.798  10.004  13.850  0.00  0.00     0.043 A 
HETATM   11 Cl   UNK N   1      38.296  10.464  14.644  0.00  0.00    -0.084 Cl
HETATM   12  C   UNK N   1      36.840   8.798  13.136  0.00  0.00     0.024 A 
HETATM   13  C   UNK N   1      35.737   8.348  12.414  0.00  0.00     0.002 A 
HETATM   14  C   UNK N   1      34.573   9.107  12.382  0.00  0.00     0.001 A 
HETATM   15  C   UNK N   1      34.512  10.311  13.081  0.00  0.00     0.012 A 
ENDBRANCH   2   9
BRANCH   2  16
HETATM   16  C   UNK N   1      35.312  12.130  16.060  0.00  0.00    -0.019 A 
HETATM   17  C   UNK N   1      35.246  13.350  16.760  0.00  0.00     0.010 A 
HETATM   18  C   UNK N   1      35.220  13.366  18.158  0.00  0.00     0.001 A 
HETATM   19  C   UNK N   1      35.272  12.167  18.873  0.00  0.00     0.000 A 
HETATM   20  C   UNK N   1      35.350  10.951  18.193  0.00  0.00     0.001 A 
HETATM   21  C   UNK N   1      35.373  10.930  16.796  0.00  0.00     0.010 A 
ENDBRANCH   2  16
TORSDOF 5
ENDMDL
MODEL 9
REMARK VINA RESULT:      -5.3     10.004     12.757
REMARK  5 active torsions:
REMARK  status: ('A' for Active; 'I' for Inactive)
REMARK    1  A    between atoms: N_3  and  C_6 
REMARK    2  A    between atoms: C_4  and  C_5 
REMARK    3  A    between atoms: C_4  and  C_7 
REMARK    4  A    between atoms: C_4  and  C_8 
REMARK    5  A    between atoms: C_5  and  C_6 
ROOT
HETATM    1  O   UNK N   1      28.726  16.898   7.795  0.00  0.00    -0.380 OA
HETATM    2  C   UNK N   1      29.201  17.240   6.521  0.00  0.00     0.115 C 
HETATM    3  H   UNK N   1      28.458  16.626   8.687  0.00  0.00     0.211 HD
ENDROOT
BRANCH   2   4
HETATM    4  C   UNK N   1      28.943  16.054   5.572  0.00  0.00     0.078 C 
BRANCH   4   5
HETATM    5  C   UNK N   1      27.628  15.324   5.831  0.00  0.00     0.275 C 
BRANCH   5   6
HETATM    6  N   UNK N   1      26.982  14.982   4.572  0.00  0.00     0.080 N 
HETATM    7  C   UNK N   1      27.942  15.251   3.517  0.00  0.00     0.309 C 
HETATM    8  C   UNK N   1      25.863  15.888   4.359  0.00  0.00     0.309 C 
ENDBRANCH   5   6
ENDBRANCH   4   5
ENDBRANCH   2   4
BRANCH   2   9
HETATM    9  C   UNK N   1      30.732  17.350   6.611  0.00  0.00     0.002 A 
HETATM   10  C   UNK N   1      31.659  17.287   5.522  0.00  0.00     0.043 A 
HETATM   11 Cl   UNK N   1      31.220  17.020   3.842  0.00  0.00    -0.084 Cl
HETATM   12  C   UNK N   1      33.034  17.380   5.779  0.00  0.00     0.024 A 
HETATM   13  C   UNK N   1      33.517  17.533   7.077  0.00  0.00     0.002 A 
HETATM   14  C   UNK N   1      32.630  17.581   8.145  0.00  0.00     0.001 A 
HETATM   15  C   UNK N   1      31.259  17.486   7.913  0.00  0.00     0.012 A 
ENDBRANCH   2   9
BRANCH   2  16
HETATM   16  C   UNK N   1      28.441  18.492   6.099  0.00  0.00    -0.019 A 
HETATM   17  C   UNK N   1      28.287  18.781   4.729  0.00  0.00     0.010 A 
HETATM   18  C   UNK N   1      27.629  19.944   4.318  0.00  0.00     0.001 A 
HETATM   19  C   UNK N   1      27.128  20.837   5.267  0.00  0.00     0.000 A 
HETATM   20  C   UNK N   1      27.284  20.570   6.629  0.00  0.00     0.001 A 
HETATM   21  C   UNK N   1      27.938  19.407   7.043  0.00  0.00     0.010 A 
ENDBRANCH   2  16
TORSDOF 5
ENDMDL
