REMARK  5 active torsions:
REMARK  status: ('A' for Active; 'I' for Inactive)
REMARK    1  A    between atoms: O_1  and  C_8 
REMARK    2  A    between atoms: O_1  and  C_13 
REMARK    3  A    between atoms: O_3  and  C_14 
REMARK    4  A    between atoms: C_13  and  C_14 
REMARK    5  A    between atoms: C_14  and  C_15 
ROOT
HETATM    1  O   UNK N   1       4.530  -0.496   0.758  0.00  0.00    -0.262 OA
HETATM    2  C   UNK N   1       3.439  -0.021   0.480  0.00  0.00     0.292 C 
ENDROOT
BRANCH   2   3
HETATM    3  O   UNK N   1       3.329   1.083  -0.316  0.00  0.00    -0.314 OA
BRANCH   3   4
HETATM    4  C   UNK N   1       4.318   1.703  -1.080  0.00  0.00     0.133 C 
HETATM    5  C   UNK N   1       4.359   3.213  -0.834  0.00  0.00     0.041 C 
HETATM    6  C   UNK N   1       5.056   3.619   0.475  0.00  0.00    -0.045 C 
HETATM    7  C   UNK N   1       5.822   2.460   1.124  0.00  0.00     0.013 C 
HETATM    8  C   UNK N   1       6.018   4.751   0.165  0.00  0.00     0.015 C 
HETATM    9  C   UNK N   1       4.021   4.127   1.455  0.00  0.00     0.015 C 
HETATM   10  C   UNK N   1       6.628   1.691   0.081  0.00  0.00    -0.015 C 
HETATM   11  C   UNK N   1       5.733   1.086  -1.013  0.00  0.00     0.037 C 
HETATM   12  C   UNK N   1       7.433   0.596   0.751  0.00  0.00     0.010 C 
ENDBRANCH   3   4
ENDBRANCH   2   3
BRANCH   2  13
HETATM   13  C   UNK N   1       2.202  -0.704   0.999  0.00  0.00     0.250 C 
BRANCH  13  14
HETATM   14  O   UNK N   1       1.074   0.091   0.766  0.00  0.00    -0.381 OA
HETATM   15  H   UNK N   1       1.160   1.043   0.604  0.00  0.00     0.211 HD
ENDBRANCH  13  14
BRANCH  13  16
HETATM   16  C   UNK N   1       2.043  -2.067   0.360  0.00  0.00    -0.020 A 
HETATM   17  C   UNK N   1       0.875  -2.402  -0.344  0.00  0.00     0.010 A 
HETATM   18  C   UNK N   1       0.746  -3.658  -0.945  0.00  0.00     0.001 A 
HETATM   19  C   UNK N   1       1.786  -4.587  -0.854  0.00  0.00     0.000 A 
HETATM   20  C   UNK N   1       2.950  -4.265  -0.153  0.00  0.00     0.001 A 
HETATM   21  C   UNK N   1       3.076  -3.014   0.456  0.00  0.00     0.010 A 
ENDBRANCH  13  16
ENDBRANCH   2  13
TORSDOF 5
