MODEL 1
REMARK VINA RESULT:      -6.9      0.000      0.000
REMARK  5 active torsions:
REMARK  status: ('A' for Active; 'I' for Inactive)
REMARK    1  A    between atoms: O_1  and  C_8 
REMARK    2  A    between atoms: O_1  and  C_13 
REMARK    3  A    between atoms: O_3  and  C_14 
REMARK    4  A    between atoms: C_13  and  C_14 
REMARK    5  A    between atoms: C_14  and  C_15 
ROOT
HETATM    1  O   UNK N   1      29.814  18.749   9.821  0.00  0.00    -0.262 OA
HETATM    2  C   UNK N   1      29.627  18.284   8.706  0.00  0.00     0.292 C 
ENDROOT
BRANCH   2   3
HETATM    3  O   UNK N   1      30.671  17.923   7.905  0.00  0.00    -0.314 OA
BRANCH   3   4
HETATM    4  C   UNK N   1      31.495  16.801   8.006  0.00  0.00     0.133 C 
HETATM    5  C   UNK N   1      31.645  16.087   6.661  0.00  0.00     0.041 C 
HETATM    6  C   UNK N   1      32.624  16.770   5.691  0.00  0.00    -0.045 C 
HETATM    7  C   UNK N   1      33.467  17.857   6.367  0.00  0.00     0.013 C 
HETATM    8  C   UNK N   1      33.538  15.704   5.116  0.00  0.00     0.015 C 
HETATM    9  C   UNK N   1      31.845  17.395   4.554  0.00  0.00     0.015 C 
HETATM   10  C   UNK N   1      33.999  17.373   7.713  0.00  0.00    -0.015 C 
HETATM   11  C   UNK N   1      32.866  17.008   8.687  0.00  0.00     0.037 C 
HETATM   12  C   UNK N   1      34.888  18.433   8.332  0.00  0.00     0.010 C 
ENDBRANCH   3   4
ENDBRANCH   2   3
BRANCH   2  13
HETATM   13  C   UNK N   1      28.211  18.072   8.243  0.00  0.00     0.250 C 
BRANCH  13  14
HETATM   14  O   UNK N   1      27.309  18.525   9.212  0.00  0.00    -0.381 OA
HETATM   15  H   UNK N   1      27.440  18.317  10.150  0.00  0.00     0.211 HD
ENDBRANCH  13  14
BRANCH  13  16
HETATM   16  C   UNK N   1      27.977  18.771   6.920  0.00  0.00    -0.020 A 
HETATM   17  C   UNK N   1      27.600  20.123   6.876  0.00  0.00     0.010 A 
HETATM   18  C   UNK N   1      27.403  20.764   5.648  0.00  0.00     0.001 A 
HETATM   19  C   UNK N   1      27.590  20.061   4.455  0.00  0.00     0.000 A 
HETATM   20  C   UNK N   1      27.962  18.715   4.489  0.00  0.00     0.001 A 
HETATM   21  C   UNK N   1      28.149  18.072   5.715  0.00  0.00     0.010 A 
ENDBRANCH  13  16
ENDBRANCH   2  13
TORSDOF 5
ENDMDL
MODEL 2
REMARK VINA RESULT:      -6.3      3.783      7.492
REMARK  5 active torsions:
REMARK  status: ('A' for Active; 'I' for Inactive)
REMARK    1  A    between atoms: O_1  and  C_8 
REMARK    2  A    between atoms: O_1  and  C_13 
REMARK    3  A    between atoms: O_3  and  C_14 
REMARK    4  A    between atoms: C_13  and  C_14 
REMARK    5  A    between atoms: C_14  and  C_15 
ROOT
HETATM    1  O   UNK N   1      35.632  17.507  10.283  0.00  0.00    -0.262 OA
HETATM    2  C   UNK N   1      34.786  16.631  10.184  0.00  0.00     0.292 C 
ENDROOT
BRANCH   2   3
HETATM    3  O   UNK N   1      33.822  16.684   9.218  0.00  0.00    -0.314 OA
BRANCH   3   4
HETATM    4  C   UNK N   1      33.414  17.781   8.459  0.00  0.00     0.133 C 
HETATM    5  C   UNK N   1      34.053  17.774   7.068  0.00  0.00     0.041 C 
HETATM    6  C   UNK N   1      33.400  16.794   6.080  0.00  0.00    -0.045 C 
HETATM    7  C   UNK N   1      32.066  16.236   6.591  0.00  0.00     0.013 C 
HETATM    8  C   UNK N   1      33.174  17.526   4.770  0.00  0.00     0.015 C 
HETATM    9  C   UNK N   1      34.344  15.639   5.825  0.00  0.00     0.015 C 
HETATM   10  C   UNK N   1      31.206  17.347   7.186  0.00  0.00    -0.015 C 
HETATM   11  C   UNK N   1      31.893  18.038   8.375  0.00  0.00     0.037 C 
HETATM   12  C   UNK N   1      29.866  16.790   7.620  0.00  0.00     0.010 C 
ENDBRANCH   3   4
ENDBRANCH   2   3
BRANCH   2  13
HETATM   13  C   UNK N   1      34.848  15.458  11.126  0.00  0.00     0.250 C 
BRANCH  13  14
HETATM   14  O   UNK N   1      33.588  14.859  11.240  0.00  0.00    -0.381 OA
HETATM   15  H   UNK N   1      33.486  13.989  11.654  0.00  0.00     0.211 HD
ENDBRANCH  13  14
BRANCH  13  16
HETATM   16  C   UNK N   1      35.881  14.457  10.655  0.00  0.00    -0.020 A 
HETATM   17  C   UNK N   1      36.049  14.181   9.288  0.00  0.00     0.010 A 
HETATM   18  C   UNK N   1      37.018  13.267   8.864  0.00  0.00     0.001 A 
HETATM   19  C   UNK N   1      37.833  12.626   9.801  0.00  0.00     0.000 A 
HETATM   20  C   UNK N   1      37.671  12.890  11.163  0.00  0.00     0.001 A 
HETATM   21  C   UNK N   1      36.697  13.796  11.589  0.00  0.00     0.010 A 
ENDBRANCH  13  16
ENDBRANCH   2  13
TORSDOF 5
ENDMDL
MODEL 3
REMARK VINA RESULT:      -6.2     11.636     13.121
REMARK  5 active torsions:
REMARK  status: ('A' for Active; 'I' for Inactive)
REMARK    1  A    between atoms: O_1  and  C_8 
REMARK    2  A    between atoms: O_1  and  C_13 
REMARK    3  A    between atoms: O_3  and  C_14 
REMARK    4  A    between atoms: C_13  and  C_14 
REMARK    5  A    between atoms: C_14  and  C_15 
ROOT
HETATM    1  O   UNK N   1      28.801  25.128  -4.956  0.00  0.00    -0.262 OA
HETATM    2  C   UNK N   1      28.309  24.108  -4.497  0.00  0.00     0.292 C 
ENDROOT
BRANCH   2   3
HETATM    3  O   UNK N   1      29.001  22.931  -4.484  0.00  0.00    -0.314 OA
BRANCH   3   4
HETATM    4  C   UNK N   1      30.006  22.526  -3.605  0.00  0.00     0.133 C 
HETATM    5  C   UNK N   1      30.445  21.085  -3.875  0.00  0.00     0.041 C 
HETATM    6  C   UNK N   1      31.381  20.928  -5.085  0.00  0.00    -0.045 C 
HETATM    7  C   UNK N   1      31.917  22.270  -5.599  0.00  0.00     0.013 C 
HETATM    8  C   UNK N   1      32.543  20.044  -4.670  0.00  0.00     0.015 C 
HETATM    9  C   UNK N   1      30.635  20.240  -6.207  0.00  0.00     0.015 C 
HETATM   10  C   UNK N   1      32.371  23.152  -4.439  0.00  0.00    -0.015 C 
HETATM   11  C   UNK N   1      31.224  23.466  -3.465  0.00  0.00     0.037 C 
HETATM   12  C   UNK N   1      32.963  24.442  -4.970  0.00  0.00     0.010 C 
ENDBRANCH   3   4
ENDBRANCH   2   3
BRANCH   2  13
HETATM   13  C   UNK N   1      26.929  24.180  -3.899  0.00  0.00     0.250 C 
BRANCH  13  14
HETATM   14  O   UNK N   1      26.989  23.987  -2.514  0.00  0.00    -0.381 OA
HETATM   15  H   UNK N   1      26.196  23.753  -2.009  0.00  0.00     0.211 HD
ENDBRANCH  13  14
BRANCH  13  16
HETATM   16  C   UNK N   1      26.277  25.505  -4.232  0.00  0.00    -0.020 A 
HETATM   17  C   UNK N   1      25.559  25.676  -5.427  0.00  0.00     0.010 A 
HETATM   18  C   UNK N   1      24.946  26.899  -5.716  0.00  0.00     0.001 A 
HETATM   19  C   UNK N   1      25.039  27.959  -4.810  0.00  0.00     0.000 A 
HETATM   20  C   UNK N   1      25.753  27.800  -3.621  0.00  0.00     0.001 A 
HETATM   21  C   UNK N   1      26.375  26.582  -3.336  0.00  0.00     0.010 A 
ENDBRANCH  13  16
ENDBRANCH   2  13
TORSDOF 5
ENDMDL
MODEL 4
REMARK VINA RESULT:      -6.2      1.685      2.337
REMARK  5 active torsions:
REMARK  status: ('A' for Active; 'I' for Inactive)
REMARK    1  A    between atoms: O_1  and  C_8 
REMARK    2  A    between atoms: O_1  and  C_13 
REMARK    3  A    between atoms: O_3  and  C_14 
REMARK    4  A    between atoms: C_13  and  C_14 
REMARK    5  A    between atoms: C_14  and  C_15 
ROOT
HETATM    1  O   UNK N   1      28.644  16.259   6.091  0.00  0.00    -0.262 OA
HETATM    2  C   UNK N   1      29.479  17.132   5.913  0.00  0.00     0.292 C 
ENDROOT
BRANCH   2   3
HETATM    3  O   UNK N   1      30.568  17.248   6.729  0.00  0.00    -0.314 OA
BRANCH   3   4
HETATM    4  C   UNK N   1      31.475  16.258   7.109  0.00  0.00     0.133 C 
HETATM    5  C   UNK N   1      32.055  15.527   5.897  0.00  0.00     0.041 C 
HETATM    6  C   UNK N   1      33.153  16.308   5.156  0.00  0.00    -0.045 C 
HETATM    7  C   UNK N   1      33.648  17.527   5.943  0.00  0.00     0.013 C 
HETATM    8  C   UNK N   1      34.313  15.364   4.901  0.00  0.00     0.015 C 
HETATM    9  C   UNK N   1      32.617  16.777   3.820  0.00  0.00     0.015 C 
HETATM   10  C   UNK N   1      33.876  17.170   7.409  0.00  0.00    -0.015 C 
HETATM   11  C   UNK N   1      32.589  16.682   8.094  0.00  0.00     0.037 C 
HETATM   12  C   UNK N   1      34.433  18.366   8.154  0.00  0.00     0.010 C 
ENDBRANCH   3   4
ENDBRANCH   2   3
BRANCH   2  13
HETATM   13  C   UNK N   1      29.311  18.063   4.742  0.00  0.00     0.250 C 
BRANCH  13  14
HETATM   14  O   UNK N   1      29.038  17.336   3.578  0.00  0.00    -0.381 OA
HETATM   15  H   UNK N   1      29.733  16.827   3.134  0.00  0.00     0.211 HD
ENDBRANCH  13  14
BRANCH  13  16
HETATM   16  C   UNK N   1      28.214  19.069   5.020  0.00  0.00    -0.020 A 
HETATM   17  C   UNK N   1      28.025  19.593   6.309  0.00  0.00     0.010 A 
HETATM   18  C   UNK N   1      27.019  20.534   6.551  0.00  0.00     0.001 A 
HETATM   19  C   UNK N   1      26.200  20.966   5.504  0.00  0.00     0.000 A 
HETATM   20  C   UNK N   1      26.378  20.449   4.219  0.00  0.00     0.001 A 
HETATM   21  C   UNK N   1      27.376  19.501   3.979  0.00  0.00     0.010 A 
ENDBRANCH  13  16
ENDBRANCH   2  13
TORSDOF 5
ENDMDL
MODEL 5
REMARK VINA RESULT:      -6.2      7.407     10.492
REMARK  5 active torsions:
REMARK  status: ('A' for Active; 'I' for Inactive)
REMARK    1  A    between atoms: O_1  and  C_8 
REMARK    2  A    between atoms: O_1  and  C_13 
REMARK    3  A    between atoms: O_3  and  C_14 
REMARK    4  A    between atoms: C_13  and  C_14 
REMARK    5  A    between atoms: C_14  and  C_15 
ROOT
HETATM    1  O   UNK N   1      34.070  12.099  14.288  0.00  0.00    -0.262 OA
HETATM    2  C   UNK N   1      35.082  12.679  13.924  0.00  0.00     0.292 C 
ENDROOT
BRANCH   2   3
HETATM    3  O   UNK N   1      35.090  13.448  12.796  0.00  0.00    -0.314 OA
BRANCH   3   4
HETATM    4  C   UNK N   1      34.889  13.051  11.474  0.00  0.00     0.133 C 
HETATM    5  C   UNK N   1      34.371  14.204  10.610  0.00  0.00     0.041 C 
HETATM    6  C   UNK N   1      35.454  15.210  10.188  0.00  0.00    -0.045 C 
HETATM    7  C   UNK N   1      36.875  14.705  10.468  0.00  0.00     0.013 C 
HETATM    8  C   UNK N   1      35.296  15.476   8.702  0.00  0.00     0.015 C 
HETATM    9  C   UNK N   1      35.245  16.511  10.931  0.00  0.00     0.015 C 
HETATM   10  C   UNK N   1      37.029  13.249  10.037  0.00  0.00    -0.015 C 
HETATM   11  C   UNK N   1      36.061  12.318  10.785  0.00  0.00     0.037 C 
HETATM   12  C   UNK N   1      38.456  12.791  10.255  0.00  0.00     0.010 C 
ENDBRANCH   3   4
ENDBRANCH   2   3
BRANCH   2  13
HETATM   13  C   UNK N   1      36.322  12.565  14.770  0.00  0.00     0.250 C 
BRANCH  13  14
HETATM   14  O   UNK N   1      37.466  12.625  13.966  0.00  0.00    -0.381 OA
HETATM   15  H   UNK N   1      37.395  12.650  13.000  0.00  0.00     0.211 HD
ENDBRANCH  13  14
BRANCH  13  16
HETATM   16  C   UNK N   1      36.345  13.653  15.823  0.00  0.00    -0.020 A 
HETATM   17  C   UNK N   1      35.553  13.555  16.979  0.00  0.00     0.010 A 
HETATM   18  C   UNK N   1      35.595  14.557  17.953  0.00  0.00     0.001 A 
HETATM   19  C   UNK N   1      36.434  15.662  17.784  0.00  0.00     0.000 A 
HETATM   20  C   UNK N   1      37.223  15.770  16.637  0.00  0.00     0.001 A 
HETATM   21  C   UNK N   1      37.174  14.774  15.659  0.00  0.00     0.010 A 
ENDBRANCH  13  16
ENDBRANCH   2  13
TORSDOF 5
ENDMDL
MODEL 6
REMARK VINA RESULT:      -6.1     13.112     15.322
REMARK  5 active torsions:
REMARK  status: ('A' for Active; 'I' for Inactive)
REMARK    1  A    between atoms: O_1  and  C_8 
REMARK    2  A    between atoms: O_1  and  C_13 
REMARK    3  A    between atoms: O_3  and  C_14 
REMARK    4  A    between atoms: C_13  and  C_14 
REMARK    5  A    between atoms: C_14  and  C_15 
ROOT
HETATM    1  O   UNK N   1      29.205  23.583  -3.913  0.00  0.00    -0.262 OA
HETATM    2  C   UNK N   1      28.320  24.171  -4.517  0.00  0.00     0.292 C 
ENDROOT
BRANCH   2   3
HETATM    3  O   UNK N   1      28.565  24.785  -5.711  0.00  0.00    -0.314 OA
BRANCH   3   4
HETATM    4  C   UNK N   1      29.693  25.508  -6.099  0.00  0.00     0.133 C 
HETATM    5  C   UNK N   1      29.558  26.043  -7.527  0.00  0.00     0.041 C 
HETATM    6  C   UNK N   1      28.666  27.289  -7.651  0.00  0.00    -0.045 C 
HETATM    7  C   UNK N   1      28.328  27.914  -6.293  0.00  0.00     0.013 C 
HETATM    8  C   UNK N   1      29.394  28.306  -8.510  0.00  0.00     0.015 C 
HETATM    9  C   UNK N   1      27.376  26.912  -8.347  0.00  0.00     0.015 C 
HETATM   10  C   UNK N   1      29.569  27.996  -5.409  0.00  0.00    -0.015 C 
HETATM   11  C   UNK N   1      30.176  26.611  -5.131  0.00  0.00     0.037 C 
HETATM   12  C   UNK N   1      29.231  28.682  -4.101  0.00  0.00     0.010 C 
ENDBRANCH   3   4
ENDBRANCH   2   3
BRANCH   2  13
HETATM   13  C   UNK N   1      26.930  24.171  -3.938  0.00  0.00     0.250 C 
BRANCH  13  14
HETATM   14  O   UNK N   1      26.977  23.921  -2.561  0.00  0.00    -0.381 OA
HETATM   15  H   UNK N   1      27.708  23.417  -2.171  0.00  0.00     0.211 HD
ENDBRANCH  13  14
BRANCH  13  16
HETATM   16  C   UNK N   1      26.239  25.487  -4.224  0.00  0.00    -0.020 A 
HETATM   17  C   UNK N   1      26.376  26.579  -3.351  0.00  0.00     0.010 A 
HETATM   18  C   UNK N   1      25.747  27.795  -3.633  0.00  0.00     0.001 A 
HETATM   19  C   UNK N   1      24.982  27.933  -4.795  0.00  0.00     0.000 A 
HETATM   20  C   UNK N   1      24.836  26.853  -5.667  0.00  0.00     0.001 A 
HETATM   21  C   UNK N   1      25.457  25.634  -5.381  0.00  0.00     0.010 A 
ENDBRANCH  13  16
ENDBRANCH   2  13
TORSDOF 5
ENDMDL
MODEL 7
REMARK VINA RESULT:      -6.0     11.711     14.014
REMARK  5 active torsions:
REMARK  status: ('A' for Active; 'I' for Inactive)
REMARK    1  A    between atoms: O_1  and  C_8 
REMARK    2  A    between atoms: O_1  and  C_13 
REMARK    3  A    between atoms: O_3  and  C_14 
REMARK    4  A    between atoms: C_13  and  C_14 
REMARK    5  A    between atoms: C_14  and  C_15 
ROOT
HETATM    1  O   UNK N   1      26.051  23.978  -3.277  0.00  0.00    -0.262 OA
HETATM    2  C   UNK N   1      26.775  24.528  -4.093  0.00  0.00     0.292 C 
ENDROOT
BRANCH   2   3
HETATM    3  O   UNK N   1      28.134  24.425  -4.017  0.00  0.00    -0.314 OA
BRANCH   3   4
HETATM    4  C   UNK N   1      29.032  24.050  -5.017  0.00  0.00     0.133 C 
HETATM    5  C   UNK N   1      30.060  25.149  -5.295  0.00  0.00     0.041 C 
HETATM    6  C   UNK N   1      31.189  25.234  -4.254  0.00  0.00    -0.045 C 
HETATM    7  C   UNK N   1      31.221  24.023  -3.314  0.00  0.00     0.013 C 
HETATM    8  C   UNK N   1      32.508  25.333  -4.997  0.00  0.00     0.015 C 
HETATM    9  C   UNK N   1      31.011  26.488  -3.426  0.00  0.00     0.015 C 
HETATM   10  C   UNK N   1      31.052  22.724  -4.096  0.00  0.00    -0.015 C 
HETATM   11  C   UNK N   1      29.715  22.673  -4.854  0.00  0.00     0.037 C 
HETATM   12  C   UNK N   1      31.158  21.537  -3.161  0.00  0.00     0.010 C 
ENDBRANCH   3   4
ENDBRANCH   2   3
BRANCH   2  13
HETATM   13  C   UNK N   1      26.137  25.295  -5.220  0.00  0.00     0.250 C 
BRANCH  13  14
HETATM   14  O   UNK N   1      24.769  25.008  -5.291  0.00  0.00    -0.381 OA
HETATM   15  H   UNK N   1      24.389  24.582  -6.075  0.00  0.00     0.211 HD
ENDBRANCH  13  14
BRANCH  13  16
HETATM   16  C   UNK N   1      26.369  26.781  -5.046  0.00  0.00    -0.020 A 
HETATM   17  C   UNK N   1      25.798  27.479  -3.969  0.00  0.00     0.010 A 
HETATM   18  C   UNK N   1      26.033  28.848  -3.809  0.00  0.00     0.001 A 
HETATM   19  C   UNK N   1      26.845  29.530  -4.718  0.00  0.00     0.000 A 
HETATM   20  C   UNK N   1      27.414  28.846  -5.795  0.00  0.00     0.001 A 
HETATM   21  C   UNK N   1      27.173  27.480  -5.962  0.00  0.00     0.010 A 
ENDBRANCH  13  16
ENDBRANCH   2  13
TORSDOF 5
ENDMDL
MODEL 8
REMARK VINA RESULT:      -6.0      1.896      6.088
REMARK  5 active torsions:
REMARK  status: ('A' for Active; 'I' for Inactive)
REMARK    1  A    between atoms: O_1  and  C_8 
REMARK    2  A    between atoms: O_1  and  C_13 
REMARK    3  A    between atoms: O_3  and  C_14 
REMARK    4  A    between atoms: C_13  and  C_14 
REMARK    5  A    between atoms: C_14  and  C_15 
ROOT
HETATM    1  O   UNK N   1      28.932  17.868   8.015  0.00  0.00    -0.262 OA
HETATM    2  C   UNK N   1      28.817  17.451   6.872  0.00  0.00     0.292 C 
ENDROOT
BRANCH   2   3
HETATM    3  O   UNK N   1      27.964  18.042   5.984  0.00  0.00    -0.314 OA
BRANCH   3   4
HETATM    4  C   UNK N   1      28.186  19.163   5.184  0.00  0.00     0.133 C 
HETATM    5  C   UNK N   1      27.420  19.073   3.862  0.00  0.00     0.041 C 
HETATM    6  C   UNK N   1      25.922  19.400   3.978  0.00  0.00    -0.045 C 
HETATM    7  C   UNK N   1      25.555  20.029   5.327  0.00  0.00     0.013 C 
HETATM    8  C   UNK N   1      25.560  20.358   2.858  0.00  0.00     0.015 C 
HETATM    9  C   UNK N   1      25.119  18.130   3.798  0.00  0.00     0.015 C 
HETATM   10  C   UNK N   1      26.564  21.105   5.717  0.00  0.00    -0.015 C 
HETATM   11  C   UNK N   1      27.988  20.541   5.853  0.00  0.00     0.037 C 
HETATM   12  C   UNK N   1      26.145  21.763   7.016  0.00  0.00     0.010 C 
ENDBRANCH   3   4
ENDBRANCH   2   3
BRANCH   2  13
HETATM   13  C   UNK N   1      29.672  16.290   6.439  0.00  0.00     0.250 C 
BRANCH  13  14
HETATM   14  O   UNK N   1      28.972  15.481   5.536  0.00  0.00    -0.381 OA
HETATM   15  H   UNK N   1      28.020  15.329   5.638  0.00  0.00     0.211 HD
ENDBRANCH  13  14
BRANCH  13  16
HETATM   16  C   UNK N   1      30.966  16.785   5.829  0.00  0.00    -0.020 A 
HETATM   17  C   UNK N   1      32.108  16.982   6.622  0.00  0.00     0.010 A 
HETATM   18  C   UNK N   1      33.303  17.423   6.045  0.00  0.00     0.001 A 
HETATM   19  C   UNK N   1      33.370  17.663   4.670  0.00  0.00     0.000 A 
HETATM   20  C   UNK N   1      32.238  17.473   3.874  0.00  0.00     0.001 A 
HETATM   21  C   UNK N   1      31.041  17.042   4.450  0.00  0.00     0.010 A 
ENDBRANCH  13  16
ENDBRANCH   2  13
TORSDOF 5
ENDMDL
MODEL 9
REMARK VINA RESULT:      -6.0     13.508     16.046
REMARK  5 active torsions:
REMARK  status: ('A' for Active; 'I' for Inactive)
REMARK    1  A    between atoms: O_1  and  C_8 
REMARK    2  A    between atoms: O_1  and  C_13 
REMARK    3  A    between atoms: O_3  and  C_14 
REMARK    4  A    between atoms: C_13  and  C_14 
REMARK    5  A    between atoms: C_14  and  C_15 
ROOT
HETATM    1  O   UNK N   1      28.691  23.543  -4.622  0.00  0.00    -0.262 OA
HETATM    2  C   UNK N   1      27.629  23.874  -5.129  0.00  0.00     0.292 C 
ENDROOT
BRANCH   2   3
HETATM    3  O   UNK N   1      27.484  23.950  -6.484  0.00  0.00    -0.314 OA
BRANCH   3   4
HETATM    4  C   UNK N   1      28.393  24.430  -7.427  0.00  0.00     0.133 C 
HETATM    5  C   UNK N   1      27.881  24.235  -8.856  0.00  0.00     0.041 C 
HETATM    6  C   UNK N   1      26.822  25.261  -9.292  0.00  0.00    -0.045 C 
HETATM    7  C   UNK N   1      26.704  26.441  -8.320  0.00  0.00     0.013 C 
HETATM    8  C   UNK N   1      27.202  25.775 -10.668  0.00  0.00     0.015 C 
HETATM    9  C   UNK N   1      25.476  24.577  -9.392  0.00  0.00     0.015 C 
HETATM   10  C   UNK N   1      28.085  26.951  -7.915  0.00  0.00    -0.015 C 
HETATM   11  C   UNK N   1      28.919  25.867  -7.212  0.00  0.00     0.037 C 
HETATM   12  C   UNK N   1      27.947  28.160  -7.012  0.00  0.00     0.010 C 
ENDBRANCH   3   4
ENDBRANCH   2   3
BRANCH   2  13
HETATM   13  C   UNK N   1      26.457  24.157  -4.227  0.00  0.00     0.250 C 
BRANCH  13  14
HETATM   14  O   UNK N   1      26.776  23.839  -2.902  0.00  0.00    -0.381 OA
HETATM   15  H   UNK N   1      26.659  22.938  -2.564  0.00  0.00     0.211 HD
ENDBRANCH  13  14
BRANCH  13  16
HETATM   16  C   UNK N   1      26.036  25.606  -4.348  0.00  0.00    -0.020 A 
HETATM   17  C   UNK N   1      26.567  26.586  -3.494  0.00  0.00     0.010 A 
HETATM   18  C   UNK N   1      26.183  27.924  -3.625  0.00  0.00     0.001 A 
HETATM   19  C   UNK N   1      25.271  28.295  -4.617  0.00  0.00     0.000 A 
HETATM   20  C   UNK N   1      24.734  27.328  -5.469  0.00  0.00     0.001 A 
HETATM   21  C   UNK N   1      25.110  25.990  -5.332  0.00  0.00     0.010 A 
ENDBRANCH  13  16
ENDBRANCH   2  13
TORSDOF 5
ENDMDL
