REMARK  0 active torsions:
REMARK  status: ('A' for Active; 'I' for Inactive)
REMARK       I    between atoms: N_1  and  C_12 
REMARK       I    between atoms: N_2  and  C_12 
ROOT
HETATM    1  N   UNK N   1       2.929  -0.236  -0.000  0.00  0.00    -0.214 N 
HETATM    2  N   UNK N   1       0.470  -0.428   0.000  0.00  0.00    -0.235 N 
HETATM    3  N   UNK N   1       1.829  -2.318   0.000  0.00  0.00    -0.235 N 
ATOM      4  HN  UNK N   1       2.743  -2.770   0.000  1.00  0.00     0.174 HD
HETATM    5  C   UNK N   1       4.053   2.060  -0.000  0.00  0.00     0.059 A 
HETATM    6  C   UNK N   1       2.779   1.213   0.000  0.00  0.00     0.146 A 
HETATM    7  C   UNK N   1       4.210  -0.921  -0.000  0.00  0.00     0.180 A 
HETATM    8  C   UNK N   1       5.353   1.336  -0.000  0.00  0.00    -0.049 A 
HETATM    9  C   UNK N   1       5.423  -0.062  -0.000  0.00  0.00    -0.033 A 
HETATM   10  C   UNK N   1       6.534   2.087  -0.000  0.00  0.00     0.008 A 
HETATM   11  C   UNK N   1       6.669  -0.696   0.000  0.00  0.00     0.009 A 
HETATM   12  C   UNK N   1       1.747  -1.037   0.000  0.00  0.00     0.667 C 
HETATM   13  C   UNK N   1       7.778   1.449   0.000  0.00  0.00     0.001 A 
HETATM   14  C   UNK N   1       7.845   0.055   0.000  0.00  0.00     0.001 A 
HETATM   15  H   UNK N   1       0.392   0.553   0.000  0.00  0.00     0.174 HD
HETATM   16  H   UNK N   1      -0.341  -0.986   0.000  0.00  0.00     0.174 HD
HETATM   17  H   UNK N   1       1.010  -2.864   0.000  0.00  0.00     0.174 HD
ENDROOT
TORSDOF 0
