MODEL 1
REMARK VINA RESULT:      -5.7      0.000      0.000
REMARK  0 active torsions:
REMARK  status: ('A' for Active; 'I' for Inactive)
REMARK       I    between atoms: N_1  and  C_12 
REMARK       I    between atoms: N_2  and  C_12 
ROOT
HETATM    1  N   UNK N   1      36.330  12.995  14.160  0.00  0.00    -0.214 N 
HETATM    2  N   UNK N   1      36.937  12.967  11.769  0.00  0.00    -0.235 N 
HETATM    3  N   UNK N   1      36.351  14.948  12.844  0.00  0.00    -0.235 N 
ATOM      4  HN  UNK N   1      36.060  15.473  13.668  1.00  0.00     0.174 HD
HETATM    5  C   UNK N   1      36.329  10.834  15.526  0.00  0.00     0.059 A 
HETATM    6  C   UNK N   1      36.550  11.556  14.195  0.00  0.00     0.146 A 
HETATM    7  C   UNK N   1      35.915  13.782  15.308  0.00  0.00     0.180 A 
HETATM    8  C   UNK N   1      35.905  11.662  16.687  0.00  0.00    -0.049 A 
HETATM    9  C   UNK N   1      35.712  13.044  16.582  0.00  0.00    -0.033 A 
HETATM   10  C   UNK N   1      35.696  11.026  17.917  0.00  0.00     0.008 A 
HETATM   11  C   UNK N   1      35.313  13.778  17.703  0.00  0.00     0.009 A 
HETATM   12  C   UNK N   1      36.533  13.679  12.923  0.00  0.00     0.667 C 
HETATM   13  C   UNK N   1      35.297  11.764  19.035  0.00  0.00     0.001 A 
HETATM   14  C   UNK N   1      35.105  13.142  18.928  0.00  0.00     0.001 A 
HETATM   15  H   UNK N   1      37.080  11.995  11.816  0.00  0.00     0.174 HD
HETATM   16  H   UNK N   1      37.075  13.445  10.920  0.00  0.00     0.174 HD
HETATM   17  H   UNK N   1      36.493  15.413  11.988  0.00  0.00     0.174 HD
ENDROOT
TORSDOF 0
ENDMDL
MODEL 2
REMARK VINA RESULT:      -5.6     11.429     13.770
REMARK  0 active torsions:
REMARK  status: ('A' for Active; 'I' for Inactive)
REMARK       I    between atoms: N_1  and  C_12 
REMARK       I    between atoms: N_2  and  C_12 
ROOT
HETATM    1  N   UNK N   1      29.507  18.054   7.847  0.00  0.00    -0.214 N 
HETATM    2  N   UNK N   1      31.085  16.682   9.156  0.00  0.00    -0.235 N 
HETATM    3  N   UNK N   1      29.791  18.331  10.168  0.00  0.00    -0.235 N 
ATOM      4  HN  UNK N   1      29.094  19.075  10.137  1.00  0.00     0.174 HD
HETATM    5  C   UNK N   1      29.253  17.696   5.329  0.00  0.00     0.059 A 
HETATM    6  C   UNK N   1      29.912  17.319   6.657  0.00  0.00     0.146 A 
HETATM    7  C   UNK N   1      28.520  19.119   7.848  0.00  0.00     0.180 A 
HETATM    8  C   UNK N   1      28.245  18.790   5.355  0.00  0.00    -0.049 A 
HETATM    9  C   UNK N   1      27.903  19.455   6.538  0.00  0.00    -0.033 A 
HETATM   10  C   UNK N   1      27.626  19.155   4.154  0.00  0.00     0.008 A 
HETATM   11  C   UNK N   1      26.949  20.477   6.511  0.00  0.00     0.009 A 
HETATM   12  C   UNK N   1      30.116  17.711   9.092  0.00  0.00     0.667 C 
HETATM   13  C   UNK N   1      26.673  20.178   4.131  0.00  0.00     0.001 A 
HETATM   14  C   UNK N   1      26.334  20.839   5.313  0.00  0.00     0.001 A 
HETATM   15  H   UNK N   1      31.344  16.198   8.339  0.00  0.00     0.174 HD
HETATM   16  H   UNK N   1      31.501  16.450  10.017  0.00  0.00     0.174 HD
HETATM   17  H   UNK N   1      30.215  18.089  11.023  0.00  0.00     0.174 HD
ENDROOT
TORSDOF 0
ENDMDL
MODEL 3
REMARK VINA RESULT:      -5.6     10.690     12.289
REMARK  0 active torsions:
REMARK  status: ('A' for Active; 'I' for Inactive)
REMARK       I    between atoms: N_1  and  C_12 
REMARK       I    between atoms: N_2  and  C_12 
ROOT
HETATM    1  N   UNK N   1      29.701  17.848   7.880  0.00  0.00    -0.214 N 
HETATM    2  N   UNK N   1      27.662  18.386   9.159  0.00  0.00    -0.235 N 
HETATM    3  N   UNK N   1      29.718  18.124  10.218  0.00  0.00    -0.235 N 
ATOM      4  HN  UNK N   1      30.719  17.933  10.206  1.00  0.00     0.174 HD
HETATM    5  C   UNK N   1      29.606  17.563   5.341  0.00  0.00     0.059 A 
HETATM    6  C   UNK N   1      28.897  17.855   6.665  0.00  0.00     0.146 A 
HETATM    7  C   UNK N   1      31.129  17.582   7.909  0.00  0.00     0.180 A 
HETATM    8  C   UNK N   1      31.068  17.293   5.396  0.00  0.00    -0.049 A 
HETATM    9  C   UNK N   1      31.779  17.303   6.601  0.00  0.00    -0.033 A 
HETATM   10  C   UNK N   1      31.741  17.023   4.199  0.00  0.00     0.008 A 
HETATM   11  C   UNK N   1      33.153  17.043   6.601  0.00  0.00     0.009 A 
HETATM   12  C   UNK N   1      29.050  18.119   9.122  0.00  0.00     0.667 C 
HETATM   13  C   UNK N   1      33.115  16.764   4.203  0.00  0.00     0.001 A 
HETATM   14  C   UNK N   1      33.822  16.774   5.406  0.00  0.00     0.001 A 
HETATM   15  H   UNK N   1      27.138  18.385   8.326  0.00  0.00     0.174 HD
HETATM   16  H   UNK N   1      27.219  18.572  10.018  0.00  0.00     0.174 HD
HETATM   17  H   UNK N   1      29.263  18.311  11.071  0.00  0.00     0.174 HD
ENDROOT
TORSDOF 0
ENDMDL
MODEL 4
REMARK VINA RESULT:      -5.5     10.486     12.065
REMARK  0 active torsions:
REMARK  status: ('A' for Active; 'I' for Inactive)
REMARK       I    between atoms: N_1  and  C_12 
REMARK       I    between atoms: N_2  and  C_12 
ROOT
HETATM    1  N   UNK N   1      29.536  17.739   7.647  0.00  0.00    -0.214 N 
HETATM    2  N   UNK N   1      27.697  18.361   9.169  0.00  0.00    -0.235 N 
HETATM    3  N   UNK N   1      27.276  17.660   6.990  0.00  0.00    -0.235 N 
ATOM      4  HN  UNK N   1      27.583  17.335   6.073  1.00  0.00     0.174 HD
HETATM    5  C   UNK N   1      31.966  17.851   8.432  0.00  0.00     0.059 A 
HETATM    6  C   UNK N   1      30.475  18.039   8.719  0.00  0.00     0.146 A 
HETATM    7  C   UNK N   1      29.928  17.274   6.328  0.00  0.00     0.180 A 
HETATM    8  C   UNK N   1      32.344  17.374   7.074  0.00  0.00    -0.049 A 
HETATM    9  C   UNK N   1      31.386  17.105   6.089  0.00  0.00    -0.033 A 
HETATM   10  C   UNK N   1      33.701  17.193   6.784  0.00  0.00     0.008 A 
HETATM   11  C   UNK N   1      31.791  16.658   4.828  0.00  0.00     0.009 A 
HETATM   12  C   UNK N   1      28.142  17.911   7.903  0.00  0.00     0.667 C 
HETATM   13  C   UNK N   1      34.102  16.747   5.521  0.00  0.00     0.001 A 
HETATM   14  C   UNK N   1      33.145  16.479   4.542  0.00  0.00     0.001 A 
HETATM   15  H   UNK N   1      28.350  18.558   9.879  0.00  0.00     0.174 HD
HETATM   16  H   UNK N   1      26.735  18.478   9.339  0.00  0.00     0.174 HD
HETATM   17  H   UNK N   1      26.317  17.780   7.173  0.00  0.00     0.174 HD
ENDROOT
TORSDOF 0
ENDMDL
MODEL 5
REMARK VINA RESULT:      -5.4     10.361     12.428
REMARK  0 active torsions:
REMARK  status: ('A' for Active; 'I' for Inactive)
REMARK       I    between atoms: N_1  and  C_12 
REMARK       I    between atoms: N_2  and  C_12 
ROOT
HETATM    1  N   UNK N   1      30.237  17.560   7.910  0.00  0.00    -0.214 N 
HETATM    2  N   UNK N   1      29.550  17.920  10.252  0.00  0.00    -0.235 N 
HETATM    3  N   UNK N   1      27.976  17.587   8.569  0.00  0.00    -0.235 N 
ATOM      4  HN  UNK N   1      27.719  17.419   7.597  1.00  0.00     0.174 HD
HETATM    5  C   UNK N   1      32.711  17.543   7.269  0.00  0.00     0.059 A 
HETATM    6  C   UNK N   1      31.624  17.679   8.337  0.00  0.00     0.146 A 
HETATM    7  C   UNK N   1      29.826  17.320   6.538  0.00  0.00     0.180 A 
HETATM    8  C   UNK N   1      32.266  17.298   5.871  0.00  0.00    -0.049 A 
HETATM    9  C   UNK N   1      30.912  17.194   5.531  0.00  0.00    -0.033 A 
HETATM   10  C   UNK N   1      33.241  17.169   4.874  0.00  0.00     0.008 A 
HETATM   11  C   UNK N   1      30.544  16.963   4.202  0.00  0.00     0.009 A 
HETATM   12  C   UNK N   1      29.213  17.685   8.898  0.00  0.00     0.667 C 
HETATM   13  C   UNK N   1      32.868  16.938   3.547  0.00  0.00     0.001 A 
HETATM   14  C   UNK N   1      31.518  16.835   3.211  0.00  0.00     0.001 A 
HETATM   15  H   UNK N   1      30.495  17.997  10.518  0.00  0.00     0.174 HD
HETATM   16  H   UNK N   1      28.840  18.005  10.928  0.00  0.00     0.174 HD
HETATM   17  H   UNK N   1      27.276  17.675   9.255  0.00  0.00     0.174 HD
ENDROOT
TORSDOF 0
ENDMDL
MODEL 6
REMARK VINA RESULT:      -5.3     10.429     11.773
REMARK  0 active torsions:
REMARK  status: ('A' for Active; 'I' for Inactive)
REMARK       I    between atoms: N_1  and  C_12 
REMARK       I    between atoms: N_2  and  C_12 
ROOT
HETATM    1  N   UNK N   1      29.091  17.007   7.203  0.00  0.00    -0.214 N 
HETATM    2  N   UNK N   1      26.685  16.556   6.900  0.00  0.00    -0.235 N 
HETATM    3  N   UNK N   1      27.517  17.364   8.918  0.00  0.00    -0.235 N 
ATOM      4  HN  UNK N   1      28.281  17.678   9.516  1.00  0.00     0.174 HD
HETATM    5  C   UNK N   1      30.741  16.595   5.295  0.00  0.00     0.059 A 
HETATM    6  C   UNK N   1      29.308  16.570   5.831  0.00  0.00     0.146 A 
HETATM    7  C   UNK N   1      30.148  17.462   8.089  0.00  0.00     0.180 A 
HETATM    8  C   UNK N   1      31.807  17.064   6.220  0.00  0.00    -0.049 A 
HETATM    9  C   UNK N   1      31.526  17.470   7.530  0.00  0.00    -0.033 A 
HETATM   10  C   UNK N   1      33.126  17.097   5.755  0.00  0.00     0.008 A 
HETATM   11  C   UNK N   1      32.562  17.904   8.362  0.00  0.00     0.009 A 
HETATM   12  C   UNK N   1      27.758  16.989   7.715  0.00  0.00     0.667 C 
HETATM   13  C   UNK N   1      34.160  17.531   6.590  0.00  0.00     0.001 A 
HETATM   14  C   UNK N   1      33.877  17.935   7.896  0.00  0.00     0.001 A 
HETATM   15  H   UNK N   1      26.854  16.265   5.975  0.00  0.00     0.174 HD
HETATM   16  H   UNK N   1      25.768  16.546   7.259  0.00  0.00     0.174 HD
HETATM   17  H   UNK N   1      26.596  17.349   9.264  0.00  0.00     0.174 HD
ENDROOT
TORSDOF 0
ENDMDL
MODEL 7
REMARK VINA RESULT:      -5.3      1.701      2.683
REMARK  0 active torsions:
REMARK  status: ('A' for Active; 'I' for Inactive)
REMARK       I    between atoms: N_1  and  C_12 
REMARK       I    between atoms: N_2  and  C_12 
ROOT
HETATM    1  N   UNK N   1      35.534  13.736  13.149  0.00  0.00    -0.214 N 
HETATM    2  N   UNK N   1      36.071  15.606  11.634  0.00  0.00    -0.235 N 
HETATM    3  N   UNK N   1      34.538  13.963  11.028  0.00  0.00    -0.235 N 
ATOM      4  HN  UNK N   1      34.014  13.108  11.212  1.00  0.00     0.174 HD
HETATM    5  C   UNK N   1      36.656  13.555  15.439  0.00  0.00     0.059 A 
HETATM    6  C   UNK N   1      36.471  14.296  14.113  0.00  0.00     0.146 A 
HETATM    7  C   UNK N   1      34.768  12.522  13.371  0.00  0.00     0.180 A 
HETATM    8  C   UNK N   1      35.860  12.314  15.643  0.00  0.00    -0.049 A 
HETATM    9  C   UNK N   1      34.976  11.832  14.671  0.00  0.00    -0.033 A 
HETATM   10  C   UNK N   1      36.010  11.617  16.848  0.00  0.00     0.008 A 
HETATM   11  C   UNK N   1      34.251  10.661  14.910  0.00  0.00     0.009 A 
HETATM   12  C   UNK N   1      35.353  14.418  11.908  0.00  0.00     0.667 C 
HETATM   13  C   UNK N   1      35.283  10.447  17.083  0.00  0.00     0.001 A 
HETATM   14  C   UNK N   1      34.402   9.968  16.112  0.00  0.00     0.001 A 
HETATM   15  H   UNK N   1      36.700  15.967  12.300  0.00  0.00     0.174 HD
HETATM   16  H   UNK N   1      35.942  16.072  10.776  0.00  0.00     0.174 HD
HETATM   17  H   UNK N   1      34.419  14.438  10.174  0.00  0.00     0.174 HD
ENDROOT
TORSDOF 0
ENDMDL
MODEL 8
REMARK VINA RESULT:      -5.2     14.807     15.362
REMARK  0 active torsions:
REMARK  status: ('A' for Active; 'I' for Inactive)
REMARK       I    between atoms: N_1  and  C_12 
REMARK       I    between atoms: N_2  and  C_12 
ROOT
HETATM    1  N   UNK N   1      21.879  14.647   7.770  0.00  0.00    -0.214 N 
HETATM    2  N   UNK N   1      20.600  15.981   6.136  0.00  0.00    -0.235 N 
HETATM    3  N   UNK N   1      22.875  15.580   5.850  0.00  0.00    -0.235 N 
ATOM      4  HN  UNK N   1      23.762  15.172   6.146  1.00  0.00     0.174 HD
HETATM    5  C   UNK N   1      20.729  13.666   9.831  0.00  0.00     0.059 A 
HETATM    6  C   UNK N   1      20.654  14.483   8.540  0.00  0.00     0.146 A 
HETATM    7  C   UNK N   1      23.162  14.085   8.153  0.00  0.00     0.180 A 
HETATM    8  C   UNK N   1      22.054  13.100  10.203  0.00  0.00    -0.049 A 
HETATM    9  C   UNK N   1      23.193  13.298   9.414  0.00  0.00    -0.033 A 
HETATM   10  C   UNK N   1      22.151  12.348  11.380  0.00  0.00     0.008 A 
HETATM   11  C   UNK N   1      24.416  12.745   9.806  0.00  0.00     0.009 A 
HETATM   12  C   UNK N   1      21.821  15.408   6.562  0.00  0.00     0.667 C 
HETATM   13  C   UNK N   1      23.376  11.797  11.768  0.00  0.00     0.001 A 
HETATM   14  C   UNK N   1      24.510  11.996  10.980  0.00  0.00     0.001 A 
HETATM   15  H   UNK N   1      19.784  15.857   6.672  0.00  0.00     0.174 HD
HETATM   16  H   UNK N   1      20.567  16.504   5.303  0.00  0.00     0.174 HD
HETATM   17  H   UNK N   1      22.828  16.105   5.019  0.00  0.00     0.174 HD
ENDROOT
TORSDOF 0
ENDMDL
MODEL 9
REMARK VINA RESULT:      -5.2      1.854      2.971
REMARK  0 active torsions:
REMARK  status: ('A' for Active; 'I' for Inactive)
REMARK       I    between atoms: N_1  and  C_12 
REMARK       I    between atoms: N_2  and  C_12 
ROOT
HETATM    1  N   UNK N   1      34.718  11.630  14.847  0.00  0.00    -0.214 N 
HETATM    2  N   UNK N   1      34.568  12.487  12.539  0.00  0.00    -0.235 N 
HETATM    3  N   UNK N   1      34.183  10.243  13.022  0.00  0.00    -0.235 N 
ATOM      4  HN  UNK N   1      34.117   9.460  13.672  1.00  0.00     0.174 HD
HETATM    5  C   UNK N   1      35.305  13.198  16.779  0.00  0.00     0.059 A 
HETATM    6  C   UNK N   1      35.052  12.979  15.287  0.00  0.00     0.146 A 
HETATM    7  C   UNK N   1      34.613  10.488  15.738  0.00  0.00     0.180 A 
HETATM    8  C   UNK N   1      35.191  12.013  17.672  0.00  0.00    -0.049 A 
HETATM    9  C   UNK N   1      34.866  10.743  17.180  0.00  0.00    -0.033 A 
HETATM   10  C   UNK N   1      35.417  12.186  19.042  0.00  0.00     0.008 A 
HETATM   11  C   UNK N   1      34.771   9.660  18.059  0.00  0.00     0.009 A 
HETATM   12  C   UNK N   1      34.480  11.413  13.456  0.00  0.00     0.667 C 
HETATM   13  C   UNK N   1      35.321  11.100  19.917  0.00  0.00     0.001 A 
HETATM   14  C   UNK N   1      34.998   9.835  19.425  0.00  0.00     0.001 A 
HETATM   15  H   UNK N   1      34.794  13.390  12.858  0.00  0.00     0.174 HD
HETATM   16  H   UNK N   1      34.402  12.331  11.581  0.00  0.00     0.174 HD
HETATM   17  H   UNK N   1      34.020  10.100  12.062  0.00  0.00     0.174 HD
ENDROOT
TORSDOF 0
ENDMDL
