REMARK  6 active torsions:
REMARK  status: ('A' for Active; 'I' for Inactive)
REMARK    1  A    between atoms: N_3  and  C_7 
REMARK    2  A    between atoms: N_4  and  C_10 
REMARK    3  A    between atoms: C_7  and  C_11 
REMARK    4  A    between atoms: C_7  and  C_12 
REMARK    5  A    between atoms: C_10  and  C_13 
REMARK    6  A    between atoms: C_22  and  C_25 
ROOT
HETATM    1  N   UNK N   1       4.441  -1.410  -0.685  0.00  0.00     0.105 N 
HETATM    2  N   UNK N   1       3.241   0.916   0.630  0.00  0.00     0.095 N 
HETATM    3  C   UNK N   1       3.128  -0.874  -1.098  0.00  0.00     0.304 C 
HETATM    4  C   UNK N   1       5.245  -0.320  -0.128  0.00  0.00     0.304 C 
HETATM    5  C   UNK N   1       2.403  -0.130   0.037  0.00  0.00     0.303 C 
HETATM    6  C   UNK N   1       4.529   0.343   1.056  0.00  0.00     0.303 C 
ENDROOT
BRANCH   1   7
HETATM    7  C   UNK N   1       4.409  -2.532   0.284  0.00  0.00     0.289 C 
BRANCH   7   8
HETATM    8  C   UNK N   1       3.169  -3.388   0.172  0.00  0.00    -0.021 A 
HETATM    9  C   UNK N   1       2.886  -4.130  -0.986  0.00  0.00     0.012 A 
HETATM   10  C   UNK N   1       1.716  -4.890  -1.062  0.00  0.00     0.043 A 
HETATM   11  C   UNK N   1       0.819  -4.905   0.012  0.00  0.00     0.116 A 
HETATM   12  F   UNK N   1      -0.318  -5.636  -0.063  0.00  0.00    -0.206 F 
HETATM   13  C   UNK N   1       1.095  -4.162   1.163  0.00  0.00     0.043 A 
HETATM   14  C   UNK N   1       2.267  -3.407   1.242  0.00  0.00     0.012 A 
ENDBRANCH   7   8
BRANCH   7  15
HETATM   15  C   UNK N   1       5.720  -3.312   0.238  0.00  0.00    -0.021 A 
HETATM   16  C   UNK N   1       6.928  -2.644   0.496  0.00  0.00     0.012 A 
HETATM   17  C   UNK N   1       8.147  -3.323   0.442  0.00  0.00     0.043 A 
HETATM   18  C   UNK N   1       8.173  -4.683   0.134  0.00  0.00     0.116 A 
HETATM   19  F   UNK N   1       9.357  -5.340   0.075  0.00  0.00    -0.206 F 
HETATM   20  C   UNK N   1       6.980  -5.366  -0.113  0.00  0.00     0.043 A 
HETATM   21  C   UNK N   1       5.758  -4.686  -0.060  0.00  0.00     0.012 A 
ENDBRANCH   7  15
ENDBRANCH   1   7
BRANCH   2  22
HETATM   22  C   UNK N   1       3.317   2.093  -0.265  0.00  0.00     0.300 C 
BRANCH  22  23
HETATM   23  C   UNK N   1       4.716   2.589  -0.488  0.00  0.00     0.004 C 
HETATM   24  C   UNK N   1       5.143   3.756  -0.013  0.00  0.00     0.009 C 
BRANCH  24  25
HETATM   25  C   UNK N   1       6.565   4.131  -0.117  0.00  0.00    -0.036 A 
HETATM   26  C   UNK N   1       6.981   5.385   0.340  0.00  0.00     0.011 A 
HETATM   27  C   UNK N   1       8.333   5.740   0.283  0.00  0.00     0.001 A 
HETATM   28  C   UNK N   1       9.275   4.839  -0.224  0.00  0.00     0.000 A 
HETATM   29  C   UNK N   1       8.867   3.583  -0.678  0.00  0.00     0.001 A 
HETATM   30  C   UNK N   1       7.517   3.228  -0.625  0.00  0.00     0.011 A 
ENDBRANCH  24  25
ENDBRANCH  22  23
ENDBRANCH   2  22
TORSDOF 6
