MODEL 1
REMARK VINA RESULT:      -7.8      0.000      0.000
REMARK  6 active torsions:
REMARK  status: ('A' for Active; 'I' for Inactive)
REMARK    1  A    between atoms: N_3  and  C_7 
REMARK    2  A    between atoms: N_4  and  C_10 
REMARK    3  A    between atoms: C_7  and  C_11 
REMARK    4  A    between atoms: C_7  and  C_12 
REMARK    5  A    between atoms: C_10  and  C_13 
REMARK    6  A    between atoms: C_22  and  C_25 
ROOT
HETATM    1  N   UNK N   1      21.413  17.090   5.166  0.00  0.00     0.105 N 
HETATM    2  N   UNK N   1      21.028  14.628   6.705  0.00  0.00     0.095 N 
HETATM    3  C   UNK N   1      20.084  16.460   5.306  0.00  0.00     0.304 C 
HETATM    4  C   UNK N   1      22.219  16.766   6.344  0.00  0.00     0.304 C 
HETATM    5  C   UNK N   1      20.166  14.945   5.562  0.00  0.00     0.303 C 
HETATM    6  C   UNK N   1      22.352  15.247   6.520  0.00  0.00     0.303 C 
ENDROOT
BRANCH   1   7
HETATM    7  C   UNK N   1      22.175  16.735   3.945  0.00  0.00     0.289 C 
BRANCH   7   8
HETATM    8  C   UNK N   1      21.315  16.638   2.706  0.00  0.00    -0.021 A 
HETATM    9  C   UNK N   1      20.558  17.728   2.245  0.00  0.00     0.012 A 
HETATM   10  C   UNK N   1      19.755  17.592   1.110  0.00  0.00     0.043 A 
HETATM   11  C   UNK N   1      19.694  16.367   0.437  0.00  0.00     0.116 A 
HETATM   12  F   UNK N   1      18.911  16.233  -0.659  0.00  0.00    -0.206 F 
HETATM   13  C   UNK N   1      20.441  15.279   0.897  0.00  0.00     0.043 A 
HETATM   14  C   UNK N   1      21.249  15.416   2.028  0.00  0.00     0.012 A 
ENDBRANCH   7   8
BRANCH   7  15
HETATM   15  C   UNK N   1      23.394  17.641   3.796  0.00  0.00    -0.021 A 
HETATM   16  C   UNK N   1      24.671  17.065   3.693  0.00  0.00     0.012 A 
HETATM   17  C   UNK N   1      25.810  17.865   3.577  0.00  0.00     0.043 A 
HETATM   18  C   UNK N   1      25.685  19.254   3.557  0.00  0.00     0.116 A 
HETATM   19  F   UNK N   1      26.791  20.030   3.451  0.00  0.00    -0.206 F 
HETATM   20  C   UNK N   1      24.422  19.843   3.646  0.00  0.00     0.043 A 
HETATM   21  C   UNK N   1      23.280  19.042   3.763  0.00  0.00     0.012 A 
ENDBRANCH   7  15
ENDBRANCH   1   7
BRANCH   2  22
HETATM   22  C   UNK N   1      20.339  14.935   7.979  0.00  0.00     0.300 C 
BRANCH  22  23
HETATM   23  C   UNK N   1      21.032  14.375   9.187  0.00  0.00     0.004 C 
HETATM   24  C   UNK N   1      21.446  13.113   9.250  0.00  0.00     0.009 C 
BRANCH  24  25
HETATM   25  C   UNK N   1      22.262  12.649  10.387  0.00  0.00    -0.036 A 
HETATM   26  C   UNK N   1      21.630  12.230  11.562  0.00  0.00     0.011 A 
HETATM   27  C   UNK N   1      22.389  11.751  12.635  0.00  0.00     0.001 A 
HETATM   28  C   UNK N   1      23.782  11.683  12.535  0.00  0.00     0.000 A 
HETATM   29  C   UNK N   1      24.420  12.096  11.363  0.00  0.00     0.001 A 
HETATM   30  C   UNK N   1      23.664  12.577  10.291  0.00  0.00     0.011 A 
ENDBRANCH  24  25
ENDBRANCH  22  23
ENDBRANCH   2  22
TORSDOF 6
ENDMDL
MODEL 2
REMARK VINA RESULT:      -7.8      5.967      8.830
REMARK  6 active torsions:
REMARK  status: ('A' for Active; 'I' for Inactive)
REMARK    1  A    between atoms: N_3  and  C_7 
REMARK    2  A    between atoms: N_4  and  C_10 
REMARK    3  A    between atoms: C_7  and  C_11 
REMARK    4  A    between atoms: C_7  and  C_12 
REMARK    5  A    between atoms: C_10  and  C_13 
REMARK    6  A    between atoms: C_22  and  C_25 
ROOT
HETATM    1  N   UNK N   1      28.182  16.236   4.742  0.00  0.00     0.105 N 
HETATM    2  N   UNK N   1      26.956  15.450   2.201  0.00  0.00     0.095 N 
HETATM    3  C   UNK N   1      26.720  16.279   4.537  0.00  0.00     0.304 C 
HETATM    4  C   UNK N   1      28.751  15.195   3.883  0.00  0.00     0.304 C 
HETATM    5  C   UNK N   1      26.329  16.458   3.060  0.00  0.00     0.303 C 
HETATM    6  C   UNK N   1      28.414  15.452   2.408  0.00  0.00     0.303 C 
ENDROOT
BRANCH   1   7
HETATM    7  C   UNK N   1      28.909  17.507   4.508  0.00  0.00     0.289 C 
BRANCH   7   8
HETATM    8  C   UNK N   1      28.187  18.720   5.047  0.00  0.00    -0.021 A 
HETATM    9  C   UNK N   1      27.666  19.707   4.195  0.00  0.00     0.012 A 
HETATM   10  C   UNK N   1      27.026  20.828   4.732  0.00  0.00     0.043 A 
HETATM   11  C   UNK N   1      26.914  20.973   6.119  0.00  0.00     0.116 A 
HETATM   12  F   UNK N   1      26.300  22.062   6.640  0.00  0.00    -0.206 F 
HETATM   13  C   UNK N   1      27.438  19.995   6.969  0.00  0.00     0.043 A 
HETATM   14  C   UNK N   1      28.071  18.872   6.433  0.00  0.00     0.012 A 
ENDBRANCH   7   8
BRANCH   7  15
HETATM   15  C   UNK N   1      30.360  17.382   4.966  0.00  0.00    -0.021 A 
HETATM   16  C   UNK N   1      30.634  16.977   6.282  0.00  0.00     0.012 A 
HETATM   17  C   UNK N   1      31.949  16.872   6.740  0.00  0.00     0.043 A 
HETATM   18  C   UNK N   1      33.010  17.166   5.882  0.00  0.00     0.116 A 
HETATM   19  F   UNK N   1      34.286  17.071   6.329  0.00  0.00    -0.206 F 
HETATM   20  C   UNK N   1      32.755  17.558   4.566  0.00  0.00     0.043 A 
HETATM   21  C   UNK N   1      31.437  17.665   4.108  0.00  0.00     0.012 A 
ENDBRANCH   7  15
ENDBRANCH   1   7
BRANCH   2  22
HETATM   22  C   UNK N   1      26.280  14.142   2.353  0.00  0.00     0.300 C 
BRANCH  22  23
HETATM   23  C   UNK N   1      24.789  14.213   2.191  0.00  0.00     0.004 C 
HETATM   24  C   UNK N   1      24.193  14.075   1.009  0.00  0.00     0.009 C 
BRANCH  24  25
HETATM   25  C   UNK N   1      22.724  13.992   0.918  0.00  0.00    -0.036 A 
HETATM   26  C   UNK N   1      22.128  12.801   0.493  0.00  0.00     0.011 A 
HETATM   27  C   UNK N   1      20.734  12.695   0.438  0.00  0.00     0.001 A 
HETATM   28  C   UNK N   1      19.931  13.777   0.814  0.00  0.00     0.000 A 
HETATM   29  C   UNK N   1      20.521  14.968   1.243  0.00  0.00     0.001 A 
HETATM   30  C   UNK N   1      21.912  15.077   1.296  0.00  0.00     0.011 A 
ENDBRANCH  24  25
ENDBRANCH  22  23
ENDBRANCH   2  22
TORSDOF 6
ENDMDL
MODEL 3
REMARK VINA RESULT:      -7.6      1.790      2.466
REMARK  6 active torsions:
REMARK  status: ('A' for Active; 'I' for Inactive)
REMARK    1  A    between atoms: N_3  and  C_7 
REMARK    2  A    between atoms: N_4  and  C_10 
REMARK    3  A    between atoms: C_7  and  C_11 
REMARK    4  A    between atoms: C_7  and  C_12 
REMARK    5  A    between atoms: C_10  and  C_13 
REMARK    6  A    between atoms: C_22  and  C_25 
ROOT
HETATM    1  N   UNK N   1      22.375  17.289   5.833  0.00  0.00     0.105 N 
HETATM    2  N   UNK N   1      20.299  15.437   6.749  0.00  0.00     0.095 N 
HETATM    3  C   UNK N   1      21.031  17.760   6.227  0.00  0.00     0.304 C 
HETATM    4  C   UNK N   1      22.685  16.065   6.574  0.00  0.00     0.304 C 
HETATM    5  C   UNK N   1      19.947  16.680   6.057  0.00  0.00     0.303 C 
HETATM    6  C   UNK N   1      21.630  14.982   6.314  0.00  0.00     0.303 C 
ENDROOT
BRANCH   1   7
HETATM    7  C   UNK N   1      22.579  17.044   4.385  0.00  0.00     0.289 C 
BRANCH   7   8
HETATM    8  C   UNK N   1      21.934  18.087   3.502  0.00  0.00    -0.021 A 
HETATM    9  C   UNK N   1      20.853  17.777   2.662  0.00  0.00     0.012 A 
HETATM   10  C   UNK N   1      20.299  18.762   1.841  0.00  0.00     0.043 A 
HETATM   11  C   UNK N   1      20.828  20.057   1.846  0.00  0.00     0.116 A 
HETATM   12  F   UNK N   1      20.297  21.011   1.045  0.00  0.00    -0.206 F 
HETATM   13  C   UNK N   1      21.909  20.367   2.676  0.00  0.00     0.043 A 
HETATM   14  C   UNK N   1      22.459  19.384   3.501  0.00  0.00     0.012 A 
ENDBRANCH   7   8
BRANCH   7  15
HETATM   15  C   UNK N   1      24.056  16.795   4.091  0.00  0.00    -0.021 A 
HETATM   16  C   UNK N   1      25.021  17.661   4.630  0.00  0.00     0.012 A 
HETATM   17  C   UNK N   1      26.379  17.474   4.364  0.00  0.00     0.043 A 
HETATM   18  C   UNK N   1      26.790  16.412   3.559  0.00  0.00     0.116 A 
HETATM   19  F   UNK N   1      28.108  16.235   3.296  0.00  0.00    -0.206 F 
HETATM   20  C   UNK N   1      25.845  15.533   3.026  0.00  0.00     0.043 A 
HETATM   21  C   UNK N   1      24.484  15.721   3.291  0.00  0.00     0.012 A 
ENDBRANCH   7  15
ENDBRANCH   1   7
BRANCH   2  22
HETATM   22  C   UNK N   1      20.106  15.582   8.210  0.00  0.00     0.300 C 
BRANCH  22  23
HETATM   23  C   UNK N   1      21.209  14.970   9.025  0.00  0.00     0.004 C 
HETATM   24  C   UNK N   1      21.143  13.728   9.495  0.00  0.00     0.009 C 
BRANCH  24  25
HETATM   25  C   UNK N   1      22.312  13.113  10.152  0.00  0.00    -0.036 A 
HETATM   26  C   UNK N   1      22.140  12.421  11.354  0.00  0.00     0.011 A 
HETATM   27  C   UNK N   1      23.233  11.800  11.969  0.00  0.00     0.001 A 
HETATM   28  C   UNK N   1      24.499  11.863  11.379  0.00  0.00     0.000 A 
HETATM   29  C   UNK N   1      24.677  12.548  10.176  0.00  0.00     0.001 A 
HETATM   30  C   UNK N   1      23.588  13.172   9.562  0.00  0.00     0.011 A 
ENDBRANCH  24  25
ENDBRANCH  22  23
ENDBRANCH   2  22
TORSDOF 6
ENDMDL
MODEL 4
REMARK VINA RESULT:      -7.4     11.312     14.120
REMARK  6 active torsions:
REMARK  status: ('A' for Active; 'I' for Inactive)
REMARK    1  A    between atoms: N_3  and  C_7 
REMARK    2  A    between atoms: N_4  and  C_10 
REMARK    3  A    between atoms: C_7  and  C_11 
REMARK    4  A    between atoms: C_7  and  C_12 
REMARK    5  A    between atoms: C_10  and  C_13 
REMARK    6  A    between atoms: C_22  and  C_25 
ROOT
HETATM    1  N   UNK N   1      35.753  14.833   9.371  0.00  0.00     0.105 N 
HETATM    2  N   UNK N   1      35.350  13.654  12.021  0.00  0.00     0.095 N 
HETATM    3  C   UNK N   1      35.553  15.669  10.572  0.00  0.00     0.304 C 
HETATM    4  C   UNK N   1      36.372  13.567   9.770  0.00  0.00     0.304 C 
HETATM    5  C   UNK N   1      34.758  14.949  11.675  0.00  0.00     0.303 C 
HETATM    6  C   UNK N   1      35.509  12.836  10.807  0.00  0.00     0.303 C 
ENDROOT
BRANCH   1   7
HETATM    7  C   UNK N   1      34.539  14.546   8.569  0.00  0.00     0.289 C 
BRANCH   7   8
HETATM    8  C   UNK N   1      33.558  15.695   8.532  0.00  0.00    -0.021 A 
HETATM    9  C   UNK N   1      33.952  16.991   8.161  0.00  0.00     0.012 A 
HETATM   10  C   UNK N   1      33.021  18.033   8.163  0.00  0.00     0.043 A 
HETATM   11  C   UNK N   1      31.697  17.790   8.545  0.00  0.00     0.116 A 
HETATM   12  F   UNK N   1      30.796  18.800   8.554  0.00  0.00    -0.206 F 
HETATM   13  C   UNK N   1      31.304  16.502   8.922  0.00  0.00     0.043 A 
HETATM   14  C   UNK N   1      32.232  15.459   8.914  0.00  0.00     0.012 A 
ENDBRANCH   7   8
BRANCH   7  15
HETATM   15  C   UNK N   1      34.924  14.001   7.197  0.00  0.00    -0.021 A 
HETATM   16  C   UNK N   1      34.181  12.947   6.642  0.00  0.00     0.012 A 
HETATM   17  C   UNK N   1      34.518  12.411   5.397  0.00  0.00     0.043 A 
HETATM   18  C   UNK N   1      35.603  12.927   4.688  0.00  0.00     0.116 A 
HETATM   19  F   UNK N   1      35.934  12.402   3.484  0.00  0.00    -0.206 F 
HETATM   20  C   UNK N   1      36.345  13.984   5.220  0.00  0.00     0.043 A 
HETATM   21  C   UNK N   1      36.008  14.521   6.467  0.00  0.00     0.012 A 
ENDBRANCH   7  15
ENDBRANCH   1   7
BRANCH   2  22
HETATM   22  C   UNK N   1      36.567  13.840  12.844  0.00  0.00     0.300 C 
BRANCH  22  23
HETATM   23  C   UNK N   1      36.321  13.712  14.319  0.00  0.00     0.004 C 
HETATM   24  C   UNK N   1      35.607  12.717  14.839  0.00  0.00     0.009 C 
BRANCH  24  25
HETATM   25  C   UNK N   1      35.524  12.540  16.300  0.00  0.00    -0.036 A 
HETATM   26  C   UNK N   1      35.268  13.647  17.114  0.00  0.00     0.011 A 
HETATM   27  C   UNK N   1      35.149  13.488  18.499  0.00  0.00     0.001 A 
HETATM   28  C   UNK N   1      35.278  12.219  19.074  0.00  0.00     0.000 A 
HETATM   29  C   UNK N   1      35.529  11.108  18.266  0.00  0.00     0.001 A 
HETATM   30  C   UNK N   1      35.652  11.266  16.883  0.00  0.00     0.011 A 
ENDBRANCH  24  25
ENDBRANCH  22  23
ENDBRANCH   2  22
TORSDOF 6
ENDMDL
MODEL 5
REMARK VINA RESULT:      -7.4     12.803     18.037
REMARK  6 active torsions:
REMARK  status: ('A' for Active; 'I' for Inactive)
REMARK    1  A    between atoms: N_3  and  C_7 
REMARK    2  A    between atoms: N_4  and  C_10 
REMARK    3  A    between atoms: C_7  and  C_11 
REMARK    4  A    between atoms: C_7  and  C_12 
REMARK    5  A    between atoms: C_10  and  C_13 
REMARK    6  A    between atoms: C_22  and  C_25 
ROOT
HETATM    1  N   UNK N   1      35.150  12.125  13.881  0.00  0.00     0.105 N 
HETATM    2  N   UNK N   1      36.337  12.524  11.233  0.00  0.00     0.095 N 
HETATM    3  C   UNK N   1      35.002  13.397  13.145  0.00  0.00     0.304 C 
HETATM    4  C   UNK N   1      35.306  11.034  12.917  0.00  0.00     0.304 C 
HETATM    5  C   UNK N   1      36.149  13.650  12.152  0.00  0.00     0.303 C 
HETATM    6  C   UNK N   1      36.511  11.278  11.999  0.00  0.00     0.303 C 
ENDROOT
BRANCH   1   7
HETATM    7  C   UNK N   1      36.262  12.068  14.861  0.00  0.00     0.289 C 
BRANCH   7   8
HETATM    8  C   UNK N   1      36.263  13.220  15.838  0.00  0.00    -0.021 A 
HETATM    9  C   UNK N   1      35.392  13.257  16.938  0.00  0.00     0.012 A 
HETATM   10  C   UNK N   1      35.405  14.352  17.805  0.00  0.00     0.043 A 
HETATM   11  C   UNK N   1      36.279  15.420  17.573  0.00  0.00     0.116 A 
HETATM   12  F   UNK N   1      36.288  16.485  18.409  0.00  0.00    -0.206 F 
HETATM   13  C   UNK N   1      37.143  15.389  16.475  0.00  0.00     0.043 A 
HETATM   14  C   UNK N   1      37.135  14.292  15.611  0.00  0.00     0.012 A 
ENDBRANCH   7   8
BRANCH   7  15
HETATM   15  C   UNK N   1      36.326  10.689  15.512  0.00  0.00    -0.021 A 
HETATM   16  C   UNK N   1      37.533   9.972  15.490  0.00  0.00     0.012 A 
HETATM   17  C   UNK N   1      37.621   8.699  16.058  0.00  0.00     0.043 A 
HETATM   18  C   UNK N   1      36.501   8.129  16.663  0.00  0.00     0.116 A 
HETATM   19  F   UNK N   1      36.584   6.891  17.209  0.00  0.00    -0.206 F 
HETATM   20  C   UNK N   1      35.295   8.833  16.706  0.00  0.00     0.043 A 
HETATM   21  C   UNK N   1      35.207  10.108  16.136  0.00  0.00     0.012 A 
ENDBRANCH   7  15
ENDBRANCH   1   7
BRANCH   2  22
HETATM   22  C   UNK N   1      35.276  12.510  10.201  0.00  0.00     0.300 C 
BRANCH  22  23
HETATM   23  C   UNK N   1      34.993  13.862   9.613  0.00  0.00     0.004 C 
HETATM   24  C   UNK N   1      33.759  14.278   9.343  0.00  0.00     0.009 C 
BRANCH  24  25
HETATM   25  C   UNK N   1      33.514  15.668   8.917  0.00  0.00    -0.036 A 
HETATM   26  C   UNK N   1      34.599  16.515   8.676  0.00  0.00     0.011 A 
HETATM   27  C   UNK N   1      34.383  17.825   8.234  0.00  0.00     0.001 A 
HETATM   28  C   UNK N   1      33.081  18.290   8.025  0.00  0.00     0.000 A 
HETATM   29  C   UNK N   1      31.992  17.447   8.260  0.00  0.00     0.001 A 
HETATM   30  C   UNK N   1      32.206  16.140   8.704  0.00  0.00     0.011 A 
ENDBRANCH  24  25
ENDBRANCH  22  23
ENDBRANCH   2  22
TORSDOF 6
ENDMDL
MODEL 6
REMARK VINA RESULT:      -7.4      4.434      7.124
REMARK  6 active torsions:
REMARK  status: ('A' for Active; 'I' for Inactive)
REMARK    1  A    between atoms: N_3  and  C_7 
REMARK    2  A    between atoms: N_4  and  C_10 
REMARK    3  A    between atoms: C_7  and  C_11 
REMARK    4  A    between atoms: C_7  and  C_12 
REMARK    5  A    between atoms: C_10  and  C_13 
REMARK    6  A    between atoms: C_22  and  C_25 
ROOT
HETATM    1  N   UNK N   1      28.229  16.136   6.138  0.00  0.00     0.105 N 
HETATM    2  N   UNK N   1      26.142  14.943   4.465  0.00  0.00     0.095 N 
HETATM    3  C   UNK N   1      26.796  16.268   6.470  0.00  0.00     0.304 C 
HETATM    4  C   UNK N   1      28.432  14.889   5.398  0.00  0.00     0.304 C 
HETATM    5  C   UNK N   1      25.885  16.164   5.234  0.00  0.00     0.303 C 
HETATM    6  C   UNK N   1      27.572  14.857   4.127  0.00  0.00     0.303 C 
ENDROOT
BRANCH   1   7
HETATM    7  C   UNK N   1      28.825  17.257   5.371  0.00  0.00     0.289 C 
BRANCH   7   8
HETATM    8  C   UNK N   1      28.161  18.587   5.638  0.00  0.00    -0.021 A 
HETATM    9  C   UNK N   1      28.011  19.090   6.941  0.00  0.00     0.012 A 
HETATM   10  C   UNK N   1      27.369  20.313   7.150  0.00  0.00     0.043 A 
HETATM   11  C   UNK N   1      26.864  21.035   6.063  0.00  0.00     0.116 A 
HETATM   12  F   UNK N   1      26.236  22.217   6.265  0.00  0.00    -0.206 F 
HETATM   13  C   UNK N   1      27.006  20.533   4.766  0.00  0.00     0.043 A 
HETATM   14  C   UNK N   1      27.653  19.314   4.555  0.00  0.00     0.012 A 
ENDBRANCH   7   8
BRANCH   7  15
HETATM   15  C   UNK N   1      30.342  17.265   5.534  0.00  0.00    -0.021 A 
HETATM   16  C   UNK N   1      31.154  17.485   4.409  0.00  0.00     0.012 A 
HETATM   17  C   UNK N   1      32.546  17.478   4.518  0.00  0.00     0.043 A 
HETATM   18  C   UNK N   1      33.145  17.257   5.758  0.00  0.00     0.116 A 
HETATM   19  F   UNK N   1      34.496  17.245   5.862  0.00  0.00    -0.206 F 
HETATM   20  C   UNK N   1      32.353  17.050   6.890  0.00  0.00     0.043 A 
HETATM   21  C   UNK N   1      30.958  17.055   6.780  0.00  0.00     0.012 A 
ENDBRANCH   7  15
ENDBRANCH   1   7
BRANCH   2  22
HETATM   22  C   UNK N   1      25.563  13.764   5.149  0.00  0.00     0.300 C 
BRANCH  22  23
HETATM   23  C   UNK N   1      24.344  14.082   5.966  0.00  0.00     0.004 C 
HETATM   24  C   UNK N   1      23.966  13.338   7.002  0.00  0.00     0.009 C 
BRANCH  24  25
HETATM   25  C   UNK N   1      22.859  13.774   7.872  0.00  0.00    -0.036 A 
HETATM   26  C   UNK N   1      22.015  14.804   7.447  0.00  0.00     0.011 A 
HETATM   27  C   UNK N   1      20.936  15.203   8.244  0.00  0.00     0.001 A 
HETATM   28  C   UNK N   1      20.694  14.568   9.466  0.00  0.00     0.000 A 
HETATM   29  C   UNK N   1      21.530  13.535   9.895  0.00  0.00     0.001 A 
HETATM   30  C   UNK N   1      22.609  13.137   9.102  0.00  0.00     0.011 A 
ENDBRANCH  24  25
ENDBRANCH  22  23
ENDBRANCH   2  22
TORSDOF 6
ENDMDL
MODEL 7
REMARK VINA RESULT:      -7.3      5.989      9.306
REMARK  6 active torsions:
REMARK  status: ('A' for Active; 'I' for Inactive)
REMARK    1  A    between atoms: N_3  and  C_7 
REMARK    2  A    between atoms: N_4  and  C_10 
REMARK    3  A    between atoms: C_7  and  C_11 
REMARK    4  A    between atoms: C_7  and  C_12 
REMARK    5  A    between atoms: C_10  and  C_13 
REMARK    6  A    between atoms: C_22  and  C_25 
ROOT
HETATM    1  N   UNK N   1      28.402  16.789   3.396  0.00  0.00     0.105 N 
HETATM    2  N   UNK N   1      26.859  14.300   3.351  0.00  0.00     0.095 N 
HETATM    3  C   UNK N   1      28.897  15.579   2.709  0.00  0.00     0.304 C 
HETATM    4  C   UNK N   1      26.937  16.772   3.392  0.00  0.00     0.304 C 
HETATM    5  C   UNK N   1      28.323  14.279   3.300  0.00  0.00     0.303 C 
HETATM    6  C   UNK N   1      26.400  15.502   4.066  0.00  0.00     0.303 C 
ENDROOT
BRANCH   1   7
HETATM    7  C   UNK N   1      28.879  16.988   4.786  0.00  0.00     0.289 C 
BRANCH   7   8
HETATM    8  C   UNK N   1      30.366  16.774   4.947  0.00  0.00    -0.021 A 
HETATM    9  C   UNK N   1      30.881  15.747   5.754  0.00  0.00     0.012 A 
HETATM   10  C   UNK N   1      32.263  15.596   5.899  0.00  0.00     0.043 A 
HETATM   11  C   UNK N   1      33.136  16.475   5.248  0.00  0.00     0.116 A 
HETATM   12  F   UNK N   1      34.474  16.334   5.392  0.00  0.00    -0.206 F 
HETATM   13  C   UNK N   1      32.626  17.503   4.450  0.00  0.00     0.043 A 
HETATM   14  C   UNK N   1      31.245  17.650   4.300  0.00  0.00     0.012 A 
ENDBRANCH   7   8
BRANCH   7  15
HETATM   15  C   UNK N   1      28.370  18.317   5.338  0.00  0.00    -0.021 A 
HETATM   16  C   UNK N   1      28.199  18.467   6.724  0.00  0.00     0.012 A 
HETATM   17  C   UNK N   1      27.715  19.662   7.260  0.00  0.00     0.043 A 
HETATM   18  C   UNK N   1      27.402  20.727   6.416  0.00  0.00     0.116 A 
HETATM   19  F   UNK N   1      26.926  21.884   6.937  0.00  0.00    -0.206 F 
HETATM   20  C   UNK N   1      27.578  20.600   5.036  0.00  0.00     0.043 A 
HETATM   21  C   UNK N   1      28.062  19.402   4.498  0.00  0.00     0.012 A 
ENDBRANCH   7  15
ENDBRANCH   1   7
BRANCH   2  22
HETATM   22  C   UNK N   1      26.288  14.088   2.001  0.00  0.00     0.300 C 
BRANCH  22  23
HETATM   23  C   UNK N   1      24.787  14.058   1.981  0.00  0.00     0.004 C 
HETATM   24  C   UNK N   1      24.088  14.096   0.850  0.00  0.00     0.009 C 
BRANCH  24  25
HETATM   25  C   UNK N   1      22.627  13.903   0.867  0.00  0.00    -0.036 A 
HETATM   26  C   UNK N   1      21.792  14.991   1.138  0.00  0.00     0.011 A 
HETATM   27  C   UNK N   1      20.402  14.832   1.120  0.00  0.00     0.001 A 
HETATM   28  C   UNK N   1      19.842  13.586   0.823  0.00  0.00     0.000 A 
HETATM   29  C   UNK N   1      20.670  12.495   0.546  0.00  0.00     0.001 A 
HETATM   30  C   UNK N   1      22.058  12.652   0.567  0.00  0.00     0.011 A 
ENDBRANCH  24  25
ENDBRANCH  22  23
ENDBRANCH   2  22
TORSDOF 6
ENDMDL
MODEL 8
REMARK VINA RESULT:      -7.3      4.500      6.448
REMARK  6 active torsions:
REMARK  status: ('A' for Active; 'I' for Inactive)
REMARK    1  A    between atoms: N_3  and  C_7 
REMARK    2  A    between atoms: N_4  and  C_10 
REMARK    3  A    between atoms: C_7  and  C_11 
REMARK    4  A    between atoms: C_7  and  C_12 
REMARK    5  A    between atoms: C_10  and  C_13 
REMARK    6  A    between atoms: C_22  and  C_25 
ROOT
HETATM    1  N   UNK N   1      27.906  15.931   5.948  0.00  0.00     0.105 N 
HETATM    2  N   UNK N   1      25.745  14.120   5.155  0.00  0.00     0.095 N 
HETATM    3  C   UNK N   1      26.608  15.913   6.653  0.00  0.00     0.304 C 
HETATM    4  C   UNK N   1      28.159  14.603   5.385  0.00  0.00     0.304 C 
HETATM    5  C   UNK N   1      25.452  15.421   5.764  0.00  0.00     0.303 C 
HETATM    6  C   UNK N   1      27.029  14.182   4.437  0.00  0.00     0.303 C 
ENDROOT
BRANCH   1   7
HETATM    7  C   UNK N   1      28.048  16.946   4.876  0.00  0.00     0.289 C 
BRANCH   7   8
HETATM    8  C   UNK N   1      27.516  18.307   5.262  0.00  0.00    -0.021 A 
HETATM    9  C   UNK N   1      26.569  18.980   4.473  0.00  0.00     0.012 A 
HETATM   10  C   UNK N   1      26.119  20.248   4.849  0.00  0.00     0.043 A 
HETATM   11  C   UNK N   1      26.618  20.854   6.007  0.00  0.00     0.116 A 
HETATM   12  F   UNK N   1      26.188  22.086   6.369  0.00  0.00    -0.206 F 
HETATM   13  C   UNK N   1      27.565  20.189   6.791  0.00  0.00     0.043 A 
HETATM   14  C   UNK N   1      28.011  18.919   6.419  0.00  0.00     0.012 A 
ENDBRANCH   7   8
BRANCH   7  15
HETATM   15  C   UNK N   1      29.477  16.957   4.341  0.00  0.00    -0.021 A 
HETATM   16  C   UNK N   1      29.717  16.577   3.011  0.00  0.00     0.012 A 
HETATM   17  C   UNK N   1      31.015  16.557   2.495  0.00  0.00     0.043 A 
HETATM   18  C   UNK N   1      32.091  16.921   3.304  0.00  0.00     0.116 A 
HETATM   19  F   UNK N   1      33.351  16.894   2.805  0.00  0.00    -0.206 F 
HETATM   20  C   UNK N   1      31.869  17.314   4.626  0.00  0.00     0.043 A 
HETATM   21  C   UNK N   1      30.569  17.335   5.143  0.00  0.00     0.012 A 
ENDBRANCH   7  15
ENDBRANCH   1   7
BRANCH   2  22
HETATM   22  C   UNK N   1      25.608  13.035   6.153  0.00  0.00     0.300 C 
BRANCH  22  23
HETATM   23  C   UNK N   1      24.403  13.179   7.036  0.00  0.00     0.004 C 
HETATM   24  C   UNK N   1      24.047  12.244   7.913  0.00  0.00     0.009 C 
BRANCH  24  25
HETATM   25  C   UNK N   1      22.953  12.495   8.870  0.00  0.00    -0.036 A 
HETATM   26  C   UNK N   1      21.909  13.353   8.513  0.00  0.00     0.011 A 
HETATM   27  C   UNK N   1      20.846  13.570   9.396  0.00  0.00     0.001 A 
HETATM   28  C   UNK N   1      20.819  12.924  10.636  0.00  0.00     0.000 A 
HETATM   29  C   UNK N   1      21.856  12.061  10.997  0.00  0.00     0.001 A 
HETATM   30  C   UNK N   1      22.921  11.846  10.119  0.00  0.00     0.011 A 
ENDBRANCH  24  25
ENDBRANCH  22  23
ENDBRANCH   2  22
TORSDOF 6
ENDMDL
MODEL 9
REMARK VINA RESULT:      -7.3     12.440     17.393
REMARK  6 active torsions:
REMARK  status: ('A' for Active; 'I' for Inactive)
REMARK    1  A    between atoms: N_3  and  C_7 
REMARK    2  A    between atoms: N_4  and  C_10 
REMARK    3  A    between atoms: C_7  and  C_11 
REMARK    4  A    between atoms: C_7  and  C_12 
REMARK    5  A    between atoms: C_10  and  C_13 
REMARK    6  A    between atoms: C_22  and  C_25 
ROOT
HETATM    1  N   UNK N   1      36.842  13.654  12.727  0.00  0.00     0.105 N 
HETATM    2  N   UNK N   1      35.041  13.749  10.419  0.00  0.00     0.095 N 
HETATM    3  C   UNK N   1      37.120  12.893  11.491  0.00  0.00     0.304 C 
HETATM    4  C   UNK N   1      36.064  14.846  12.386  0.00  0.00     0.304 C 
HETATM    5  C   UNK N   1      35.845  12.556  10.699  0.00  0.00     0.303 C 
HETATM    6  C   UNK N   1      34.759  14.467  11.674  0.00  0.00     0.303 C 
ENDROOT
BRANCH   1   7
HETATM    7  C   UNK N   1      36.144  12.911  13.804  0.00  0.00     0.289 C 
BRANCH   7   8
HETATM    8  C   UNK N   1      36.565  11.464  13.907  0.00  0.00    -0.021 A 
HETATM    9  C   UNK N   1      35.663  10.414  13.671  0.00  0.00     0.012 A 
HETATM   10  C   UNK N   1      36.084   9.087  13.801  0.00  0.00     0.043 A 
HETATM   11  C   UNK N   1      37.401   8.804  14.177  0.00  0.00     0.116 A 
HETATM   12  F   UNK N   1      37.808   7.519  14.310  0.00  0.00    -0.206 F 
HETATM   13  C   UNK N   1      38.299   9.847  14.420  0.00  0.00     0.043 A 
HETATM   14  C   UNK N   1      37.881  11.173  14.284  0.00  0.00     0.012 A 
ENDBRANCH   7   8
BRANCH   7  15
HETATM   15  C   UNK N   1      36.217  13.685  15.117  0.00  0.00    -0.021 A 
HETATM   16  C   UNK N   1      35.363  13.330  16.174  0.00  0.00     0.012 A 
HETATM   17  C   UNK N   1      35.390  14.030  17.382  0.00  0.00     0.043 A 
HETATM   18  C   UNK N   1      36.278  15.093  17.551  0.00  0.00     0.116 A 
HETATM   19  F   UNK N   1      36.299  15.776  18.721  0.00  0.00    -0.206 F 
HETATM   20  C   UNK N   1      37.143  15.451  16.515  0.00  0.00     0.043 A 
HETATM   21  C   UNK N   1      37.116  14.751  15.303  0.00  0.00     0.012 A 
ENDBRANCH   7  15
ENDBRANCH   1   7
BRANCH   2  22
HETATM   22  C   UNK N   1      35.655  14.549   9.336  0.00  0.00     0.300 C 
BRANCH  22  23
HETATM   23  C   UNK N   1      34.682  14.970   8.273  0.00  0.00     0.004 C 
HETATM   24  C   UNK N   1      34.024  16.125   8.326  0.00  0.00     0.009 C 
BRANCH  24  25
HETATM   25  C   UNK N   1      33.202  16.571   7.187  0.00  0.00    -0.036 A 
HETATM   26  C   UNK N   1      33.825  17.116   6.060  0.00  0.00     0.011 A 
HETATM   27  C   UNK N   1      33.060  17.508   4.956  0.00  0.00     0.001 A 
HETATM   28  C   UNK N   1      31.671  17.349   4.972  0.00  0.00     0.000 A 
HETATM   29  C   UNK N   1      31.042  16.801   6.092  0.00  0.00     0.001 A 
HETATM   30  C   UNK N   1      31.804  16.412   7.197  0.00  0.00     0.011 A 
ENDBRANCH  24  25
ENDBRANCH  22  23
ENDBRANCH   2  22
TORSDOF 6
ENDMDL
