MODEL 1
REMARK VINA RESULT:      -7.8      0.000      0.000
REMARK  7 active torsions:
REMARK  status: ('A' for Active; 'I' for Inactive)
REMARK    1  A    between atoms: N_4  and  C_15 
REMARK    2  A    between atoms: N_5  and  C_14 
REMARK    3  A    between atoms: C_14  and  C_16 
REMARK    4  A    between atoms: C_16  and  C_17 
REMARK    5  A    between atoms: C_17  and  C_18 
REMARK    6  A    between atoms: C_18  and  C_21 
REMARK    7  A    between atoms: C_18  and  C_22 
ROOT
HETATM    1  O   UNK N   1      31.443  19.868  -5.495  0.00  0.00    -0.271 OA
HETATM    2  N   UNK N   1      30.681  22.908  -4.053  0.00  0.00    -0.346 N 
HETATM    3  N   UNK N   1      29.805  23.843  -7.324  0.00  0.00     0.088 N 
HETATM    4  N   UNK N   1      31.433  20.841  -3.479  0.00  0.00    -0.343 N 
HETATM    5  C   UNK N   1      30.731  22.153  -5.317  0.00  0.00     0.118 A 
HETATM    6  C   UNK N   1      29.331  21.928  -5.931  0.00  0.00     0.071 C 
HETATM    7  C   UNK N   1      31.780  22.704  -6.311  0.00  0.00     0.071 C 
HETATM    8  C   UNK N   1      29.176  22.532  -7.326  0.00  0.00     0.275 C 
HETATM    9  C   UNK N   1      31.269  23.761  -7.304  0.00  0.00     0.275 C 
HETATM   10  C   UNK N   1      31.229  20.850  -4.799  0.00  0.00     0.247 A 
HETATM   11  C   UNK N   1      31.111  22.117  -2.913  0.00  0.00     0.250 A 
HETATM   12  H   UNK N   1      31.760  20.066  -2.967  0.00  0.00     0.164 HD
ENDROOT
BRANCH   3  13
HETATM   13  C   UNK N   1      29.262  24.765  -8.323  0.00  0.00     0.272 C 
BRANCH  13  14
HETATM   14  C   UNK N   1      28.678  26.027  -7.718  0.00  0.00     0.031 C 
BRANCH  14  15
HETATM   15  C   UNK N   1      27.502  26.486  -8.544  0.00  0.00     0.016 C 
BRANCH  15  16
HETATM   16  C   UNK N   1      26.236  26.405  -7.712  0.00  0.00     0.051 C 
BRANCH  16  17
HETATM   17  C   UNK N   1      26.355  27.366  -6.541  0.00  0.00    -0.049 A 
HETATM   18  C   UNK N   1      27.326  28.376  -6.474  0.00  0.00     0.011 A 
HETATM   19  C   UNK N   1      27.368  29.247  -5.380  0.00  0.00     0.043 A 
HETATM   20  C   UNK N   1      26.439  29.117  -4.344  0.00  0.00     0.116 A 
HETATM   21  F   UNK N   1      26.472  29.965  -3.289  0.00  0.00    -0.206 F 
HETATM   22  C   UNK N   1      25.476  28.111  -4.394  0.00  0.00     0.043 A 
HETATM   23  C   UNK N   1      25.437  27.241  -5.484  0.00  0.00     0.011 A 
ENDBRANCH  16  17
BRANCH  16  24
HETATM   24  C   UNK N   1      25.913  24.937  -7.517  0.00  0.00    -0.049 A 
HETATM   25  C   UNK N   1      25.531  24.194  -8.648  0.00  0.00     0.011 A 
HETATM   26  C   UNK N   1      25.247  22.831  -8.546  0.00  0.00     0.043 A 
HETATM   27  C   UNK N   1      25.339  22.194  -7.308  0.00  0.00     0.116 A 
HETATM   28  F   UNK N   1      25.069  20.870  -7.209  0.00  0.00    -0.206 F 
HETATM   29  C   UNK N   1      25.711  22.921  -6.173  0.00  0.00     0.043 A 
HETATM   30  C   UNK N   1      25.997  24.286  -6.278  0.00  0.00     0.011 A 
ENDBRANCH  16  24
ENDBRANCH  15  16
ENDBRANCH  14  15
ENDBRANCH  13  14
ENDBRANCH   3  13
BRANCH   2  31
HETATM   31  C   UNK N   1      30.280  24.277  -3.880  0.00  0.00     0.032 A 
HETATM   32  C   UNK N   1      28.944  24.673  -3.977  0.00  0.00     0.029 A 
HETATM   33  C   UNK N   1      28.565  26.008  -3.825  0.00  0.00     0.002 A 
HETATM   34  C   UNK N   1      29.532  26.978  -3.570  0.00  0.00     0.000 A 
HETATM   35  C   UNK N   1      30.874  26.605  -3.462  0.00  0.00     0.002 A 
HETATM   36  C   UNK N   1      31.246  25.265  -3.614  0.00  0.00     0.029 A 
ENDBRANCH   2  31
TORSDOF 7
ENDMDL
MODEL 2
REMARK VINA RESULT:      -7.7      3.679      7.465
REMARK  7 active torsions:
REMARK  status: ('A' for Active; 'I' for Inactive)
REMARK    1  A    between atoms: N_4  and  C_15 
REMARK    2  A    between atoms: N_5  and  C_14 
REMARK    3  A    between atoms: C_14  and  C_16 
REMARK    4  A    between atoms: C_16  and  C_17 
REMARK    5  A    between atoms: C_17  and  C_18 
REMARK    6  A    between atoms: C_18  and  C_21 
REMARK    7  A    between atoms: C_18  and  C_22 
ROOT
HETATM    1  O   UNK N   1      25.236  28.058  -3.127  0.00  0.00    -0.271 OA
HETATM    2  N   UNK N   1      28.476  27.217  -3.960  0.00  0.00    -0.346 N 
HETATM    3  N   UNK N   1      26.960  24.644  -5.810  0.00  0.00     0.088 N 
HETATM    4  N   UNK N   1      27.328  28.767  -2.759  0.00  0.00    -0.343 N 
HETATM    5  C   UNK N   1      27.058  26.856  -4.126  0.00  0.00     0.118 A 
HETATM    6  C   UNK N   1      26.569  27.016  -5.583  0.00  0.00     0.071 C 
HETATM    7  C   UNK N   1      26.699  25.497  -3.480  0.00  0.00     0.071 C 
HETATM    8  C   UNK N   1      26.056  25.715  -6.197  0.00  0.00     0.275 C 
HETATM    9  C   UNK N   1      26.814  24.270  -4.400  0.00  0.00     0.275 C 
HETATM   10  C   UNK N   1      26.439  27.932  -3.304  0.00  0.00     0.247 A 
HETATM   11  C   UNK N   1      28.661  28.388  -3.122  0.00  0.00     0.250 A 
HETATM   12  H   UNK N   1      27.098  29.535  -2.188  0.00  0.00     0.164 HD
ENDROOT
BRANCH   3  13
HETATM   13  C   UNK N   1      26.976  23.514  -6.740  0.00  0.00     0.272 C 
BRANCH  13  14
HETATM   14  C   UNK N   1      28.369  23.144  -7.209  0.00  0.00     0.031 C 
BRANCH  14  15
HETATM   15  C   UNK N   1      28.919  22.040  -6.340  0.00  0.00     0.016 C 
BRANCH  15  16
HETATM   16  C   UNK N   1      30.327  21.695  -6.789  0.00  0.00     0.051 C 
BRANCH  16  17
HETATM   17  C   UNK N   1      30.255  20.581  -7.820  0.00  0.00    -0.049 A 
HETATM   18  C   UNK N   1      29.810  19.286  -7.520  0.00  0.00     0.011 A 
HETATM   19  C   UNK N   1      29.742  18.310  -8.520  0.00  0.00     0.043 A 
HETATM   20  C   UNK N   1      30.117  18.621  -9.830  0.00  0.00     0.116 A 
HETATM   21  F   UNK N   1      30.042  17.681 -10.802  0.00  0.00    -0.206 F 
HETATM   22  C   UNK N   1      30.571  19.903 -10.139  0.00  0.00     0.043 A 
HETATM   23  C   UNK N   1      30.641  20.874  -9.140  0.00  0.00     0.011 A 
ENDBRANCH  16  17
BRANCH  16  24
HETATM   24  C   UNK N   1      31.186  21.584  -5.545  0.00  0.00    -0.049 A 
HETATM   25  C   UNK N   1      30.535  21.520  -4.301  0.00  0.00     0.011 A 
HETATM   26  C   UNK N   1      31.263  21.389  -3.118  0.00  0.00     0.043 A 
HETATM   27  C   UNK N   1      32.656  21.324  -3.164  0.00  0.00     0.116 A 
HETATM   28  F   UNK N   1      33.364  21.192  -2.016  0.00  0.00    -0.206 F 
HETATM   29  C   UNK N   1      33.319  21.394  -4.393  0.00  0.00     0.043 A 
HETATM   30  C   UNK N   1      32.587  21.523  -5.578  0.00  0.00     0.011 A 
ENDBRANCH  16  24
ENDBRANCH  15  16
ENDBRANCH  14  15
ENDBRANCH  13  14
ENDBRANCH   3  13
BRANCH   2  31
HETATM   31  C   UNK N   1      29.612  26.533  -4.516  0.00  0.00     0.032 A 
HETATM   32  C   UNK N   1      29.968  26.666  -5.860  0.00  0.00     0.029 A 
HETATM   33  C   UNK N   1      31.061  25.985  -6.397  0.00  0.00     0.002 A 
HETATM   34  C   UNK N   1      31.825  25.151  -5.584  0.00  0.00     0.000 A 
HETATM   35  C   UNK N   1      31.493  25.007  -4.235  0.00  0.00     0.002 A 
HETATM   36  C   UNK N   1      30.396  25.694  -3.703  0.00  0.00     0.029 A 
ENDBRANCH   2  31
TORSDOF 7
ENDMDL
MODEL 3
REMARK VINA RESULT:      -7.6     15.669     18.701
REMARK  7 active torsions:
REMARK  status: ('A' for Active; 'I' for Inactive)
REMARK    1  A    between atoms: N_4  and  C_15 
REMARK    2  A    between atoms: N_5  and  C_14 
REMARK    3  A    between atoms: C_14  and  C_16 
REMARK    4  A    between atoms: C_16  and  C_17 
REMARK    5  A    between atoms: C_17  and  C_18 
REMARK    6  A    between atoms: C_18  and  C_21 
REMARK    7  A    between atoms: C_18  and  C_22 
ROOT
HETATM    1  O   UNK N   1      18.987  18.957   2.639  0.00  0.00    -0.271 OA
HETATM    2  N   UNK N   1      20.884  16.096   2.295  0.00  0.00    -0.346 N 
HETATM    3  N   UNK N   1      21.441  16.473   5.744  0.00  0.00     0.088 N 
HETATM    4  N   UNK N   1      19.587  17.491   1.056  0.00  0.00    -0.343 N 
HETATM    5  C   UNK N   1      20.417  17.125   3.240  0.00  0.00     0.118 A 
HETATM    6  C   UNK N   1      19.484  16.551   4.331  0.00  0.00     0.071 C 
HETATM    7  C   UNK N   1      21.561  18.013   3.784  0.00  0.00     0.071 C 
HETATM    8  C   UNK N   1      20.014  16.753   5.750  0.00  0.00     0.275 C 
HETATM    9  C   UNK N   1      22.216  17.532   5.090  0.00  0.00     0.275 C 
HETATM   10  C   UNK N   1      19.598  17.949   2.311  0.00  0.00     0.247 A 
HETATM   11  C   UNK N   1      20.385  16.306   0.948  0.00  0.00     0.250 A 
HETATM   12  H   UNK N   1      19.098  17.909   0.311  0.00  0.00     0.164 HD
ENDROOT
BRANCH   3  13
HETATM   13  C   UNK N   1      21.969  16.047   7.040  0.00  0.00     0.272 C 
BRANCH  13  14
HETATM   14  C   UNK N   1      22.818  14.793   6.958  0.00  0.00     0.031 C 
BRANCH  14  15
HETATM   15  C   UNK N   1      21.965  13.585   7.254  0.00  0.00     0.016 C 
BRANCH  15  16
HETATM   16  C   UNK N   1      22.857  12.383   7.504  0.00  0.00     0.051 C 
BRANCH  16  17
HETATM   17  C   UNK N   1      22.360  11.219   6.664  0.00  0.00    -0.049 A 
HETATM   18  C   UNK N   1      23.163  10.120   6.324  0.00  0.00     0.011 A 
HETATM   19  C   UNK N   1      22.639   9.066   5.568  0.00  0.00     0.043 A 
HETATM   20  C   UNK N   1      21.307   9.099   5.146  0.00  0.00     0.116 A 
HETATM   21  F   UNK N   1      20.795   8.075   4.424  0.00  0.00    -0.206 F 
HETATM   22  C   UNK N   1      20.501  10.190   5.469  0.00  0.00     0.043 A 
HETATM   23  C   UNK N   1      21.026  11.243   6.220  0.00  0.00     0.011 A 
ENDBRANCH  16  17
BRANCH  16  24
HETATM   24  C   UNK N   1      23.054  12.267   9.002  0.00  0.00    -0.049 A 
HETATM   25  C   UNK N   1      21.908  12.259   9.816  0.00  0.00     0.011 A 
HETATM   26  C   UNK N   1      22.015  12.126  11.201  0.00  0.00     0.043 A 
HETATM   27  C   UNK N   1      23.273  12.003  11.791  0.00  0.00     0.116 A 
HETATM   28  F   UNK N   1      23.377  11.869  13.136  0.00  0.00    -0.206 F 
HETATM   29  C   UNK N   1      24.423  12.015  10.996  0.00  0.00     0.043 A 
HETATM   30  C   UNK N   1      24.314  12.147   9.608  0.00  0.00     0.011 A 
ENDBRANCH  16  24
ENDBRANCH  15  16
ENDBRANCH  14  15
ENDBRANCH  13  14
ENDBRANCH   3  13
BRANCH   2  31
HETATM   31  C   UNK N   1      21.750  14.986   2.586  0.00  0.00     0.032 A 
HETATM   32  C   UNK N   1      23.140  15.119   2.603  0.00  0.00     0.029 A 
HETATM   33  C   UNK N   1      23.975  14.033   2.869  0.00  0.00     0.002 A 
HETATM   34  C   UNK N   1      23.421  12.781   3.126  0.00  0.00     0.000 A 
HETATM   35  C   UNK N   1      22.033  12.624   3.122  0.00  0.00     0.002 A 
HETATM   36  C   UNK N   1      21.203  13.718   2.855  0.00  0.00     0.029 A 
ENDBRANCH   2  31
TORSDOF 7
ENDMDL
MODEL 4
REMARK VINA RESULT:      -7.5      3.355      7.364
REMARK  7 active torsions:
REMARK  status: ('A' for Active; 'I' for Inactive)
REMARK    1  A    between atoms: N_4  and  C_15 
REMARK    2  A    between atoms: N_5  and  C_14 
REMARK    3  A    between atoms: C_14  and  C_16 
REMARK    4  A    between atoms: C_16  and  C_17 
REMARK    5  A    between atoms: C_17  and  C_18 
REMARK    6  A    between atoms: C_18  and  C_21 
REMARK    7  A    between atoms: C_18  and  C_22 
ROOT
HETATM    1  O   UNK N   1      27.654  29.703  -4.329  0.00  0.00    -0.271 OA
HETATM    2  N   UNK N   1      26.191  26.841  -5.580  0.00  0.00    -0.346 N 
HETATM    3  N   UNK N   1      29.387  26.203  -6.893  0.00  0.00     0.088 N 
HETATM    4  N   UNK N   1      25.673  28.660  -4.321  0.00  0.00    -0.343 N 
HETATM    5  C   UNK N   1      27.437  27.623  -5.506  0.00  0.00     0.118 A 
HETATM    6  C   UNK N   1      28.555  26.889  -4.732  0.00  0.00     0.071 C 
HETATM    7  C   UNK N   1      27.879  28.191  -6.875  0.00  0.00     0.071 C 
HETATM    8  C   UNK N   1      29.808  26.635  -5.570  0.00  0.00     0.275 C 
HETATM    9  C   UNK N   1      28.832  27.302  -7.691  0.00  0.00     0.275 C 
HETATM   10  C   UNK N   1      26.958  28.758  -4.671  0.00  0.00     0.247 A 
HETATM   11  C   UNK N   1      25.095  27.464  -4.859  0.00  0.00     0.250 A 
HETATM   12  H   UNK N   1      25.190  29.318  -3.771  0.00  0.00     0.164 HD
ENDROOT
BRANCH   3  13
HETATM   13  C   UNK N   1      30.376  25.384  -7.594  0.00  0.00     0.272 C 
BRANCH  13  14
HETATM   14  C   UNK N   1      29.769  24.191  -8.307  0.00  0.00     0.031 C 
BRANCH  14  15
HETATM   15  C   UNK N   1      29.209  23.226  -7.292  0.00  0.00     0.016 C 
BRANCH  15  16
HETATM   16  C   UNK N   1      30.340  22.420  -6.680  0.00  0.00     0.051 C 
BRANCH  16  17
HETATM   17  C   UNK N   1      30.410  21.069  -7.372  0.00  0.00    -0.049 A 
HETATM   18  C   UNK N   1      31.568  20.588  -8.000  0.00  0.00     0.011 A 
HETATM   19  C   UNK N   1      31.577  19.324  -8.598  0.00  0.00     0.043 A 
HETATM   20  C   UNK N   1      30.428  18.528  -8.573  0.00  0.00     0.116 A 
HETATM   21  F   UNK N   1      30.438  17.299  -9.143  0.00  0.00    -0.206 F 
HETATM   22  C   UNK N   1      29.268  18.998  -7.961  0.00  0.00     0.043 A 
HETATM   23  C   UNK N   1      29.259  20.261  -7.368  0.00  0.00     0.011 A 
ENDBRANCH  16  17
BRANCH  16  24
HETATM   24  C   UNK N   1      30.227  22.547  -5.174  0.00  0.00    -0.049 A 
HETATM   25  C   UNK N   1      29.127  23.254  -4.656  0.00  0.00     0.011 A 
HETATM   26  C   UNK N   1      28.946  23.385  -3.279  0.00  0.00     0.043 A 
HETATM   27  C   UNK N   1      29.866  22.812  -2.400  0.00  0.00     0.116 A 
HETATM   28  F   UNK N   1      29.687  22.935  -1.062  0.00  0.00    -0.206 F 
HETATM   29  C   UNK N   1      30.968  22.113  -2.900  0.00  0.00     0.043 A 
HETATM   30  C   UNK N   1      31.147  21.980  -4.281  0.00  0.00     0.011 A 
ENDBRANCH  16  24
ENDBRANCH  15  16
ENDBRANCH  14  15
ENDBRANCH  13  14
ENDBRANCH   3  13
BRANCH   2  31
HETATM   31  C   UNK N   1      25.990  25.600  -6.279  0.00  0.00     0.032 A 
HETATM   32  C   UNK N   1      25.821  25.552  -7.664  0.00  0.00     0.029 A 
HETATM   33  C   UNK N   1      25.609  24.346  -8.333  0.00  0.00     0.002 A 
HETATM   34  C   UNK N   1      25.564  23.154  -7.614  0.00  0.00     0.000 A 
HETATM   35  C   UNK N   1      25.738  23.175  -6.228  0.00  0.00     0.002 A 
HETATM   36  C   UNK N   1      25.951  24.388  -5.564  0.00  0.00     0.029 A 
ENDBRANCH   2  31
TORSDOF 7
ENDMDL
MODEL 5
REMARK VINA RESULT:      -7.4     15.014     17.826
REMARK  7 active torsions:
REMARK  status: ('A' for Active; 'I' for Inactive)
REMARK    1  A    between atoms: N_4  and  C_15 
REMARK    2  A    between atoms: N_5  and  C_14 
REMARK    3  A    between atoms: C_14  and  C_16 
REMARK    4  A    between atoms: C_16  and  C_17 
REMARK    5  A    between atoms: C_17  and  C_18 
REMARK    6  A    between atoms: C_18  and  C_21 
REMARK    7  A    between atoms: C_18  and  C_22 
ROOT
HETATM    1  O   UNK N   1      20.321  16.263   0.059  0.00  0.00    -0.271 OA
HETATM    2  N   UNK N   1      20.023  16.979   3.421  0.00  0.00    -0.346 N 
HETATM    3  N   UNK N   1      21.305  13.738   3.865  0.00  0.00     0.088 N 
HETATM    4  N   UNK N   1      19.683  17.945   1.393  0.00  0.00    -0.343 N 
HETATM    5  C   UNK N   1      20.416  15.955   2.438  0.00  0.00     0.118 A 
HETATM    6  C   UNK N   1      21.925  15.625   2.492  0.00  0.00     0.071 C 
HETATM    7  C   UNK N   1      19.493  14.713   2.455  0.00  0.00     0.071 C 
HETATM    8  C   UNK N   1      22.215  14.160   2.812  0.00  0.00     0.275 C 
HETATM    9  C   UNK N   1      19.931  13.568   3.382  0.00  0.00     0.275 C 
HETATM   10  C   UNK N   1      20.146  16.710   1.185  0.00  0.00     0.247 A 
HETATM   11  C   UNK N   1      19.569  18.208   2.797  0.00  0.00     0.250 A 
HETATM   12  H   UNK N   1      19.452  18.585   0.681  0.00  0.00     0.164 HD
ENDROOT
BRANCH   3  13
HETATM   13  C   UNK N   1      21.807  12.626   4.674  0.00  0.00     0.272 C 
BRANCH  13  14
HETATM   14  C   UNK N   1      21.229  12.598   6.076  0.00  0.00     0.031 C 
BRANCH  14  15
HETATM   15  C   UNK N   1      21.864  13.686   6.906  0.00  0.00     0.016 C 
BRANCH  15  16
HETATM   16  C   UNK N   1      23.247  13.246   7.347  0.00  0.00     0.051 C 
BRANCH  16  17
HETATM   17  C   UNK N   1      23.185  12.823   8.805  0.00  0.00    -0.049 A 
HETATM   18  C   UNK N   1      24.296  12.335   9.510  0.00  0.00     0.011 A 
HETATM   19  C   UNK N   1      24.182  11.986  10.860  0.00  0.00     0.043 A 
HETATM   20  C   UNK N   1      22.956  12.121  11.518  0.00  0.00     0.116 A 
HETATM   21  F   UNK N   1      22.846  11.793  12.827  0.00  0.00    -0.206 F 
HETATM   22  C   UNK N   1      21.842  12.594  10.826  0.00  0.00     0.043 A 
HETATM   23  C   UNK N   1      21.957  12.940   9.479  0.00  0.00     0.011 A 
ENDBRANCH  16  17
BRANCH  16  24
HETATM   24  C   UNK N   1      24.234  14.285   6.853  0.00  0.00    -0.049 A 
HETATM   25  C   UNK N   1      23.761  15.272   5.970  0.00  0.00     0.011 A 
HETATM   26  C   UNK N   1      24.609  16.275   5.498  0.00  0.00     0.043 A 
HETATM   27  C   UNK N   1      25.944  16.302   5.902  0.00  0.00     0.116 A 
HETATM   28  F   UNK N   1      26.766  17.279   5.448  0.00  0.00    -0.206 F 
HETATM   29  C   UNK N   1      26.431  15.324   6.774  0.00  0.00     0.043 A 
HETATM   30  C   UNK N   1      25.579  14.320   7.248  0.00  0.00     0.011 A 
ENDBRANCH  16  24
ENDBRANCH  15  16
ENDBRANCH  14  15
ENDBRANCH  13  14
ENDBRANCH   3  13
BRANCH   2  31
HETATM   31  C   UNK N   1      20.042  16.853   4.853  0.00  0.00     0.032 A 
HETATM   32  C   UNK N   1      19.084  16.104   5.541  0.00  0.00     0.029 A 
HETATM   33  C   UNK N   1      19.098  16.001   6.932  0.00  0.00     0.002 A 
HETATM   34  C   UNK N   1      20.086  16.655   7.665  0.00  0.00     0.000 A 
HETATM   35  C   UNK N   1      21.059  17.404   7.000  0.00  0.00     0.002 A 
HETATM   36  C   UNK N   1      21.039  17.502   5.604  0.00  0.00     0.029 A 
ENDBRANCH   2  31
TORSDOF 7
ENDMDL
MODEL 6
REMARK VINA RESULT:      -7.2     11.419     14.360
REMARK  7 active torsions:
REMARK  status: ('A' for Active; 'I' for Inactive)
REMARK    1  A    between atoms: N_4  and  C_15 
REMARK    2  A    between atoms: N_5  and  C_14 
REMARK    3  A    between atoms: C_14  and  C_16 
REMARK    4  A    between atoms: C_16  and  C_17 
REMARK    5  A    between atoms: C_17  and  C_18 
REMARK    6  A    between atoms: C_18  and  C_21 
REMARK    7  A    between atoms: C_18  and  C_22 
ROOT
HETATM    1  O   UNK N   1      34.752  15.869   9.940  0.00  0.00    -0.271 OA
HETATM    2  N   UNK N   1      33.769  15.902   6.633  0.00  0.00    -0.346 N 
HETATM    3  N   UNK N   1      30.854  17.416   7.880  0.00  0.00     0.088 N 
HETATM    4  N   UNK N   1      35.533  15.283   7.925  0.00  0.00    -0.343 N 
HETATM    5  C   UNK N   1      33.374  16.244   8.010  0.00  0.00     0.118 A 
HETATM    6  C   UNK N   1      33.218  17.767   8.224  0.00  0.00     0.071 C 
HETATM    7  C   UNK N   1      32.181  15.404   8.526  0.00  0.00     0.071 C 
HETATM    8  C   UNK N   1      31.814  18.177   8.664  0.00  0.00     0.275 C 
HETATM    9  C   UNK N   1      30.787  16.009   8.290  0.00  0.00     0.275 C 
HETATM   10  C   UNK N   1      34.597  15.794   8.729  0.00  0.00     0.247 A 
HETATM   11  C   UNK N   1      35.092  15.309   6.562  0.00  0.00     0.250 A 
HETATM   12  H   UNK N   1      36.404  14.938   8.227  0.00  0.00     0.164 HD
ENDROOT
BRANCH   3  13
HETATM   13  C   UNK N   1      29.552  18.068   7.737  0.00  0.00     0.272 C 
BRANCH  13  14
HETATM   14  C   UNK N   1      29.171  18.335   6.294  0.00  0.00     0.031 C 
BRANCH  14  15
HETATM   15  C   UNK N   1      27.951  17.523   5.935  0.00  0.00     0.016 C 
BRANCH  15  16
HETATM   16  C   UNK N   1      27.791  17.488   4.427  0.00  0.00     0.051 C 
BRANCH  16  17
HETATM   17  C   UNK N   1      26.648  18.408   4.032  0.00  0.00    -0.049 A 
HETATM   18  C   UNK N   1      25.298  18.039   4.128  0.00  0.00     0.011 A 
HETATM   19  C   UNK N   1      24.289  18.941   3.773  0.00  0.00     0.043 A 
HETATM   20  C   UNK N   1      24.621  20.221   3.320  0.00  0.00     0.116 A 
HETATM   21  F   UNK N   1      23.646  21.099   2.986  0.00  0.00    -0.206 F 
HETATM   22  C   UNK N   1      25.959  20.596   3.211  0.00  0.00     0.043 A 
HETATM   23  C   UNK N   1      26.964  19.694   3.563  0.00  0.00     0.011 A 
ENDBRANCH  16  17
BRANCH  16  24
HETATM   24  C   UNK N   1      27.838  16.034   3.999  0.00  0.00    -0.049 A 
HETATM   25  C   UNK N   1      27.970  15.059   5.002  0.00  0.00     0.011 A 
HETATM   26  C   UNK N   1      27.992  13.701   4.681  0.00  0.00     0.043 A 
HETATM   27  C   UNK N   1      27.884  13.301   3.349  0.00  0.00     0.116 A 
HETATM   28  F   UNK N   1      27.900  11.982   3.037  0.00  0.00    -0.206 F 
HETATM   29  C   UNK N   1      27.758  14.259   2.339  0.00  0.00     0.043 A 
HETATM   30  C   UNK N   1      27.735  15.620   2.663  0.00  0.00     0.011 A 
ENDBRANCH  16  24
ENDBRANCH  15  16
ENDBRANCH  14  15
ENDBRANCH  13  14
ENDBRANCH   3  13
BRANCH   2  31
HETATM   31  C   UNK N   1      32.988  16.085   5.440  0.00  0.00     0.032 A 
HETATM   32  C   UNK N   1      32.942  17.310   4.770  0.00  0.00     0.029 A 
HETATM   33  C   UNK N   1      32.167  17.485   3.622  0.00  0.00     0.002 A 
HETATM   34  C   UNK N   1      31.418  16.422   3.123  0.00  0.00     0.000 A 
HETATM   35  C   UNK N   1      31.453  15.186   3.772  0.00  0.00     0.002 A 
HETATM   36  C   UNK N   1      32.233  15.017   4.922  0.00  0.00     0.029 A 
ENDBRANCH   2  31
TORSDOF 7
ENDMDL
MODEL 7
REMARK VINA RESULT:      -7.2     14.172     16.414
REMARK  7 active torsions:
REMARK  status: ('A' for Active; 'I' for Inactive)
REMARK    1  A    between atoms: N_4  and  C_15 
REMARK    2  A    between atoms: N_5  and  C_14 
REMARK    3  A    between atoms: C_14  and  C_16 
REMARK    4  A    between atoms: C_16  and  C_17 
REMARK    5  A    between atoms: C_17  and  C_18 
REMARK    6  A    between atoms: C_18  and  C_21 
REMARK    7  A    between atoms: C_18  and  C_22 
ROOT
HETATM    1  O   UNK N   1      20.860  12.119  10.978  0.00  0.00    -0.271 OA
HETATM    2  N   UNK N   1      23.602  12.627   8.947  0.00  0.00    -0.346 N 
HETATM    3  N   UNK N   1      21.411  14.649   7.088  0.00  0.00     0.088 N 
HETATM    4  N   UNK N   1      23.018  11.533  10.851  0.00  0.00    -0.343 N 
HETATM    5  C   UNK N   1      22.177  12.940   9.146  0.00  0.00     0.118 A 
HETATM    6  C   UNK N   1      21.931  14.438   9.437  0.00  0.00     0.071 C 
HETATM    7  C   UNK N   1      21.266  12.349   8.044  0.00  0.00     0.071 C 
HETATM    8  C   UNK N   1      21.024  15.115   8.411  0.00  0.00     0.275 C 
HETATM    9  C   UNK N   1      20.995  13.265   6.839  0.00  0.00     0.275 C 
HETATM   10  C   UNK N   1      21.937  12.174  10.399  0.00  0.00     0.247 A 
HETATM   11  C   UNK N   1      24.135  11.762   9.984  0.00  0.00     0.250 A 
HETATM   12  H   UNK N   1      23.042  10.980  11.665  0.00  0.00     0.164 HD
ENDROOT
BRANCH   3  13
HETATM   13  C   UNK N   1      21.086  15.584   6.010  0.00  0.00     0.272 C 
BRANCH  13  14
HETATM   14  C   UNK N   1      22.020  16.777   5.950  0.00  0.00     0.031 C 
BRANCH  14  15
HETATM   15  C   UNK N   1      22.393  17.055   4.515  0.00  0.00     0.016 C 
BRANCH  15  16
HETATM   16  C   UNK N   1      23.831  16.635   4.274  0.00  0.00     0.051 C 
BRANCH  16  17
HETATM   17  C   UNK N   1      24.724  17.860   4.368  0.00  0.00    -0.049 A 
HETATM   18  C   UNK N   1      24.366  19.111   3.845  0.00  0.00     0.011 A 
HETATM   19  C   UNK N   1      25.221  20.210   3.986  0.00  0.00     0.043 A 
HETATM   20  C   UNK N   1      26.441  20.067   4.653  0.00  0.00     0.116 A 
HETATM   21  F   UNK N   1      27.266  21.131   4.801  0.00  0.00    -0.206 F 
HETATM   22  C   UNK N   1      26.812  18.827   5.170  0.00  0.00     0.043 A 
HETATM   23  C   UNK N   1      25.960  17.732   5.025  0.00  0.00     0.011 A 
ENDBRANCH  16  17
BRANCH  16  24
HETATM   24  C   UNK N   1      23.841  15.724   3.062  0.00  0.00    -0.049 A 
HETATM   25  C   UNK N   1      22.602  15.344   2.516  0.00  0.00     0.011 A 
HETATM   26  C   UNK N   1      22.538  14.531   1.384  0.00  0.00     0.043 A 
HETATM   27  C   UNK N   1      23.715  14.083   0.784  0.00  0.00     0.116 A 
HETATM   28  F   UNK N   1      23.654  13.297  -0.318  0.00  0.00    -0.206 F 
HETATM   29  C   UNK N   1      24.955  14.446   1.319  0.00  0.00     0.043 A 
HETATM   30  C   UNK N   1      25.017  15.264   2.453  0.00  0.00     0.011 A 
ENDBRANCH  16  24
ENDBRANCH  15  16
ENDBRANCH  14  15
ENDBRANCH  13  14
ENDBRANCH   3  13
BRANCH   2  31
HETATM   31  C   UNK N   1      24.441  13.072   7.867  0.00  0.00     0.032 A 
HETATM   32  C   UNK N   1      25.137  14.282   7.924  0.00  0.00     0.029 A 
HETATM   33  C   UNK N   1      25.935  14.715   6.864  0.00  0.00     0.002 A 
HETATM   34  C   UNK N   1      26.050  13.932   5.718  0.00  0.00     0.000 A 
HETATM   35  C   UNK N   1      25.370  12.715   5.641  0.00  0.00     0.002 A 
HETATM   36  C   UNK N   1      24.572  12.286   6.707  0.00  0.00     0.029 A 
ENDBRANCH   2  31
TORSDOF 7
ENDMDL
MODEL 8
REMARK VINA RESULT:      -7.2     11.599     14.695
REMARK  7 active torsions:
REMARK  status: ('A' for Active; 'I' for Inactive)
REMARK    1  A    between atoms: N_4  and  C_15 
REMARK    2  A    between atoms: N_5  and  C_14 
REMARK    3  A    between atoms: C_14  and  C_16 
REMARK    4  A    between atoms: C_16  and  C_17 
REMARK    5  A    between atoms: C_17  and  C_18 
REMARK    6  A    between atoms: C_18  and  C_21 
REMARK    7  A    between atoms: C_18  and  C_22 
ROOT
HETATM    1  O   UNK N   1      23.901  13.712   0.066  0.00  0.00    -0.271 OA
HETATM    2  N   UNK N   1      23.947  13.664   3.515  0.00  0.00    -0.346 N 
HETATM    3  N   UNK N   1      27.288  14.682   3.134  0.00  0.00     0.088 N 
HETATM    4  N   UNK N   1      22.523  13.298   1.782  0.00  0.00    -0.343 N 
HETATM    5  C   UNK N   1      24.747  13.911   2.303  0.00  0.00     0.118 A 
HETATM    6  C   UNK N   1      25.188  15.386   2.171  0.00  0.00     0.071 C 
HETATM    7  C   UNK N   1      25.890  12.886   2.112  0.00  0.00     0.071 C 
HETATM    8  C   UNK N   1      26.705  15.565   2.136  0.00  0.00     0.275 C 
HETATM    9  C   UNK N   1      27.245  13.274   2.728  0.00  0.00     0.275 C 
HETATM   10  C   UNK N   1      23.709  13.639   1.272  0.00  0.00     0.247 A 
HETATM   11  C   UNK N   1      22.578  13.284   3.214  0.00  0.00     0.250 A 
HETATM   12  H   UNK N   1      21.724  13.084   1.249  0.00  0.00     0.164 HD
ENDROOT
BRANCH   3  13
HETATM   13  C   UNK N   1      28.588  15.129   3.637  0.00  0.00     0.272 C 
BRANCH  13  14
HETATM   14  C   UNK N   1      29.011  16.477   3.087  0.00  0.00     0.031 C 
BRANCH  14  15
HETATM   15  C   UNK N   1      29.362  17.400   4.228  0.00  0.00     0.016 C 
BRANCH  15  16
HETATM   16  C   UNK N   1      28.155  17.570   5.132  0.00  0.00     0.051 C 
BRANCH  16  17
HETATM   17  C   UNK N   1      27.174  18.521   4.468  0.00  0.00    -0.049 A 
HETATM   18  C   UNK N   1      27.556  19.745   3.901  0.00  0.00     0.011 A 
HETATM   19  C   UNK N   1      26.609  20.566   3.280  0.00  0.00     0.043 A 
HETATM   20  C   UNK N   1      25.270  20.169   3.219  0.00  0.00     0.116 A 
HETATM   21  F   UNK N   1      24.353  20.957   2.610  0.00  0.00    -0.206 F 
HETATM   22  C   UNK N   1      24.875  18.959   3.788  0.00  0.00     0.043 A 
HETATM   23  C   UNK N   1      25.821  18.143   4.410  0.00  0.00     0.011 A 
ENDBRANCH  16  17
BRANCH  16  24
HETATM   24  C   UNK N   1      28.670  17.799   6.539  0.00  0.00    -0.049 A 
HETATM   25  C   UNK N   1      27.855  18.526   7.426  0.00  0.00     0.011 A 
HETATM   26  C   UNK N   1      28.255  18.750   8.744  0.00  0.00     0.043 A 
HETATM   27  C   UNK N   1      29.478  18.251   9.193  0.00  0.00     0.116 A 
HETATM   28  F   UNK N   1      29.864  18.464  10.474  0.00  0.00    -0.206 F 
HETATM   29  C   UNK N   1      30.302  17.532   8.322  0.00  0.00     0.043 A 
HETATM   30  C   UNK N   1      29.899  17.307   7.001  0.00  0.00     0.011 A 
ENDBRANCH  16  24
ENDBRANCH  15  16
ENDBRANCH  14  15
ENDBRANCH  13  14
ENDBRANCH   3  13
BRANCH   2  31
HETATM   31  C   UNK N   1      24.396  13.751   4.878  0.00  0.00     0.032 A 
HETATM   32  C   UNK N   1      24.460  12.628   5.706  0.00  0.00     0.029 A 
HETATM   33  C   UNK N   1      24.880  12.723   7.034  0.00  0.00     0.002 A 
HETATM   34  C   UNK N   1      25.246  13.961   7.557  0.00  0.00     0.000 A 
HETATM   35  C   UNK N   1      25.197  15.097   6.747  0.00  0.00     0.002 A 
HETATM   36  C   UNK N   1      24.776  14.994   5.416  0.00  0.00     0.029 A 
ENDBRANCH   2  31
TORSDOF 7
ENDMDL
MODEL 9
REMARK VINA RESULT:      -7.1     12.154     15.065
REMARK  7 active torsions:
REMARK  status: ('A' for Active; 'I' for Inactive)
REMARK    1  A    between atoms: N_4  and  C_15 
REMARK    2  A    between atoms: N_5  and  C_14 
REMARK    3  A    between atoms: C_14  and  C_16 
REMARK    4  A    between atoms: C_16  and  C_17 
REMARK    5  A    between atoms: C_17  and  C_18 
REMARK    6  A    between atoms: C_18  and  C_21 
REMARK    7  A    between atoms: C_18  and  C_22 
ROOT
HETATM    1  O   UNK N   1      24.060  13.515   0.140  0.00  0.00    -0.271 OA
HETATM    2  N   UNK N   1      24.242  14.216   3.514  0.00  0.00    -0.346 N 
HETATM    3  N   UNK N   1      27.713  13.981   3.017  0.00  0.00     0.088 N 
HETATM    4  N   UNK N   1      22.701  13.961   1.864  0.00  0.00    -0.343 N 
HETATM    5  C   UNK N   1      25.024  13.916   2.302  0.00  0.00     0.118 A 
HETATM    6  C   UNK N   1      25.913  15.100   1.859  0.00  0.00     0.071 C 
HETATM    7  C   UNK N   1      25.764  12.560   2.378  0.00  0.00     0.071 C 
HETATM    8  C   UNK N   1      27.403  14.763   1.830  0.00  0.00     0.275 C 
HETATM    9  C   UNK N   1      27.197  12.610   2.933  0.00  0.00     0.275 C 
HETATM   10  C   UNK N   1      23.910  13.777   1.326  0.00  0.00     0.247 A 
HETATM   11  C   UNK N   1      22.812  14.246   3.263  0.00  0.00     0.250 A 
HETATM   12  H   UNK N   1      21.853  13.908   1.367  0.00  0.00     0.164 HD
ENDROOT
BRANCH   3  13
HETATM   13  C   UNK N   1      29.108  14.079   3.447  0.00  0.00     0.272 C 
BRANCH  13  14
HETATM   14  C   UNK N   1      29.268  14.696   4.823  0.00  0.00     0.031 C 
BRANCH  14  15
HETATM   15  C   UNK N   1      30.065  15.973   4.715  0.00  0.00     0.016 C 
BRANCH  15  16
HETATM   16  C   UNK N   1      29.817  16.831   5.942  0.00  0.00     0.051 C 
BRANCH  16  17
HETATM   17  C   UNK N   1      28.779  17.887   5.601  0.00  0.00    -0.049 A 
HETATM   18  C   UNK N   1      28.273  18.076   4.307  0.00  0.00     0.011 A 
HETATM   19  C   UNK N   1      27.299  19.050   4.062  0.00  0.00     0.043 A 
HETATM   20  C   UNK N   1      26.820  19.843   5.109  0.00  0.00     0.116 A 
HETATM   21  F   UNK N   1      25.870  20.778   4.875  0.00  0.00    -0.206 F 
HETATM   22  C   UNK N   1      27.322  19.671   6.398  0.00  0.00     0.043 A 
HETATM   23  C   UNK N   1      28.296  18.702   6.640  0.00  0.00     0.011 A 
ENDBRANCH  16  17
BRANCH  16  24
HETATM   24  C   UNK N   1      31.168  17.190   6.526  0.00  0.00    -0.049 A 
HETATM   25  C   UNK N   1      32.275  17.202   5.659  0.00  0.00     0.011 A 
HETATM   26  C   UNK N   1      33.544  17.551   6.124  0.00  0.00     0.043 A 
HETATM   27  C   UNK N   1      33.722  17.891   7.465  0.00  0.00     0.116 A 
HETATM   28  F   UNK N   1      34.953  18.235   7.916  0.00  0.00    -0.206 F 
HETATM   29  C   UNK N   1      32.632  17.877   8.341  0.00  0.00     0.043 A 
HETATM   30  C   UNK N   1      31.361  17.529   7.873  0.00  0.00     0.011 A 
ENDBRANCH  16  24
ENDBRANCH  15  16
ENDBRANCH  14  15
ENDBRANCH  13  14
ENDBRANCH   3  13
BRANCH   2  31
HETATM   31  C   UNK N   1      24.755  14.450   4.836  0.00  0.00     0.032 A 
HETATM   32  C   UNK N   1      25.414  15.635   5.173  0.00  0.00     0.029 A 
HETATM   33  C   UNK N   1      25.924  15.847   6.455  0.00  0.00     0.002 A 
HETATM   34  C   UNK N   1      25.780  14.863   7.430  0.00  0.00     0.000 A 
HETATM   35  C   UNK N   1      25.119  13.673   7.119  0.00  0.00     0.002 A 
HETATM   36  C   UNK N   1      24.609  13.467   5.832  0.00  0.00     0.029 A 
ENDBRANCH   2  31
TORSDOF 7
ENDMDL
