REMARK  10 active torsions:
REMARK  status: ('A' for Active; 'I' for Inactive)
REMARK    1  A    between atoms: O_1  and  C_16 
REMARK    2  A    between atoms: O_1  and  C_19 
REMARK    3  A    between atoms: O_2  and  C_23 
REMARK    4  A    between atoms: O_2  and  C_24 
REMARK    5  A    between atoms: N_5  and  C_12 
REMARK    6  A    between atoms: N_6  and  C_21 
REMARK       I    between atoms: N_6  and  C_22 
REMARK    7  A    between atoms: C_12  and  C_13 
REMARK    8  A    between atoms: C_19  and  C_20 
REMARK    9  A    between atoms: C_20  and  C_21 
REMARK   10  A    between atoms: C_22  and  C_23 
ROOT
HETATM    1  C   UNK N   1       6.929   3.063  -0.364  0.00  0.00    -0.028 A 
HETATM    2  C   UNK N   1       5.570   2.787  -0.162  0.00  0.00     0.045 A 
HETATM    3  C   UNK N   1       7.878   2.051  -0.171  0.00  0.00     0.009 A 
HETATM    4  C   UNK N   1       5.159   1.507   0.238  0.00  0.00     0.069 A 
HETATM    5  C   UNK N   1       7.477   0.780   0.242  0.00  0.00     0.003 A 
HETATM    6  C   UNK N   1       6.124   0.506   0.443  0.00  0.00     0.037 A 
ENDROOT
BRANCH   4   7
HETATM    7  O   UNK N   1       3.837   1.254   0.396  0.00  0.00    -0.351 OA
BRANCH   7   8
HETATM    8  C   UNK N   1       3.348   0.021   0.777  0.00  0.00     0.177 C 
BRANCH   8   9
HETATM    9  C   UNK N   1       2.586  -0.604  -0.377  0.00  0.00     0.046 C 
BRANCH   9  10
HETATM   10  C   UNK N   1       3.347  -1.794  -0.939  0.00  0.00     0.125 C 
BRANCH  10  11
HETATM   11  N   UNK N   1       2.911  -3.005  -0.286  0.00  0.00    -0.359 N 
HETATM   12  C   UNK N   1       3.769  -4.004   0.037  0.00  0.00     0.241 C 
HETATM   13  O   UNK N   1       4.959  -3.915  -0.224  0.00  0.00    -0.271 OA
HETATM   14  H   UNK N   1       1.957  -3.110  -0.068  0.00  0.00     0.162 HD
BRANCH  12  15
HETATM   15  C   UNK N   1       3.254  -5.220   0.734  0.00  0.00     0.281 C 
BRANCH  15  16
HETATM   16  O   UNK N   1       2.426  -5.940  -0.100  0.00  0.00    -0.312 OA
BRANCH  16  17
HETATM   17  C   UNK N   1       1.076  -5.919   0.014  0.00  0.00     0.255 C 
HETATM   18  O   UNK N   1       0.523  -5.151   0.787  0.00  0.00    -0.266 OA
HETATM   19  C   UNK N   1       0.254  -6.834  -0.826  0.00  0.00     0.126 C 
ENDBRANCH  16  17
ENDBRANCH  15  16
ENDBRANCH  12  15
ENDBRANCH  10  11
ENDBRANCH   9  10
ENDBRANCH   8   9
ENDBRANCH   7   8
ENDBRANCH   4   7
BRANCH   1  20
HETATM   20  C   UNK N   1       7.349   4.417  -0.852  0.00  0.00     0.311 C 
BRANCH  20  21
HETATM   21  N   UNK N   1       8.377   5.012  -0.006  0.00  0.00     0.092 N 
HETATM   22  C   UNK N   1       9.674   4.573  -0.532  0.00  0.00     0.272 C 
HETATM   23  C   UNK N   1      10.816   5.192   0.268  0.00  0.00     0.030 C 
HETATM   24  C   UNK N   1      10.730   6.710   0.170  0.00  0.00     0.003 C 
HETATM   25  C   UNK N   1       9.354   7.181   0.625  0.00  0.00     0.030 C 
HETATM   26  C   UNK N   1       8.272   6.462  -0.181  0.00  0.00     0.272 C 
ENDBRANCH  20  21
ENDBRANCH   1  20
TORSDOF 10
