MODEL 1
REMARK VINA RESULT:      -6.5      0.000      0.000
REMARK  10 active torsions:
REMARK  status: ('A' for Active; 'I' for Inactive)
REMARK    1  A    between atoms: O_1  and  C_16 
REMARK    2  A    between atoms: O_1  and  C_19 
REMARK    3  A    between atoms: O_2  and  C_23 
REMARK    4  A    between atoms: O_2  and  C_24 
REMARK    5  A    between atoms: N_5  and  C_12 
REMARK    6  A    between atoms: N_6  and  C_21 
REMARK       I    between atoms: N_6  and  C_22 
REMARK    7  A    between atoms: C_12  and  C_13 
REMARK    8  A    between atoms: C_19  and  C_20 
REMARK    9  A    between atoms: C_20  and  C_21 
REMARK   10  A    between atoms: C_22  and  C_23 
ROOT
HETATM    1  C   UNK N   1      28.327  18.560   5.450  0.00  0.00    -0.028 A 
HETATM    2  C   UNK N   1      27.673  19.168   4.371  0.00  0.00     0.045 A 
HETATM    3  C   UNK N   1      28.173  19.086   6.739  0.00  0.00     0.009 A 
HETATM    4  C   UNK N   1      26.872  20.302   4.575  0.00  0.00     0.069 A 
HETATM    5  C   UNK N   1      27.391  20.222   6.947  0.00  0.00     0.003 A 
HETATM    6  C   UNK N   1      26.740  20.827   5.872  0.00  0.00     0.037 A 
ENDROOT
BRANCH   4   7
HETATM    7  O   UNK N   1      26.223  20.854   3.521  0.00  0.00    -0.351 OA
BRANCH   7   8
HETATM    8  C   UNK N   1      25.373  20.138   2.703  0.00  0.00     0.177 C 
BRANCH   8   9
HETATM    9  C   UNK N   1      24.060  19.890   3.424  0.00  0.00     0.046 C 
BRANCH   9  10
HETATM   10  C   UNK N   1      22.938  20.689   2.780  0.00  0.00     0.125 C 
BRANCH  10  11
HETATM   11  N   UNK N   1      21.898  19.794   2.331  0.00  0.00    -0.359 N 
HETATM   12  C   UNK N   1      20.755  19.600   3.034  0.00  0.00     0.241 C 
HETATM   13  O   UNK N   1      20.566  20.180   4.093  0.00  0.00    -0.271 OA
HETATM   14  H   UNK N   1      22.023  19.308   1.485  0.00  0.00     0.162 HD
BRANCH  12  15
HETATM   15  C   UNK N   1      19.709  18.679   2.499  0.00  0.00     0.281 C 
BRANCH  15  16
HETATM   16  O   UNK N   1      20.268  17.472   2.137  0.00  0.00    -0.312 OA
BRANCH  16  17
HETATM   17  C   UNK N   1      20.123  16.940   0.900  0.00  0.00     0.255 C 
HETATM   18  O   UNK N   1      20.380  17.595  -0.099  0.00  0.00    -0.266 OA
HETATM   19  C   UNK N   1      19.657  15.533   0.755  0.00  0.00     0.126 C 
ENDBRANCH  16  17
ENDBRANCH  15  16
ENDBRANCH  12  15
ENDBRANCH  10  11
ENDBRANCH   9  10
ENDBRANCH   8   9
ENDBRANCH   7   8
ENDBRANCH   4   7
BRANCH   1  20
HETATM   20  C   UNK N   1      29.128  17.312   5.228  0.00  0.00     0.311 C 
BRANCH  20  21
HETATM   21  N   UNK N   1      30.450  17.598   4.682  0.00  0.00     0.092 N 
HETATM   22  C   UNK N   1      31.429  17.212   5.704  0.00  0.00     0.272 C 
HETATM   23  C   UNK N   1      32.851  17.431   5.196  0.00  0.00     0.030 C 
HETATM   24  C   UNK N   1      33.074  16.582   3.951  0.00  0.00     0.003 C 
HETATM   25  C   UNK N   1      32.008  16.901   2.909  0.00  0.00     0.030 C 
HETATM   26  C   UNK N   1      30.620  16.720   3.522  0.00  0.00     0.272 C 
ENDBRANCH  20  21
ENDBRANCH   1  20
TORSDOF 10
ENDMDL
MODEL 2
REMARK VINA RESULT:      -6.4     10.632     12.853
REMARK  10 active torsions:
REMARK  status: ('A' for Active; 'I' for Inactive)
REMARK    1  A    between atoms: O_1  and  C_16 
REMARK    2  A    between atoms: O_1  and  C_19 
REMARK    3  A    between atoms: O_2  and  C_23 
REMARK    4  A    between atoms: O_2  and  C_24 
REMARK    5  A    between atoms: N_5  and  C_12 
REMARK    6  A    between atoms: N_6  and  C_21 
REMARK       I    between atoms: N_6  and  C_22 
REMARK    7  A    between atoms: C_12  and  C_13 
REMARK    8  A    between atoms: C_19  and  C_20 
REMARK    9  A    between atoms: C_20  and  C_21 
REMARK   10  A    between atoms: C_22  and  C_23 
ROOT
HETATM    1  C   UNK N   1      26.444  25.323  -4.467  0.00  0.00    -0.028 A 
HETATM    2  C   UNK N   1      26.714  26.381  -3.589  0.00  0.00     0.045 A 
HETATM    3  C   UNK N   1      25.536  25.509  -5.518  0.00  0.00     0.009 A 
HETATM    4  C   UNK N   1      26.076  27.620  -3.755  0.00  0.00     0.069 A 
HETATM    5  C   UNK N   1      24.887  26.733  -5.679  0.00  0.00     0.003 A 
HETATM    6  C   UNK N   1      25.156  27.786  -4.804  0.00  0.00     0.037 A 
ENDROOT
BRANCH   4   7
HETATM    7  O   UNK N   1      26.376  28.639  -2.914  0.00  0.00    -0.351 OA
BRANCH   7   8
HETATM    8  C   UNK N   1      26.588  29.932  -3.345  0.00  0.00     0.177 C 
BRANCH   8   9
HETATM    9  C   UNK N   1      27.632  30.598  -2.468  0.00  0.00     0.046 C 
BRANCH   9  10
HETATM   10  C   UNK N   1      28.930  29.806  -2.486  0.00  0.00     0.125 C 
BRANCH  10  11
HETATM   11  N   UNK N   1      29.228  29.387  -3.834  0.00  0.00    -0.359 N 
HETATM   12  C   UNK N   1      29.870  28.224  -4.107  0.00  0.00     0.241 C 
HETATM   13  O   UNK N   1      30.230  27.482  -3.206  0.00  0.00    -0.271 OA
HETATM   14  H   UNK N   1      28.956  29.965  -4.583  0.00  0.00     0.162 HD
BRANCH  12  15
HETATM   15  C   UNK N   1      30.125  27.839  -5.527  0.00  0.00     0.281 C 
BRANCH  15  16
HETATM   16  O   UNK N   1      29.002  27.260  -6.080  0.00  0.00    -0.312 OA
BRANCH  16  17
HETATM   17  C   UNK N   1      28.181  27.923  -6.929  0.00  0.00     0.255 C 
HETATM   18  O   UNK N   1      27.876  29.089  -6.727  0.00  0.00    -0.266 OA
HETATM   19  C   UNK N   1      27.654  27.225  -8.135  0.00  0.00     0.126 C 
ENDBRANCH  16  17
ENDBRANCH  15  16
ENDBRANCH  12  15
ENDBRANCH  10  11
ENDBRANCH   9  10
ENDBRANCH   8   9
ENDBRANCH   7   8
ENDBRANCH   4   7
BRANCH   1  20
HETATM   20  C   UNK N   1      27.179  24.025  -4.317  0.00  0.00     0.311 C 
BRANCH  20  21
HETATM   21  N   UNK N   1      28.455  24.192  -3.631  0.00  0.00     0.092 N 
HETATM   22  C   UNK N   1      28.576  23.089  -2.673  0.00  0.00     0.272 C 
HETATM   23  C   UNK N   1      29.913  23.157  -1.940  0.00  0.00     0.030 C 
HETATM   24  C   UNK N   1      31.045  23.057  -2.955  0.00  0.00     0.003 C 
HETATM   25  C   UNK N   1      30.885  24.140  -4.016  0.00  0.00     0.030 C 
HETATM   26  C   UNK N   1      29.497  24.040  -4.649  0.00  0.00     0.272 C 
ENDBRANCH  20  21
ENDBRANCH   1  20
TORSDOF 10
ENDMDL
MODEL 3
REMARK VINA RESULT:      -6.4      5.564      9.712
REMARK  10 active torsions:
REMARK  status: ('A' for Active; 'I' for Inactive)
REMARK    1  A    between atoms: O_1  and  C_16 
REMARK    2  A    between atoms: O_1  and  C_19 
REMARK    3  A    between atoms: O_2  and  C_23 
REMARK    4  A    between atoms: O_2  and  C_24 
REMARK    5  A    between atoms: N_5  and  C_12 
REMARK    6  A    between atoms: N_6  and  C_21 
REMARK       I    between atoms: N_6  and  C_22 
REMARK    7  A    between atoms: C_12  and  C_13 
REMARK    8  A    between atoms: C_19  and  C_20 
REMARK    9  A    between atoms: C_20  and  C_21 
REMARK   10  A    between atoms: C_22  and  C_23 
ROOT
HETATM    1  C   UNK N   1      28.355  18.373   4.900  0.00  0.00    -0.028 A 
HETATM    2  C   UNK N   1      28.315  18.224   6.293  0.00  0.00     0.045 A 
HETATM    3  C   UNK N   1      27.911  19.566   4.316  0.00  0.00     0.009 A 
HETATM    4  C   UNK N   1      27.827  19.261   7.101  0.00  0.00     0.069 A 
HETATM    5  C   UNK N   1      27.409  20.595   5.114  0.00  0.00     0.003 A 
HETATM    6  C   UNK N   1      27.369  20.447   6.501  0.00  0.00     0.037 A 
ENDROOT
BRANCH   4   7
HETATM    7  O   UNK N   1      27.827  19.108   8.448  0.00  0.00    -0.351 OA
BRANCH   7   8
HETATM    8  C   UNK N   1      28.330  17.987   9.077  0.00  0.00     0.177 C 
BRANCH   8   9
HETATM    9  C   UNK N   1      29.571  18.360   9.867  0.00  0.00     0.046 C 
BRANCH   9  10
HETATM   10  C   UNK N   1      30.755  18.573   8.937  0.00  0.00     0.125 C 
BRANCH  10  11
HETATM   11  N   UNK N   1      31.635  17.431   8.998  0.00  0.00    -0.359 N 
HETATM   12  C   UNK N   1      32.904  17.467   8.522  0.00  0.00     0.241 C 
HETATM   13  O   UNK N   1      33.351  18.482   8.009  0.00  0.00    -0.271 OA
HETATM   14  H   UNK N   1      31.303  16.596   9.400  0.00  0.00     0.162 HD
BRANCH  12  15
HETATM   15  C   UNK N   1      33.770  16.256   8.640  0.00  0.00     0.281 C 
BRANCH  15  16
HETATM   16  O   UNK N   1      34.070  16.005   9.961  0.00  0.00    -0.312 OA
BRANCH  16  17
HETATM   17  C   UNK N   1      35.238  16.387  10.531  0.00  0.00     0.255 C 
HETATM   18  O   UNK N   1      35.689  17.508  10.348  0.00  0.00    -0.266 OA
HETATM   19  C   UNK N   1      35.976  15.432  11.405  0.00  0.00     0.126 C 
ENDBRANCH  16  17
ENDBRANCH  15  16
ENDBRANCH  12  15
ENDBRANCH  10  11
ENDBRANCH   9  10
ENDBRANCH   8   9
ENDBRANCH   7   8
ENDBRANCH   4   7
BRANCH   1  20
HETATM   20  C   UNK N   1      28.938  17.282   4.052  0.00  0.00     0.311 C 
BRANCH  20  21
HETATM   21  N   UNK N   1      30.186  16.766   4.601  0.00  0.00     0.092 N 
HETATM   22  C   UNK N   1      30.490  15.523   3.884  0.00  0.00     0.272 C 
HETATM   23  C   UNK N   1      31.814  14.935   4.363  0.00  0.00     0.030 C 
HETATM   24  C   UNK N   1      32.929  15.941   4.104  0.00  0.00     0.003 C 
HETATM   25  C   UNK N   1      32.589  17.272   4.764  0.00  0.00     0.030 C 
HETATM   26  C   UNK N   1      31.221  17.751   4.279  0.00  0.00     0.272 C 
ENDBRANCH  20  21
ENDBRANCH   1  20
TORSDOF 10
ENDMDL
MODEL 4
REMARK VINA RESULT:      -6.3      6.286     11.911
REMARK  10 active torsions:
REMARK  status: ('A' for Active; 'I' for Inactive)
REMARK    1  A    between atoms: O_1  and  C_16 
REMARK    2  A    between atoms: O_1  and  C_19 
REMARK    3  A    between atoms: O_2  and  C_23 
REMARK    4  A    between atoms: O_2  and  C_24 
REMARK    5  A    between atoms: N_5  and  C_12 
REMARK    6  A    between atoms: N_6  and  C_21 
REMARK       I    between atoms: N_6  and  C_22 
REMARK    7  A    between atoms: C_12  and  C_13 
REMARK    8  A    between atoms: C_19  and  C_20 
REMARK    9  A    between atoms: C_20  and  C_21 
REMARK   10  A    between atoms: C_22  and  C_23 
ROOT
HETATM    1  C   UNK N   1      30.245  17.229   4.659  0.00  0.00    -0.028 A 
HETATM    2  C   UNK N   1      31.408  17.658   5.312  0.00  0.00     0.045 A 
HETATM    3  C   UNK N   1      30.346  16.537   3.445  0.00  0.00     0.009 A 
HETATM    4  C   UNK N   1      32.669  17.404   4.752  0.00  0.00     0.069 A 
HETATM    5  C   UNK N   1      31.597  16.295   2.875  0.00  0.00     0.003 A 
HETATM    6  C   UNK N   1      32.754  16.723   3.525  0.00  0.00     0.037 A 
ENDROOT
BRANCH   4   7
HETATM    7  O   UNK N   1      33.782  17.800   5.417  0.00  0.00    -0.351 OA
BRANCH   7   8
HETATM    8  C   UNK N   1      34.218  17.195   6.578  0.00  0.00     0.177 C 
BRANCH   8   9
HETATM    9  C   UNK N   1      33.987  18.125   7.755  0.00  0.00     0.046 C 
BRANCH   9  10
HETATM   10  C   UNK N   1      33.457  17.352   8.952  0.00  0.00     0.125 C 
BRANCH  10  11
HETATM   11  N   UNK N   1      34.528  17.110   9.889  0.00  0.00    -0.359 N 
HETATM   12  C   UNK N   1      34.995  15.864  10.149  0.00  0.00     0.241 C 
HETATM   13  O   UNK N   1      34.514  14.887   9.595  0.00  0.00    -0.271 OA
HETATM   14  H   UNK N   1      34.932  17.875  10.357  0.00  0.00     0.162 HD
BRANCH  12  15
HETATM   15  C   UNK N   1      36.122  15.686  11.113  0.00  0.00     0.281 C 
BRANCH  15  16
HETATM   16  O   UNK N   1      35.645  15.307  12.349  0.00  0.00    -0.312 OA
BRANCH  16  17
HETATM   17  C   UNK N   1      35.775  14.046  12.827  0.00  0.00     0.255 C 
HETATM   18  O   UNK N   1      35.107  13.662  13.775  0.00  0.00    -0.266 OA
HETATM   19  C   UNK N   1      36.734  13.109  12.177  0.00  0.00     0.126 C 
ENDBRANCH  16  17
ENDBRANCH  15  16
ENDBRANCH  12  15
ENDBRANCH  10  11
ENDBRANCH   9  10
ENDBRANCH   8   9
ENDBRANCH   7   8
ENDBRANCH   4   7
BRANCH   1  20
HETATM   20  C   UNK N   1      28.907  17.451   5.299  0.00  0.00     0.311 C 
BRANCH  20  21
HETATM   21  N   UNK N   1      28.462  18.834   5.175  0.00  0.00     0.092 N 
HETATM   22  C   UNK N   1      27.416  18.858   4.146  0.00  0.00     0.272 C 
HETATM   23  C   UNK N   1      26.854  20.267   3.985  0.00  0.00     0.030 C 
HETATM   24  C   UNK N   1      26.255  20.722   5.310  0.00  0.00     0.003 C 
HETATM   25  C   UNK N   1      27.301  20.616   6.414  0.00  0.00     0.030 C 
HETATM   26  C   UNK N   1      27.857  19.192   6.460  0.00  0.00     0.272 C 
ENDBRANCH  20  21
ENDBRANCH   1  20
TORSDOF 10
ENDMDL
MODEL 5
REMARK VINA RESULT:      -6.3     12.945     16.874
REMARK  10 active torsions:
REMARK  status: ('A' for Active; 'I' for Inactive)
REMARK    1  A    between atoms: O_1  and  C_16 
REMARK    2  A    between atoms: O_1  and  C_19 
REMARK    3  A    between atoms: O_2  and  C_23 
REMARK    4  A    between atoms: O_2  and  C_24 
REMARK    5  A    between atoms: N_5  and  C_12 
REMARK    6  A    between atoms: N_6  and  C_21 
REMARK       I    between atoms: N_6  and  C_22 
REMARK    7  A    between atoms: C_12  and  C_13 
REMARK    8  A    between atoms: C_19  and  C_20 
REMARK    9  A    between atoms: C_20  and  C_21 
REMARK   10  A    between atoms: C_22  and  C_23 
ROOT
HETATM    1  C   UNK N   1      35.408  11.122  18.380  0.00  0.00    -0.028 A 
HETATM    2  C   UNK N   1      35.250  11.349  17.006  0.00  0.00     0.045 A 
HETATM    3  C   UNK N   1      35.358  12.202  19.271  0.00  0.00     0.009 A 
HETATM    4  C   UNK N   1      35.048  12.649  16.522  0.00  0.00     0.069 A 
HETATM    5  C   UNK N   1      35.173  13.500  18.794  0.00  0.00     0.003 A 
HETATM    6  C   UNK N   1      35.015  13.725  17.426  0.00  0.00     0.037 A 
ENDROOT
BRANCH   4   7
HETATM    7  O   UNK N   1      34.865  12.841  15.192  0.00  0.00    -0.351 OA
BRANCH   7   8
HETATM    8  C   UNK N   1      35.910  12.975  14.301  0.00  0.00     0.177 C 
BRANCH   8   9
HETATM    9  C   UNK N   1      35.373  13.395  12.945  0.00  0.00     0.046 C 
BRANCH   9  10
HETATM   10  C   UNK N   1      35.943  14.745  12.539  0.00  0.00     0.125 C 
BRANCH  10  11
HETATM   11  N   UNK N   1      35.048  15.393  11.610  0.00  0.00    -0.359 N 
HETATM   12  C   UNK N   1      35.244  15.357  10.269  0.00  0.00     0.241 C 
HETATM   13  O   UNK N   1      36.204  14.771   9.793  0.00  0.00    -0.271 OA
HETATM   14  H   UNK N   1      34.268  15.878  11.963  0.00  0.00     0.162 HD
BRANCH  12  15
HETATM   15  C   UNK N   1      34.265  16.029   9.364  0.00  0.00     0.281 C 
BRANCH  15  16
HETATM   16  O   UNK N   1      34.370  17.399   9.471  0.00  0.00    -0.312 OA
BRANCH  16  17
HETATM   17  C   UNK N   1      34.575  18.202   8.399  0.00  0.00     0.255 C 
HETATM   18  O   UNK N   1      35.275  19.200   8.487  0.00  0.00    -0.266 OA
HETATM   19  C   UNK N   1      33.951  17.856   7.092  0.00  0.00     0.126 C 
ENDBRANCH  16  17
ENDBRANCH  15  16
ENDBRANCH  12  15
ENDBRANCH  10  11
ENDBRANCH   9  10
ENDBRANCH   8   9
ENDBRANCH   7   8
ENDBRANCH   4   7
BRANCH   1  20
HETATM   20  C   UNK N   1      35.560   9.721  18.891  0.00  0.00     0.311 C 
BRANCH  20  21
HETATM   21  N   UNK N   1      34.304   8.981  18.849  0.00  0.00     0.092 N 
HETATM   22  C   UNK N   1      34.639   7.558  18.967  0.00  0.00     0.272 C 
HETATM   23  C   UNK N   1      33.373   6.707  18.982  0.00  0.00     0.030 C 
HETATM   24  C   UNK N   1      32.512   7.113  20.171  0.00  0.00     0.003 C 
HETATM   25  C   UNK N   1      32.229   8.609  20.119  0.00  0.00     0.030 C 
HETATM   26  C   UNK N   1      33.547   9.379  20.038  0.00  0.00     0.272 C 
ENDBRANCH  20  21
ENDBRANCH   1  20
TORSDOF 10
ENDMDL
MODEL 6
REMARK VINA RESULT:      -6.3      7.642     13.135
REMARK  10 active torsions:
REMARK  status: ('A' for Active; 'I' for Inactive)
REMARK    1  A    between atoms: O_1  and  C_16 
REMARK    2  A    between atoms: O_1  and  C_19 
REMARK    3  A    between atoms: O_2  and  C_23 
REMARK    4  A    between atoms: O_2  and  C_24 
REMARK    5  A    between atoms: N_5  and  C_12 
REMARK    6  A    between atoms: N_6  and  C_21 
REMARK       I    between atoms: N_6  and  C_22 
REMARK    7  A    between atoms: C_12  and  C_13 
REMARK    8  A    between atoms: C_19  and  C_20 
REMARK    9  A    between atoms: C_20  and  C_21 
REMARK   10  A    between atoms: C_22  and  C_23 
ROOT
HETATM    1  C   UNK N   1      30.651  17.421   5.749  0.00  0.00    -0.028 A 
HETATM    2  C   UNK N   1      31.142  17.378   7.061  0.00  0.00     0.045 A 
HETATM    3  C   UNK N   1      31.548  17.443   4.674  0.00  0.00     0.009 A 
HETATM    4  C   UNK N   1      32.524  17.364   7.300  0.00  0.00     0.069 A 
HETATM    5  C   UNK N   1      32.924  17.445   4.906  0.00  0.00     0.003 A 
HETATM    6  C   UNK N   1      33.412  17.403   6.212  0.00  0.00     0.037 A 
ENDROOT
BRANCH   4   7
HETATM    7  O   UNK N   1      32.976  17.290   8.576  0.00  0.00    -0.351 OA
BRANCH   7   8
HETATM    8  C   UNK N   1      33.646  16.191   9.073  0.00  0.00     0.177 C 
BRANCH   8   9
HETATM    9  C   UNK N   1      34.831  16.649   9.904  0.00  0.00     0.046 C 
BRANCH   9  10
HETATM   10  C   UNK N   1      35.799  15.501  10.134  0.00  0.00     0.125 C 
BRANCH  10  11
HETATM   11  N   UNK N   1      35.821  15.153  11.535  0.00  0.00    -0.359 N 
HETATM   12  C   UNK N   1      35.363  13.962  11.993  0.00  0.00     0.241 C 
HETATM   13  O   UNK N   1      34.902  13.132  11.225  0.00  0.00    -0.271 OA
HETATM   14  H   UNK N   1      36.180  15.804  12.180  0.00  0.00     0.162 HD
BRANCH  12  15
HETATM   15  C   UNK N   1      35.437  13.658  13.453  0.00  0.00     0.281 C 
BRANCH  15  16
HETATM   16  O   UNK N   1      36.589  14.184  13.998  0.00  0.00    -0.312 OA
BRANCH  16  17
HETATM   17  C   UNK N   1      36.783  14.290  15.335  0.00  0.00     0.255 C 
HETATM   18  O   UNK N   1      37.611  15.065  15.789  0.00  0.00    -0.266 OA
HETATM   19  C   UNK N   1      35.966  13.460  16.263  0.00  0.00     0.126 C 
ENDBRANCH  16  17
ENDBRANCH  15  16
ENDBRANCH  12  15
ENDBRANCH  10  11
ENDBRANCH   9  10
ENDBRANCH   8   9
ENDBRANCH   7   8
ENDBRANCH   4   7
BRANCH   1  20
HETATM   20  C   UNK N   1      29.173  17.372   5.506  0.00  0.00     0.311 C 
BRANCH  20  21
HETATM   21  N   UNK N   1      28.630  18.678   5.150  0.00  0.00     0.092 N 
HETATM   22  C   UNK N   1      27.618  18.455   4.112  0.00  0.00     0.272 C 
HETATM   23  C   UNK N   1      26.959  19.771   3.712  0.00  0.00     0.030 C 
HETATM   24  C   UNK N   1      26.288  20.387   4.933  0.00  0.00     0.003 C 
HETATM   25  C   UNK N   1      27.304  20.541   6.059  0.00  0.00     0.030 C 
HETATM   26  C   UNK N   1      27.962  19.192   6.347  0.00  0.00     0.272 C 
ENDBRANCH  20  21
ENDBRANCH   1  20
TORSDOF 10
ENDMDL
MODEL 7
REMARK VINA RESULT:      -6.3      5.747      8.310
REMARK  10 active torsions:
REMARK  status: ('A' for Active; 'I' for Inactive)
REMARK    1  A    between atoms: O_1  and  C_16 
REMARK    2  A    between atoms: O_1  and  C_19 
REMARK    3  A    between atoms: O_2  and  C_23 
REMARK    4  A    between atoms: O_2  and  C_24 
REMARK    5  A    between atoms: N_5  and  C_12 
REMARK    6  A    between atoms: N_6  and  C_21 
REMARK       I    between atoms: N_6  and  C_22 
REMARK    7  A    between atoms: C_12  and  C_13 
REMARK    8  A    between atoms: C_19  and  C_20 
REMARK    9  A    between atoms: C_20  and  C_21 
REMARK   10  A    between atoms: C_22  and  C_23 
ROOT
HETATM    1  C   UNK N   1      21.467  15.052   7.706  0.00  0.00    -0.028 A 
HETATM    2  C   UNK N   1      22.248  15.776   6.795  0.00  0.00     0.045 A 
HETATM    3  C   UNK N   1      20.345  15.654   8.290  0.00  0.00     0.009 A 
HETATM    4  C   UNK N   1      21.916  17.100   6.473  0.00  0.00     0.069 A 
HETATM    5  C   UNK N   1      20.019  16.976   7.986  0.00  0.00     0.003 A 
HETATM    6  C   UNK N   1      20.797  17.697   7.079  0.00  0.00     0.037 A 
ENDROOT
BRANCH   4   7
HETATM    7  O   UNK N   1      22.666  17.770   5.565  0.00  0.00    -0.351 OA
BRANCH   7   8
HETATM    8  C   UNK N   1      22.623  17.505   4.212  0.00  0.00     0.177 C 
BRANCH   8   9
HETATM    9  C   UNK N   1      21.762  18.544   3.517  0.00  0.00     0.046 C 
BRANCH   9  10
HETATM   10  C   UNK N   1      22.576  19.788   3.199  0.00  0.00     0.125 C 
BRANCH  10  11
HETATM   11  N   UNK N   1      23.928  19.622   3.676  0.00  0.00    -0.359 N 
HETATM   12  C   UNK N   1      24.992  20.189   3.054  0.00  0.00     0.241 C 
HETATM   13  O   UNK N   1      24.840  20.865   2.049  0.00  0.00    -0.271 OA
HETATM   14  H   UNK N   1      24.084  19.077   4.480  0.00  0.00     0.162 HD
BRANCH  12  15
HETATM   15  C   UNK N   1      26.362  19.995   3.616  0.00  0.00     0.281 C 
BRANCH  15  16
HETATM   16  O   UNK N   1      26.291  19.577   4.927  0.00  0.00    -0.312 OA
BRANCH  16  17
HETATM   17  C   UNK N   1      27.046  20.124   5.911  0.00  0.00     0.255 C 
HETATM   18  O   UNK N   1      27.853  19.449   6.531  0.00  0.00    -0.266 OA
HETATM   19  C   UNK N   1      26.901  21.572   6.228  0.00  0.00     0.126 C 
ENDBRANCH  16  17
ENDBRANCH  15  16
ENDBRANCH  12  15
ENDBRANCH  10  11
ENDBRANCH   9  10
ENDBRANCH   8   9
ENDBRANCH   7   8
ENDBRANCH   4   7
BRANCH   1  20
HETATM   20  C   UNK N   1      21.796  13.617   7.993  0.00  0.00     0.311 C 
BRANCH  20  21
HETATM   21  N   UNK N   1      22.427  13.449   9.298  0.00  0.00     0.092 N 
HETATM   22  C   UNK N   1      21.583  12.528  10.067  0.00  0.00     0.272 C 
HETATM   23  C   UNK N   1      22.197  12.254  11.437  0.00  0.00     0.030 C 
HETATM   24  C   UNK N   1      23.573  11.627  11.251  0.00  0.00     0.003 C 
HETATM   25  C   UNK N   1      24.438  12.526  10.375  0.00  0.00     0.030 C 
HETATM   26  C   UNK N   1      23.718  12.803   9.055  0.00  0.00     0.272 C 
ENDBRANCH  20  21
ENDBRANCH   1  20
TORSDOF 10
ENDMDL
MODEL 8
REMARK VINA RESULT:      -6.1      2.002      3.543
REMARK  10 active torsions:
REMARK  status: ('A' for Active; 'I' for Inactive)
REMARK    1  A    between atoms: O_1  and  C_16 
REMARK    2  A    between atoms: O_1  and  C_19 
REMARK    3  A    between atoms: O_2  and  C_23 
REMARK    4  A    between atoms: O_2  and  C_24 
REMARK    5  A    between atoms: N_5  and  C_12 
REMARK    6  A    between atoms: N_6  and  C_21 
REMARK       I    between atoms: N_6  and  C_22 
REMARK    7  A    between atoms: C_12  and  C_13 
REMARK    8  A    between atoms: C_19  and  C_20 
REMARK    9  A    between atoms: C_20  and  C_21 
REMARK   10  A    between atoms: C_22  and  C_23 
ROOT
HETATM    1  C   UNK N   1      30.500  17.386   7.599  0.00  0.00    -0.028 A 
HETATM    2  C   UNK N   1      29.504  17.944   6.787  0.00  0.00     0.045 A 
HETATM    3  C   UNK N   1      30.314  17.332   8.987  0.00  0.00     0.009 A 
HETATM    4  C   UNK N   1      28.328  18.454   7.358  0.00  0.00     0.069 A 
HETATM    5  C   UNK N   1      29.154  17.851   9.562  0.00  0.00     0.003 A 
HETATM    6  C   UNK N   1      28.163  18.407   8.753  0.00  0.00     0.037 A 
ENDROOT
BRANCH   4   7
HETATM    7  O   UNK N   1      27.365  18.960   6.551  0.00  0.00    -0.351 OA
BRANCH   7   8
HETATM    8  C   UNK N   1      27.046  20.302   6.511  0.00  0.00     0.177 C 
BRANCH   8   9
HETATM    9  C   UNK N   1      27.371  20.862   5.138  0.00  0.00     0.046 C 
BRANCH   9  10
HETATM   10  C   UNK N   1      26.862  19.934   4.047  0.00  0.00     0.125 C 
BRANCH  10  11
HETATM   11  N   UNK N   1      25.420  19.975   4.006  0.00  0.00    -0.359 N 
HETATM   12  C   UNK N   1      24.738  20.458   2.938  0.00  0.00     0.241 C 
HETATM   13  O   UNK N   1      25.331  20.889   1.961  0.00  0.00    -0.271 OA
HETATM   14  H   UNK N   1      24.913  19.640   4.780  0.00  0.00     0.162 HD
BRANCH  12  15
HETATM   15  C   UNK N   1      23.245  20.447   2.952  0.00  0.00     0.281 C 
BRANCH  15  16
HETATM   16  O   UNK N   1      22.776  19.320   3.592  0.00  0.00    -0.312 OA
BRANCH  16  17
HETATM   17  C   UNK N   1      21.471  18.958   3.572  0.00  0.00     0.255 C 
HETATM   18  O   UNK N   1      20.942  18.463   4.556  0.00  0.00    -0.266 OA
HETATM   19  C   UNK N   1      20.666  19.181   2.339  0.00  0.00     0.126 C 
ENDBRANCH  16  17
ENDBRANCH  15  16
ENDBRANCH  12  15
ENDBRANCH  10  11
ENDBRANCH   9  10
ENDBRANCH   8   9
ENDBRANCH   7   8
ENDBRANCH   4   7
BRANCH   1  20
HETATM   20  C   UNK N   1      31.724  16.788   6.972  0.00  0.00     0.311 C 
BRANCH  20  21
HETATM   21  N   UNK N   1      31.588  16.649   5.526  0.00  0.00     0.092 N 
HETATM   22  C   UNK N   1      32.705  17.379   4.917  0.00  0.00     0.272 C 
HETATM   23  C   UNK N   1      32.671  17.245   3.398  0.00  0.00     0.030 C 
HETATM   24  C   UNK N   1      32.779  15.772   3.023  0.00  0.00     0.003 C 
HETATM   25  C   UNK N   1      31.681  14.979   3.721  0.00  0.00     0.030 C 
HETATM   26  C   UNK N   1      31.748  15.224   5.229  0.00  0.00     0.272 C 
ENDBRANCH  20  21
ENDBRANCH   1  20
TORSDOF 10
ENDMDL
MODEL 9
REMARK VINA RESULT:      -6.0     10.204     11.259
REMARK  10 active torsions:
REMARK  status: ('A' for Active; 'I' for Inactive)
REMARK    1  A    between atoms: O_1  and  C_16 
REMARK    2  A    between atoms: O_1  and  C_19 
REMARK    3  A    between atoms: O_2  and  C_23 
REMARK    4  A    between atoms: O_2  and  C_24 
REMARK    5  A    between atoms: N_5  and  C_12 
REMARK    6  A    between atoms: N_6  and  C_21 
REMARK       I    between atoms: N_6  and  C_22 
REMARK    7  A    between atoms: C_12  and  C_13 
REMARK    8  A    between atoms: C_19  and  C_20 
REMARK    9  A    between atoms: C_20  and  C_21 
REMARK   10  A    between atoms: C_22  and  C_23 
ROOT
HETATM    1  C   UNK N   1      29.705  24.624  -3.752  0.00  0.00    -0.028 A 
HETATM    2  C   UNK N   1      28.567  25.364  -4.098  0.00  0.00     0.045 A 
HETATM    3  C   UNK N   1      30.916  25.287  -3.513  0.00  0.00     0.009 A 
HETATM    4  C   UNK N   1      28.637  26.761  -4.213  0.00  0.00     0.069 A 
HETATM    5  C   UNK N   1      30.997  26.674  -3.640  0.00  0.00     0.003 A 
HETATM    6  C   UNK N   1      29.863  27.410  -3.986  0.00  0.00     0.037 A 
ENDROOT
BRANCH   4   7
HETATM    7  O   UNK N   1      27.516  27.459  -4.518  0.00  0.00    -0.351 OA
BRANCH   7   8
HETATM    8  C   UNK N   1      26.373  27.419  -3.746  0.00  0.00     0.177 C 
BRANCH   8   9
HETATM    9  C   UNK N   1      25.165  27.740  -4.606  0.00  0.00     0.046 C 
BRANCH   9  10
HETATM   10  C   UNK N   1      25.238  26.995  -5.929  0.00  0.00     0.125 C 
BRANCH  10  11
HETATM   11  N   UNK N   1      25.205  25.572  -5.691  0.00  0.00    -0.359 N 
HETATM   12  C   UNK N   1      25.950  24.698  -6.412  0.00  0.00     0.241 C 
HETATM   13  O   UNK N   1      26.681  25.091  -7.309  0.00  0.00    -0.271 OA
HETATM   14  H   UNK N   1      24.621  25.223  -4.979  0.00  0.00     0.162 HD
BRANCH  12  15
HETATM   15  C   UNK N   1      25.886  23.240  -6.096  0.00  0.00     0.281 C 
BRANCH  15  16
HETATM   16  O   UNK N   1      24.866  22.638  -6.800  0.00  0.00    -0.312 OA
BRANCH  16  17
HETATM   17  C   UNK N   1      25.056  22.057  -8.009  0.00  0.00     0.255 C 
HETATM   18  O   UNK N   1      24.882  22.685  -9.043  0.00  0.00    -0.266 OA
HETATM   19  C   UNK N   1      25.499  20.636  -8.080  0.00  0.00     0.126 C 
ENDBRANCH  16  17
ENDBRANCH  15  16
ENDBRANCH  12  15
ENDBRANCH  10  11
ENDBRANCH   9  10
ENDBRANCH   8   9
ENDBRANCH   7   8
ENDBRANCH   4   7
BRANCH   1  20
HETATM   20  C   UNK N   1      29.601  23.140  -3.571  0.00  0.00     0.311 C 
BRANCH  20  21
HETATM   21  N   UNK N   1      30.465  22.412  -4.493  0.00  0.00     0.092 N 
HETATM   22  C   UNK N   1      30.654  21.068  -3.935  0.00  0.00     0.272 C 
HETATM   23  C   UNK N   1      31.511  20.215  -4.866  0.00  0.00     0.030 C 
HETATM   24  C   UNK N   1      30.817  20.098  -6.217  0.00  0.00     0.003 C 
HETATM   25  C   UNK N   1      30.527  21.487  -6.773  0.00  0.00     0.030 C 
HETATM   26  C   UNK N   1      29.725  22.292  -5.751  0.00  0.00     0.272 C 
ENDBRANCH  20  21
ENDBRANCH   1  20
TORSDOF 10
ENDMDL
