MODEL 1
REMARK VINA RESULT:      -5.1      0.000      0.000
REMARK  2 active torsions:
REMARK  status: ('A' for Active; 'I' for Inactive)
REMARK    1  A    between atoms: O_1  and  C_5 
REMARK       I    between atoms: N_3  and  C_10 
REMARK    2  A    between atoms: C_4  and  C_10 
ROOT
HETATM    1  C   UNK N   1      33.426  17.732   7.521  0.00  0.00     0.064 A 
HETATM    2  C   UNK N   1      32.063  17.516   7.845  0.00  0.00     0.081 A 
HETATM    3  C   UNK N   1      33.832  17.610   6.183  0.00  0.00     0.020 A 
HETATM    4  C   UNK N   1      31.151  17.187   6.835  0.00  0.00     0.037 A 
HETATM    5  C   UNK N   1      32.915  17.282   5.185  0.00  0.00     0.001 A 
HETATM    6  C   UNK N   1      31.576  17.071   5.509  0.00  0.00     0.003 A 
ENDROOT
BRANCH   1   7
HETATM    7  C   UNK N   1      34.450  18.085   8.542  0.00  0.00     0.252 C 
HETATM    8  O   UNK N   1      35.185  19.045   8.388  0.00  0.00    -0.268 OA
HETATM    9  N   UNK N   1      34.571  17.334   9.658  0.00  0.00    -0.366 N 
HETATM   10  H   UNK N   1      33.983  16.556   9.794  0.00  0.00     0.159 HD
HETATM   11  H   UNK N   1      35.247  17.565  10.335  0.00  0.00     0.159 HD
ENDBRANCH   1   7
BRANCH   2  12
HETATM   12  O   UNK N   1      31.621  17.620   9.110  0.00  0.00    -0.360 OA
HETATM   13  H   UNK N   1      30.795  18.028   9.286  0.00  0.00     0.217 HD
ENDBRANCH   2  12
TORSDOF 2
ENDMDL
MODEL 2
REMARK VINA RESULT:      -5.0      1.307      2.147
REMARK  2 active torsions:
REMARK  status: ('A' for Active; 'I' for Inactive)
REMARK    1  A    between atoms: O_1  and  C_5 
REMARK       I    between atoms: N_3  and  C_10 
REMARK    2  A    between atoms: C_4  and  C_10 
ROOT
HETATM    1  C   UNK N   1      33.089  17.746   7.800  0.00  0.00     0.064 A 
HETATM    2  C   UNK N   1      33.151  17.491   6.406  0.00  0.00     0.081 A 
HETATM    3  C   UNK N   1      31.847  17.674   8.447  0.00  0.00     0.020 A 
HETATM    4  C   UNK N   1      31.981  17.175   5.705  0.00  0.00     0.037 A 
HETATM    5  C   UNK N   1      30.687  17.358   7.739  0.00  0.00     0.001 A 
HETATM    6  C   UNK N   1      30.754  17.109   6.368  0.00  0.00     0.003 A 
ENDROOT
BRANCH   1   7
HETATM    7  C   UNK N   1      34.291  18.087   8.609  0.00  0.00     0.252 C 
HETATM    8  O   UNK N   1      35.010  19.021   8.300  0.00  0.00    -0.268 OA
HETATM    9  N   UNK N   1      34.594  17.355   9.702  0.00  0.00    -0.366 N 
HETATM   10  H   UNK N   1      34.020  16.597   9.963  0.00  0.00     0.159 HD
HETATM   11  H   UNK N   1      35.388  17.578  10.240  0.00  0.00     0.159 HD
ENDBRANCH   1   7
BRANCH   2  12
HETATM   12  O   UNK N   1      34.314  17.546   5.737  0.00  0.00    -0.360 OA
HETATM   13  H   UNK N   1      34.974  16.896   5.887  0.00  0.00     0.217 HD
ENDBRANCH   2  12
TORSDOF 2
ENDMDL
MODEL 3
REMARK VINA RESULT:      -4.9     10.117     11.566
REMARK  2 active torsions:
REMARK  status: ('A' for Active; 'I' for Inactive)
REMARK    1  A    between atoms: O_1  and  C_5 
REMARK       I    between atoms: N_3  and  C_10 
REMARK    2  A    between atoms: C_4  and  C_10 
ROOT
HETATM    1  C   UNK N   1      23.478  12.894  10.218  0.00  0.00     0.064 A 
HETATM    2  C   UNK N   1      23.310  12.297  11.493  0.00  0.00     0.081 A 
HETATM    3  C   UNK N   1      22.340  13.179   9.448  0.00  0.00     0.020 A 
HETATM    4  C   UNK N   1      22.022  12.004  11.959  0.00  0.00     0.037 A 
HETATM    5  C   UNK N   1      21.062  12.883   9.922  0.00  0.00     0.001 A 
HETATM    6  C   UNK N   1      20.903  12.295  11.177  0.00  0.00     0.003 A 
ENDROOT
BRANCH   1   7
HETATM    7  C   UNK N   1      24.815  13.233   9.658  0.00  0.00     0.252 C 
HETATM    8  O   UNK N   1      25.043  13.120   8.466  0.00  0.00    -0.268 OA
HETATM    9  N   UNK N   1      25.794  13.672  10.478  0.00  0.00    -0.366 N 
HETATM   10  H   UNK N   1      25.622  13.768  11.443  0.00  0.00     0.159 HD
HETATM   11  H   UNK N   1      26.679  13.897  10.111  0.00  0.00     0.159 HD
ENDBRANCH   1   7
BRANCH   2  12
HETATM   12  O   UNK N   1      24.364  12.003  12.271  0.00  0.00    -0.360 OA
HETATM   13  H   UNK N   1      24.485  12.449  13.087  0.00  0.00     0.217 HD
ENDBRANCH   2  12
TORSDOF 2
ENDMDL
MODEL 4
REMARK VINA RESULT:      -4.8     15.293     16.152
REMARK  2 active torsions:
REMARK  status: ('A' for Active; 'I' for Inactive)
REMARK    1  A    between atoms: O_1  and  C_5 
REMARK       I    between atoms: N_3  and  C_10 
REMARK    2  A    between atoms: C_4  and  C_10 
ROOT
HETATM    1  C   UNK N   1      26.357  25.552  -4.130  0.00  0.00     0.064 A 
HETATM    2  C   UNK N   1      25.580  25.558  -5.317  0.00  0.00     0.081 A 
HETATM    3  C   UNK N   1      26.433  26.725  -3.365  0.00  0.00     0.020 A 
HETATM    4  C   UNK N   1      24.906  26.724  -5.700  0.00  0.00     0.037 A 
HETATM    5  C   UNK N   1      25.757  27.881  -3.757  0.00  0.00     0.001 A 
HETATM    6  C   UNK N   1      24.994  27.881  -4.924  0.00  0.00     0.003 A 
ENDROOT
BRANCH   1   7
HETATM    7  C   UNK N   1      27.100  24.351  -3.661  0.00  0.00     0.252 C 
HETATM    8  O   UNK N   1      26.869  23.858  -2.571  0.00  0.00    -0.268 OA
HETATM    9  N   UNK N   1      28.044  23.795  -4.450  0.00  0.00    -0.366 N 
HETATM   10  H   UNK N   1      28.240  24.184  -5.333  0.00  0.00     0.159 HD
HETATM   11  H   UNK N   1      28.537  23.000  -4.143  0.00  0.00     0.159 HD
ENDBRANCH   1   7
BRANCH   2  12
HETATM   12  O   UNK N   1      25.473  24.463  -6.087  0.00  0.00    -0.360 OA
HETATM   13  H   UNK N   1      25.455  24.546  -7.021  0.00  0.00     0.217 HD
ENDBRANCH   2  12
TORSDOF 2
ENDMDL
MODEL 5
REMARK VINA RESULT:      -4.7      9.972     11.364
REMARK  2 active torsions:
REMARK  status: ('A' for Active; 'I' for Inactive)
REMARK    1  A    between atoms: O_1  and  C_5 
REMARK       I    between atoms: N_3  and  C_10 
REMARK    2  A    between atoms: C_4  and  C_10 
ROOT
HETATM    1  C   UNK N   1      23.512  12.307  10.606  0.00  0.00     0.064 A 
HETATM    2  C   UNK N   1      24.745  12.894  10.223  0.00  0.00     0.081 A 
HETATM    3  C   UNK N   1      22.558  12.028   9.616  0.00  0.00     0.020 A 
HETATM    4  C   UNK N   1      24.988  13.184   8.875  0.00  0.00     0.037 A 
HETATM    5  C   UNK N   1      22.810  12.321   8.276  0.00  0.00     0.001 A 
HETATM    6  C   UNK N   1      24.024  12.898   7.905  0.00  0.00     0.003 A 
ENDROOT
BRANCH   1   7
HETATM    7  C   UNK N   1      23.185  11.973  12.019  0.00  0.00     0.252 C 
HETATM    8  O   UNK N   1      24.039  12.020  12.888  0.00  0.00    -0.268 OA
HETATM    9  N   UNK N   1      21.927  11.610  12.350  0.00  0.00    -0.366 N 
HETATM   10  H   UNK N   1      21.229  11.568  11.656  0.00  0.00     0.159 HD
HETATM   11  H   UNK N   1      21.708  11.388  13.283  0.00  0.00     0.159 HD
ENDBRANCH   1   7
BRANCH   2  12
HETATM   12  O   UNK N   1      25.693  13.182  11.130  0.00  0.00    -0.360 OA
HETATM   13  H   UNK N   1      26.557  13.412  10.848  0.00  0.00     0.217 HD
ENDBRANCH   2  12
TORSDOF 2
ENDMDL
MODEL 6
REMARK VINA RESULT:      -4.6      1.739      2.544
REMARK  2 active torsions:
REMARK  status: ('A' for Active; 'I' for Inactive)
REMARK    1  A    between atoms: O_1  and  C_5 
REMARK       I    between atoms: N_3  and  C_10 
REMARK    2  A    between atoms: C_4  and  C_10 
ROOT
HETATM    1  C   UNK N   1      34.235  16.822   8.926  0.00  0.00     0.064 A 
HETATM    2  C   UNK N   1      34.297  17.941   8.057  0.00  0.00     0.081 A 
HETATM    3  C   UNK N   1      33.436  15.727   8.563  0.00  0.00     0.020 A 
HETATM    4  C   UNK N   1      33.567  17.936   6.862  0.00  0.00     0.037 A 
HETATM    5  C   UNK N   1      32.713  15.732   7.370  0.00  0.00     0.001 A 
HETATM    6  C   UNK N   1      32.778  16.835   6.520  0.00  0.00     0.003 A 
ENDROOT
BRANCH   1   7
HETATM    7  C   UNK N   1      34.983  16.758  10.210  0.00  0.00     0.252 C 
HETATM    8  O   UNK N   1      35.903  17.524  10.439  0.00  0.00    -0.268 OA
HETATM    9  N   UNK N   1      34.642  15.841  11.141  0.00  0.00    -0.366 N 
HETATM   10  H   UNK N   1      33.900  15.216  10.968  0.00  0.00     0.159 HD
HETATM   11  H   UNK N   1      35.135  15.796  11.992  0.00  0.00     0.159 HD
ENDBRANCH   1   7
BRANCH   2  12
HETATM   12  O   UNK N   1      35.045  19.016   8.356  0.00  0.00    -0.360 OA
HETATM   13  H   UNK N   1      35.253  19.644   7.690  0.00  0.00     0.217 HD
ENDBRANCH   2  12
TORSDOF 2
ENDMDL
MODEL 7
REMARK VINA RESULT:      -4.6     13.514     14.076
REMARK  2 active torsions:
REMARK  status: ('A' for Active; 'I' for Inactive)
REMARK    1  A    between atoms: O_1  and  C_5 
REMARK       I    between atoms: N_3  and  C_10 
REMARK    2  A    between atoms: C_4  and  C_10 
ROOT
HETATM    1  C   UNK N   1      20.642  19.019   2.035  0.00  0.00     0.064 A 
HETATM    2  C   UNK N   1      20.367  17.940   1.156  0.00  0.00     0.081 A 
HETATM    3  C   UNK N   1      20.623  18.787   3.418  0.00  0.00     0.020 A 
HETATM    4  C   UNK N   1      20.082  16.673   1.680  0.00  0.00     0.037 A 
HETATM    5  C   UNK N   1      20.338  17.521   3.929  0.00  0.00     0.001 A 
HETATM    6  C   UNK N   1      20.067  16.464   3.060  0.00  0.00     0.003 A 
ENDROOT
BRANCH   1   7
HETATM    7  C   UNK N   1      20.953  20.391   1.550  0.00  0.00     0.252 C 
HETATM    8  O   UNK N   1      21.718  21.115   2.164  0.00  0.00    -0.268 OA
HETATM    9  N   UNK N   1      20.382  20.847   0.415  0.00  0.00    -0.366 N 
HETATM   10  H   UNK N   1      19.762  20.272  -0.091  0.00  0.00     0.159 HD
HETATM   11  H   UNK N   1      20.586  21.754   0.091  0.00  0.00     0.159 HD
ENDBRANCH   1   7
BRANCH   2  12
HETATM   12  O   UNK N   1      20.372  18.105  -0.177  0.00  0.00    -0.360 OA
HETATM   13  H   UNK N   1      20.969  17.615  -0.708  0.00  0.00     0.217 HD
ENDBRANCH   2  12
TORSDOF 2
ENDMDL
MODEL 8
REMARK VINA RESULT:      -4.5      8.684      9.678
REMARK  2 active torsions:
REMARK  status: ('A' for Active; 'I' for Inactive)
REMARK    1  A    between atoms: O_1  and  C_5 
REMARK       I    between atoms: N_3  and  C_10 
REMARK    2  A    between atoms: C_4  and  C_10 
ROOT
HETATM    1  C   UNK N   1      35.753  12.658  14.952  0.00  0.00     0.064 A 
HETATM    2  C   UNK N   1      34.706  12.216  14.104  0.00  0.00     0.081 A 
HETATM    3  C   UNK N   1      36.053  11.913  16.102  0.00  0.00     0.020 A 
HETATM    4  C   UNK N   1      33.995  11.054  14.425  0.00  0.00     0.037 A 
HETATM    5  C   UNK N   1      35.338  10.756  16.412  0.00  0.00     0.001 A 
HETATM    6  C   UNK N   1      34.310  10.326  15.574  0.00  0.00     0.003 A 
ENDROOT
BRANCH   1   7
HETATM    7  C   UNK N   1      36.551  13.883  14.674  0.00  0.00     0.252 C 
HETATM    8  O   UNK N   1      36.993  14.564  15.584  0.00  0.00    -0.268 OA
HETATM    9  N   UNK N   1      36.792  14.252  13.398  0.00  0.00    -0.366 N 
HETATM   10  H   UNK N   1      36.440  13.711  12.654  0.00  0.00     0.159 HD
HETATM   11  H   UNK N   1      37.319  15.062  13.211  0.00  0.00     0.159 HD
ENDBRANCH   1   7
BRANCH   2  12
HETATM   12  O   UNK N   1      34.378  12.892  12.990  0.00  0.00    -0.360 OA
HETATM   13  H   UNK N   1      34.330  12.446  12.167  0.00  0.00     0.217 HD
ENDBRANCH   2  12
TORSDOF 2
ENDMDL
MODEL 9
REMARK VINA RESULT:      -4.5      9.970     11.298
REMARK  2 active torsions:
REMARK  status: ('A' for Active; 'I' for Inactive)
REMARK    1  A    between atoms: O_1  and  C_5 
REMARK       I    between atoms: N_3  and  C_10 
REMARK    2  A    between atoms: C_4  and  C_10 
ROOT
HETATM    1  C   UNK N   1      35.625  12.851  16.404  0.00  0.00     0.064 A 
HETATM    2  C   UNK N   1      35.753  11.454  16.612  0.00  0.00     0.081 A 
HETATM    3  C   UNK N   1      35.337  13.675  17.503  0.00  0.00     0.020 A 
HETATM    4  C   UNK N   1      35.592  10.925  17.898  0.00  0.00     0.037 A 
HETATM    5  C   UNK N   1      35.179  13.137  18.780  0.00  0.00     0.001 A 
HETATM    6  C   UNK N   1      35.306  11.763  18.978  0.00  0.00     0.003 A 
ENDROOT
BRANCH   1   7
HETATM    7  C   UNK N   1      35.782  13.484  15.067  0.00  0.00     0.252 C 
HETATM    8  O   UNK N   1      34.927  13.356  14.208  0.00  0.00    -0.268 OA
HETATM    9  N   UNK N   1      36.887  14.211  14.794  0.00  0.00    -0.366 N 
HETATM   10  H   UNK N   1      37.585  14.322  15.479  0.00  0.00     0.159 HD
HETATM   11  H   UNK N   1      36.994  14.630  13.910  0.00  0.00     0.159 HD
ENDBRANCH   1   7
BRANCH   2  12
HETATM   12  O   UNK N   1      36.028  10.620  15.596  0.00  0.00    -0.360 OA
HETATM   13  H   UNK N   1      36.899  10.294  15.478  0.00  0.00     0.217 HD
ENDBRANCH   2  12
TORSDOF 2
ENDMDL
