REMARK  2 active torsions:
REMARK  status: ('A' for Active; 'I' for Inactive)
REMARK    1  A    between atoms: O_1  and  C_5 
REMARK       I    between atoms: N_3  and  C_10 
REMARK    2  A    between atoms: C_4  and  C_10 
ROOT
HETATM    1  C   UNK N   1       3.575  -0.048   0.000  0.00  0.00     0.064 A 
HETATM    2  C   UNK N   1       2.373  -0.801  -0.000  0.00  0.00     0.081 A 
HETATM    3  C   UNK N   1       4.801  -0.730  -0.000  0.00  0.00     0.020 A 
HETATM    4  C   UNK N   1       2.429  -2.200  -0.000  0.00  0.00     0.037 A 
HETATM    5  C   UNK N   1       4.845  -2.124  -0.000  0.00  0.00     0.001 A 
HETATM    6  C   UNK N   1       3.660  -2.859  -0.000  0.00  0.00     0.003 A 
ENDROOT
BRANCH   1   7
HETATM    7  C   UNK N   1       3.592   1.440   0.000  0.00  0.00     0.252 C 
HETATM    8  O   UNK N   1       2.554   2.079   0.000  0.00  0.00    -0.268 OA
HETATM    9  N   UNK N   1       4.771   2.098   0.000  0.00  0.00    -0.366 N 
HETATM   10  H   UNK N   1       5.617   1.593   0.000  0.00  0.00     0.159 HD
HETATM   11  H   UNK N   1       4.786   3.082   0.000  0.00  0.00     0.159 HD
ENDBRANCH   1   7
BRANCH   2  12
HETATM   12  O   UNK N   1       1.172  -0.199   0.000  0.00  0.00    -0.360 OA
HETATM   13  H   UNK N   1       1.116   0.737   0.000  0.00  0.00     0.217 HD
ENDBRANCH   2  12
TORSDOF 2
