MODEL 1
REMARK VINA RESULT:      -9.2      0.000      0.000
REMARK  15 active torsions:
REMARK  status: ('A' for Active; 'I' for Inactive)
REMARK    1  A    between atoms: C_21  and  O_3 
REMARK    2  A    between atoms: O_3  and  C_26 
REMARK    3  A    between atoms: C_17  and  O_4 
REMARK    4  A    between atoms: C_18  and  O_5 
REMARK    5  A    between atoms: C_24  and  O_6 
REMARK    6  A    between atoms: O_6  and  C_28 
REMARK    7  A    between atoms: C_19  and  O_7 
REMARK    8  A    between atoms: C_20  and  O_8 
REMARK    9  A    between atoms: C_22  and  O_9 
REMARK   10  A    between atoms: C_23  and  O_10 
REMARK   11  A    between atoms: O_12  and  C_32 
REMARK   12  A    between atoms: O_14  and  C_42 
REMARK   13  A    between atoms: O_15  and  C_40 
REMARK   14  A    between atoms: C_16  and  C_26 
REMARK   15  A    between atoms: C_35  and  C_37 
ROOT
HETATM    1  O   UNK N   1      33.081  15.833   8.803  0.00  0.00    -0.348 OA
HETATM    2  C   UNK N   1      33.389  16.244   7.498  0.00  0.00     0.180 C 
HETATM    3  C   UNK N   1      33.734  17.734   7.495  0.00  0.00     0.180 C 
HETATM    4  C   UNK N   1      34.967  17.920   8.382  0.00  0.00     0.183 C 
HETATM    5  C   UNK N   1      34.786  17.225   9.731  0.00  0.00     0.205 C 
HETATM    6  C   UNK N   1      34.317  15.787   9.468  0.00  0.00     0.298 C 
ENDROOT
BRANCH   6   7
HETATM    7  O   UNK N   1      34.194  15.135  10.668  0.00  0.00    -0.318 OA
BRANCH   7   8
HETATM    8  C   UNK N   1      34.955  14.105  11.097  0.00  0.00     0.077 A 
HETATM    9  C   UNK N   1      34.803  13.720  12.410  0.00  0.00     0.075 A 
HETATM   10  C   UNK N   1      35.528  12.670  12.934  0.00  0.00     0.095 A 
HETATM   11  O   UNK N   1      35.354  12.379  14.200  0.00  0.00    -0.309 OA
HETATM   12  C   UNK N   1      36.438  11.943  12.143  0.00  0.00     0.081 A 
HETATM   13  C   UNK N   1      35.988  11.406  14.827  0.00  0.00     0.090 A 
HETATM   14  C   UNK N   1      36.900  10.600  14.122  0.00  0.00     0.094 A 
HETATM   15  C   UNK N   1      37.125  10.871  12.762  0.00  0.00     0.190 A 
HETATM   16  O   UNK N   1      37.919  10.184  12.137  0.00  0.00    -0.287 OA
HETATM   17  C   UNK N   1      36.611  12.331  10.793  0.00  0.00     0.085 A 
HETATM   18  C   UNK N   1      35.873  13.415  10.277  0.00  0.00     0.074 A 
BRANCH  13  19
HETATM   19  C   UNK N   1      35.713  11.282  16.264  0.00  0.00     0.001 A 
HETATM   20  C   UNK N   1      35.505  12.475  16.967  0.00  0.00     0.053 A 
HETATM   21  C   UNK N   1      35.280  12.479  18.331  0.00  0.00     0.099 A 
HETATM   22  C   UNK N   1      35.251  11.273  19.036  0.00  0.00     0.101 A 
HETATM   23  C   UNK N   1      35.455  10.060  18.339  0.00  0.00     0.040 A 
HETATM   24  C   UNK N   1      35.690  10.064  16.954  0.00  0.00     0.017 A 
BRANCH  21  25
HETATM   25  O   UNK N   1      35.096  13.649  18.967  0.00  0.00    -0.358 OA
HETATM   26  H   UNK N   1      35.590  13.845  19.739  0.00  0.00     0.217 HD
ENDBRANCH  21  25
BRANCH  22  27
HETATM   27  O   UNK N   1      35.031  11.304  20.371  0.00  0.00    -0.353 OA
HETATM   28  C   UNK N   1      34.220  10.408  21.026  0.00  0.00     0.210 C 
ENDBRANCH  22  27
ENDBRANCH  13  19
BRANCH  17  29
HETATM   29  O   UNK N   1      37.479  11.684   9.995  0.00  0.00    -0.360 OA
HETATM   30  H   UNK N   1      37.971  10.955  10.319  0.00  0.00     0.217 HD
ENDBRANCH  17  29
ENDBRANCH   7   8
ENDBRANCH   6   7
BRANCH   5  31
HETATM   31  O   UNK N   1      35.996  17.223  10.428  0.00  0.00    -0.388 OA
HETATM   32  H   UNK N   1      36.479  16.506  10.869  0.00  0.00     0.210 HD
ENDBRANCH   5  31
BRANCH   2  33
HETATM   33  C   UNK N   1      32.264  15.887   6.552  0.00  0.00     0.205 C 
BRANCH  33  34
HETATM   34  O   UNK N   1      31.115  15.726   7.322  0.00  0.00    -0.356 OA
BRANCH  34  35
HETATM   35  C   UNK N   1      30.361  16.888   7.164  0.00  0.00     0.291 C 
HETATM   36  O   UNK N   1      29.506  16.710   6.062  0.00  0.00    -0.351 OA
HETATM   37  C   UNK N   1      28.862  17.935   5.822  0.00  0.00     0.152 C 
HETATM   38  C   UNK N   1      27.832  18.175   6.930  0.00  0.00     0.178 C 
HETATM   39  C   UNK N   1      28.193  17.878   4.462  0.00  0.00     0.042 C 
HETATM   40  C   UNK N   1      28.593  18.296   8.247  0.00  0.00     0.183 C 
HETATM   41  C   UNK N   1      29.537  17.112   8.438  0.00  0.00     0.204 C 
BRANCH  38  42
HETATM   42  O   UNK N   1      27.123  19.355   6.695  0.00  0.00    -0.390 OA
HETATM   43  H   UNK N   1      26.370  19.464   6.093  0.00  0.00     0.210 HD
ENDBRANCH  38  42
BRANCH  40  44
HETATM   44  O   UNK N   1      27.697  18.365   9.316  0.00  0.00    -0.390 OA
HETATM   45  H   UNK N   1      27.428  17.590   9.835  0.00  0.00     0.210 HD
ENDBRANCH  40  44
BRANCH  41  46
HETATM   46  O   UNK N   1      30.397  17.380   9.502  0.00  0.00    -0.388 OA
HETATM   47  H   UNK N   1      30.721  18.239   9.816  0.00  0.00     0.210 HD
ENDBRANCH  41  46
ENDBRANCH  34  35
ENDBRANCH  33  34
ENDBRANCH   2  33
BRANCH   4  48
HETATM   48  O   UNK N   1      35.234  19.278   8.567  0.00  0.00    -0.390 OA
HETATM   49  H   UNK N   1      35.282  19.684   9.445  0.00  0.00     0.210 HD
ENDBRANCH   4  48
BRANCH   3  50
HETATM   50  O   UNK N   1      34.040  18.150   6.198  0.00  0.00    -0.390 OA
HETATM   51  H   UNK N   1      33.571  17.869   5.397  0.00  0.00     0.210 HD
ENDBRANCH   3  50
TORSDOF 15
ENDMDL
MODEL 2
REMARK VINA RESULT:      -9.1      9.633     13.252
REMARK  15 active torsions:
REMARK  status: ('A' for Active; 'I' for Inactive)
REMARK    1  A    between atoms: C_21  and  O_3 
REMARK    2  A    between atoms: O_3  and  C_26 
REMARK    3  A    between atoms: C_17  and  O_4 
REMARK    4  A    between atoms: C_18  and  O_5 
REMARK    5  A    between atoms: C_24  and  O_6 
REMARK    6  A    between atoms: O_6  and  C_28 
REMARK    7  A    between atoms: C_19  and  O_7 
REMARK    8  A    between atoms: C_20  and  O_8 
REMARK    9  A    between atoms: C_22  and  O_9 
REMARK   10  A    between atoms: C_23  and  O_10 
REMARK   11  A    between atoms: O_12  and  C_32 
REMARK   12  A    between atoms: O_14  and  C_42 
REMARK   13  A    between atoms: O_15  and  C_40 
REMARK   14  A    between atoms: C_16  and  C_26 
REMARK   15  A    between atoms: C_35  and  C_37 
ROOT
HETATM    1  O   UNK N   1      21.962  18.001   3.343  0.00  0.00    -0.348 OA
HETATM    2  C   UNK N   1      22.302  19.332   3.626  0.00  0.00     0.180 C 
HETATM    3  C   UNK N   1      21.867  20.232   2.467  0.00  0.00     0.180 C 
HETATM    4  C   UNK N   1      20.346  20.119   2.345  0.00  0.00     0.183 C 
HETATM    5  C   UNK N   1      19.903  18.657   2.327  0.00  0.00     0.205 C 
HETATM    6  C   UNK N   1      20.570  17.940   3.509  0.00  0.00     0.298 C 
ENDROOT
BRANCH   6   7
HETATM    7  O   UNK N   1      20.145  16.636   3.534  0.00  0.00    -0.318 OA
BRANCH   7   8
HETATM    8  C   UNK N   1      20.930  15.545   3.671  0.00  0.00     0.077 A 
HETATM    9  C   UNK N   1      21.205  15.129   4.954  0.00  0.00     0.075 A 
HETATM   10  C   UNK N   1      21.986  14.019   5.193  0.00  0.00     0.095 A 
HETATM   11  O   UNK N   1      22.231  13.701   6.440  0.00  0.00    -0.309 OA
HETATM   12  C   UNK N   1      22.519  13.258   4.134  0.00  0.00     0.081 A 
HETATM   13  C   UNK N   1      22.968  12.668   6.806  0.00  0.00     0.090 A 
HETATM   14  C   UNK N   1      23.525  11.826   5.827  0.00  0.00     0.094 A 
HETATM   15  C   UNK N   1      23.296  12.125   4.475  0.00  0.00     0.190 A 
HETATM   16  O   UNK N   1      23.778  11.407   3.611  0.00  0.00    -0.287 OA
HETATM   17  C   UNK N   1      22.251  13.677   2.809  0.00  0.00     0.085 A 
HETATM   18  C   UNK N   1      21.463  14.823   2.582  0.00  0.00     0.074 A 
BRANCH  13  19
HETATM   19  C   UNK N   1      23.188  12.517   8.250  0.00  0.00     0.001 A 
HETATM   20  C   UNK N   1      24.365  13.074   8.766  0.00  0.00     0.053 A 
HETATM   21  C   UNK N   1      24.695  12.955  10.104  0.00  0.00     0.099 A 
HETATM   22  C   UNK N   1      23.841  12.272  10.973  0.00  0.00     0.101 A 
HETATM   23  C   UNK N   1      22.647  11.709  10.468  0.00  0.00     0.040 A 
HETATM   24  C   UNK N   1      22.322  11.827   9.107  0.00  0.00     0.017 A 
BRANCH  21  25
HETATM   25  O   UNK N   1      25.840  13.496  10.552  0.00  0.00    -0.358 OA
HETATM   26  H   UNK N   1      26.475  12.957  10.984  0.00  0.00     0.217 HD
ENDBRANCH  21  25
BRANCH  22  27
HETATM   27  O   UNK N   1      24.187  12.167  12.277  0.00  0.00    -0.353 OA
HETATM   28  C   UNK N   1      23.296  11.844  13.273  0.00  0.00     0.210 C 
ENDBRANCH  22  27
ENDBRANCH  13  19
BRANCH  17  29
HETATM   29  O   UNK N   1      22.748  12.999   1.758  0.00  0.00    -0.360 OA
HETATM   30  H   UNK N   1      22.809  12.064   1.780  0.00  0.00     0.217 HD
ENDBRANCH  17  29
ENDBRANCH   7   8
ENDBRANCH   6   7
BRANCH   5  31
HETATM   31  O   UNK N   1      18.512  18.583   2.436  0.00  0.00    -0.388 OA
HETATM   32  H   UNK N   1      17.894  17.858   2.253  0.00  0.00     0.210 HD
ENDBRANCH   5  31
BRANCH   2  33
HETATM   33  C   UNK N   1      23.775  19.445   3.953  0.00  0.00     0.205 C 
BRANCH  33  34
HETATM   34  O   UNK N   1      24.004  18.667   5.086  0.00  0.00    -0.356 OA
BRANCH  34  35
HETATM   35  C   UNK N   1      25.287  18.139   4.955  0.00  0.00     0.291 C 
HETATM   36  O   UNK N   1      25.350  17.435   3.738  0.00  0.00    -0.351 OA
HETATM   37  C   UNK N   1      26.595  16.786   3.689  0.00  0.00     0.152 C 
HETATM   38  C   UNK N   1      27.688  17.834   3.453  0.00  0.00     0.178 C 
HETATM   39  C   UNK N   1      26.570  15.767   2.566  0.00  0.00     0.042 C 
HETATM   40  C   UNK N   1      27.695  18.769   4.660  0.00  0.00     0.183 C 
HETATM   41  C   UNK N   1      26.293  19.298   4.944  0.00  0.00     0.204 C 
BRANCH  38  42
HETATM   42  O   UNK N   1      28.937  17.223   3.334  0.00  0.00    -0.390 OA
HETATM   43  H   UNK N   1      29.138  16.286   3.490  0.00  0.00     0.210 HD
ENDBRANCH  38  42
BRANCH  40  44
HETATM   44  O   UNK N   1      28.568  19.836   4.436  0.00  0.00    -0.390 OA
HETATM   45  H   UNK N   1      29.509  19.810   4.672  0.00  0.00     0.210 HD
ENDBRANCH  40  44
BRANCH  41  46
HETATM   46  O   UNK N   1      26.285  19.926   6.188  0.00  0.00    -0.388 OA
HETATM   47  H   UNK N   1      26.982  20.459   6.601  0.00  0.00     0.210 HD
ENDBRANCH  41  46
ENDBRANCH  34  35
ENDBRANCH  33  34
ENDBRANCH   2  33
BRANCH   4  48
HETATM   48  O   UNK N   1      19.899  20.777   1.199  0.00  0.00    -0.390 OA
HETATM   49  H   UNK N   1      18.988  20.702   0.877  0.00  0.00     0.210 HD
ENDBRANCH   4  48
BRANCH   3  50
HETATM   50  O   UNK N   1      22.203  21.559   2.744  0.00  0.00    -0.390 OA
HETATM   51  H   UNK N   1      22.686  21.860   3.530  0.00  0.00     0.210 HD
ENDBRANCH   3  50
TORSDOF 15
ENDMDL
MODEL 3
REMARK VINA RESULT:      -8.9      6.331     12.374
REMARK  15 active torsions:
REMARK  status: ('A' for Active; 'I' for Inactive)
REMARK    1  A    between atoms: C_21  and  O_3 
REMARK    2  A    between atoms: O_3  and  C_26 
REMARK    3  A    between atoms: C_17  and  O_4 
REMARK    4  A    between atoms: C_18  and  O_5 
REMARK    5  A    between atoms: C_24  and  O_6 
REMARK    6  A    between atoms: O_6  and  C_28 
REMARK    7  A    between atoms: C_19  and  O_7 
REMARK    8  A    between atoms: C_20  and  O_8 
REMARK    9  A    between atoms: C_22  and  O_9 
REMARK   10  A    between atoms: C_23  and  O_10 
REMARK   11  A    between atoms: O_12  and  C_32 
REMARK   12  A    between atoms: O_14  and  C_42 
REMARK   13  A    between atoms: O_15  and  C_40 
REMARK   14  A    between atoms: C_16  and  C_26 
REMARK   15  A    between atoms: C_35  and  C_37 
ROOT
HETATM    1  O   UNK N   1      22.430  18.504   4.332  0.00  0.00    -0.348 OA
HETATM    2  C   UNK N   1      21.319  18.274   3.506  0.00  0.00     0.180 C 
HETATM    3  C   UNK N   1      20.682  19.608   3.116  0.00  0.00     0.180 C 
HETATM    4  C   UNK N   1      21.730  20.405   2.336  0.00  0.00     0.183 C 
HETATM    5  C   UNK N   1      23.065  20.435   3.078  0.00  0.00     0.205 C 
HETATM    6  C   UNK N   1      23.424  18.995   3.472  0.00  0.00     0.298 C 
ENDROOT
BRANCH   6   7
HETATM    7  O   UNK N   1      24.644  18.998   4.099  0.00  0.00    -0.318 OA
BRANCH   7   8
HETATM    8  C   UNK N   1      25.624  18.082   3.941  0.00  0.00     0.077 A 
HETATM    9  C   UNK N   1      26.712  18.181   4.778  0.00  0.00     0.075 A 
HETATM   10  C   UNK N   1      27.756  17.283   4.699  0.00  0.00     0.095 A 
HETATM   11  O   UNK N   1      28.773  17.457   5.507  0.00  0.00    -0.309 OA
HETATM   12  C   UNK N   1      27.741  16.222   3.773  0.00  0.00     0.081 A 
HETATM   13  C   UNK N   1      29.838  16.676   5.531  0.00  0.00     0.090 A 
HETATM   14  C   UNK N   1      29.911  15.570   4.664  0.00  0.00     0.094 A 
HETATM   15  C   UNK N   1      28.848  15.341   3.776  0.00  0.00     0.190 A 
HETATM   16  O   UNK N   1      28.899  14.389   3.013  0.00  0.00    -0.287 OA
HETATM   17  C   UNK N   1      26.631  16.112   2.901  0.00  0.00     0.085 A 
HETATM   18  C   UNK N   1      25.580  17.047   2.984  0.00  0.00     0.074 A 
BRANCH  13  19
HETATM   19  C   UNK N   1      30.906  17.075   6.455  0.00  0.00     0.001 A 
HETATM   20  C   UNK N   1      32.198  17.161   5.920  0.00  0.00     0.053 A 
HETATM   21  C   UNK N   1      33.286  17.487   6.709  0.00  0.00     0.099 A 
HETATM   22  C   UNK N   1      33.107  17.745   8.070  0.00  0.00     0.101 A 
HETATM   23  C   UNK N   1      31.808  17.668   8.623  0.00  0.00     0.040 A 
HETATM   24  C   UNK N   1      30.709  17.329   7.818  0.00  0.00     0.017 A 
BRANCH  21  25
HETATM   25  O   UNK N   1      34.509  17.546   6.155  0.00  0.00    -0.358 OA
HETATM   26  H   UNK N   1      35.219  17.067   6.535  0.00  0.00     0.217 HD
ENDBRANCH  21  25
BRANCH  22  27
HETATM   27  O   UNK N   1      34.188  18.060   8.821  0.00  0.00    -0.353 OA
HETATM   28  C   UNK N   1      34.854  17.151   9.608  0.00  0.00     0.210 C 
ENDBRANCH  22  27
ENDBRANCH  13  19
BRANCH  17  29
HETATM   29  O   UNK N   1      26.571  15.129   1.984  0.00  0.00    -0.360 OA
HETATM   30  H   UNK N   1      27.355  14.779   1.609  0.00  0.00     0.217 HD
ENDBRANCH  17  29
ENDBRANCH   7   8
ENDBRANCH   6   7
BRANCH   5  31
HETATM   31  O   UNK N   1      24.053  20.974   2.252  0.00  0.00    -0.388 OA
HETATM   32  H   UNK N   1      24.113  21.833   1.804  0.00  0.00     0.210 HD
ENDBRANCH   5  31
BRANCH   2  33
HETATM   33  C   UNK N   1      20.353  17.319   4.173  0.00  0.00     0.205 C 
BRANCH  33  34
HETATM   34  O   UNK N   1      20.116  16.282   3.275  0.00  0.00    -0.356 OA
BRANCH  34  35
HETATM   35  C   UNK N   1      21.364  15.785   2.899  0.00  0.00     0.291 C 
HETATM   36  O   UNK N   1      21.836  14.957   3.934  0.00  0.00    -0.351 OA
HETATM   37  C   UNK N   1      23.151  14.585   3.611  0.00  0.00     0.152 C 
HETATM   38  C   UNK N   1      23.109  13.579   2.456  0.00  0.00     0.178 C 
HETATM   39  C   UNK N   1      23.801  13.974   4.838  0.00  0.00     0.042 C 
HETATM   40  C   UNK N   1      22.514  14.294   1.246  0.00  0.00     0.183 C 
HETATM   41  C   UNK N   1      21.196  14.972   1.609  0.00  0.00     0.204 C 
BRANCH  38  42
HETATM   42  O   UNK N   1      24.395  13.134   2.145  0.00  0.00    -0.390 OA
HETATM   43  H   UNK N   1      25.228  13.588   2.351  0.00  0.00     0.210 HD
ENDBRANCH  38  42
BRANCH  40  44
HETATM   44  O   UNK N   1      22.310  13.388   0.204  0.00  0.00    -0.390 OA
HETATM   45  H   UNK N   1      23.010  12.813  -0.145  0.00  0.00     0.210 HD
ENDBRANCH  40  44
BRANCH  41  46
HETATM   46  O   UNK N   1      20.819  15.823   0.573  0.00  0.00    -0.388 OA
HETATM   47  H   UNK N   1      19.932  15.984   0.215  0.00  0.00     0.210 HD
ENDBRANCH  41  46
ENDBRANCH  34  35
ENDBRANCH  33  34
ENDBRANCH   2  33
BRANCH   4  48
HETATM   48  O   UNK N   1      21.277  21.704   2.099  0.00  0.00    -0.390 OA
HETATM   49  H   UNK N   1      21.833  22.383   1.689  0.00  0.00     0.210 HD
ENDBRANCH   4  48
BRANCH   3  50
HETATM   50  O   UNK N   1      19.576  19.385   2.294  0.00  0.00    -0.390 OA
HETATM   51  H   UNK N   1      19.052  20.079   1.862  0.00  0.00     0.210 HD
ENDBRANCH   3  50
TORSDOF 15
ENDMDL
MODEL 4
REMARK VINA RESULT:      -8.9      7.465     13.911
REMARK  15 active torsions:
REMARK  status: ('A' for Active; 'I' for Inactive)
REMARK    1  A    between atoms: C_21  and  O_3 
REMARK    2  A    between atoms: O_3  and  C_26 
REMARK    3  A    between atoms: C_17  and  O_4 
REMARK    4  A    between atoms: C_18  and  O_5 
REMARK    5  A    between atoms: C_24  and  O_6 
REMARK    6  A    between atoms: O_6  and  C_28 
REMARK    7  A    between atoms: C_19  and  O_7 
REMARK    8  A    between atoms: C_20  and  O_8 
REMARK    9  A    between atoms: C_22  and  O_9 
REMARK   10  A    between atoms: C_23  and  O_10 
REMARK   11  A    between atoms: O_12  and  C_32 
REMARK   12  A    between atoms: O_14  and  C_42 
REMARK   13  A    between atoms: O_15  and  C_40 
REMARK   14  A    between atoms: C_16  and  C_26 
REMARK   15  A    between atoms: C_35  and  C_37 
ROOT
HETATM    1  O   UNK N   1      21.445  15.237   6.443  0.00  0.00    -0.348 OA
HETATM    2  C   UNK N   1      21.508  13.874   6.119  0.00  0.00     0.180 C 
HETATM    3  C   UNK N   1      20.093  13.317   5.954  0.00  0.00     0.180 C 
HETATM    4  C   UNK N   1      19.433  14.077   4.800  0.00  0.00     0.183 C 
HETATM    5  C   UNK N   1      19.599  15.586   4.969  0.00  0.00     0.205 C 
HETATM    6  C   UNK N   1      21.080  15.877   5.248  0.00  0.00     0.298 C 
ENDROOT
BRANCH   6   7
HETATM    7  O   UNK N   1      21.254  17.233   5.356  0.00  0.00    -0.318 OA
BRANCH   7   8
HETATM    8  C   UNK N   1      22.261  17.953   4.817  0.00  0.00     0.077 A 
HETATM    9  C   UNK N   1      23.541  17.626   5.206  0.00  0.00     0.075 A 
HETATM   10  C   UNK N   1      24.634  18.297   4.700  0.00  0.00     0.095 A 
HETATM   11  O   UNK N   1      25.819  17.951   5.139  0.00  0.00    -0.309 OA
HETATM   12  C   UNK N   1      24.485  19.329   3.753  0.00  0.00     0.081 A 
HETATM   13  C   UNK N   1      26.945  18.516   4.742  0.00  0.00     0.090 A 
HETATM   14  C   UNK N   1      26.911  19.540   3.778  0.00  0.00     0.094 A 
HETATM   15  C   UNK N   1      25.664  19.949   3.277  0.00  0.00     0.190 A 
HETATM   16  O   UNK N   1      25.617  20.841   2.444  0.00  0.00    -0.287 OA
HETATM   17  C   UNK N   1      23.175  19.681   3.348  0.00  0.00     0.085 A 
HETATM   18  C   UNK N   1      22.068  18.996   3.887  0.00  0.00     0.074 A 
BRANCH  13  19
HETATM   19  C   UNK N   1      28.168  18.043   5.404  0.00  0.00     0.001 A 
HETATM   20  C   UNK N   1      28.140  17.984   6.803  0.00  0.00     0.053 A 
HETATM   21  C   UNK N   1      29.249  17.593   7.530  0.00  0.00     0.099 A 
HETATM   22  C   UNK N   1      30.428  17.242   6.869  0.00  0.00     0.101 A 
HETATM   23  C   UNK N   1      30.470  17.292   5.457  0.00  0.00     0.040 A 
HETATM   24  C   UNK N   1      29.342  17.697   4.724  0.00  0.00     0.017 A 
BRANCH  21  25
HETATM   25  O   UNK N   1      29.181  17.562   8.873  0.00  0.00    -0.358 OA
HETATM   26  H   UNK N   1      28.400  17.843   9.308  0.00  0.00     0.217 HD
ENDBRANCH  21  25
BRANCH  22  27
HETATM   27  O   UNK N   1      31.501  16.865   7.604  0.00  0.00    -0.353 OA
HETATM   28  C   UNK N   1      32.559  17.697   7.880  0.00  0.00     0.210 C 
ENDBRANCH  22  27
ENDBRANCH  13  19
BRANCH  17  29
HETATM   29  O   UNK N   1      22.971  20.671   2.461  0.00  0.00    -0.360 OA
HETATM   30  H   UNK N   1      22.544  21.463   2.721  0.00  0.00     0.217 HD
ENDBRANCH  17  29
ENDBRANCH   7   8
ENDBRANCH   6   7
BRANCH   5  31
HETATM   31  O   UNK N   1      19.186  16.240   3.805  0.00  0.00    -0.388 OA
HETATM   32  H   UNK N   1      18.676  17.055   3.677  0.00  0.00     0.210 HD
ENDBRANCH   5  31
BRANCH   2  33
HETATM   33  C   UNK N   1      22.332  13.123   7.142  0.00  0.00     0.205 C 
BRANCH  33  34
HETATM   34  O   UNK N   1      23.142  14.058   7.782  0.00  0.00    -0.356 OA
BRANCH  34  35
HETATM   35  C   UNK N   1      23.082  13.773   9.145  0.00  0.00     0.291 C 
HETATM   36  O   UNK N   1      21.937  12.990   9.378  0.00  0.00    -0.351 OA
HETATM   37  C   UNK N   1      21.807  12.836  10.769  0.00  0.00     0.152 C 
HETATM   38  C   UNK N   1      22.895  11.878  11.262  0.00  0.00     0.178 C 
HETATM   39  C   UNK N   1      20.425  12.288  11.072  0.00  0.00     0.042 C 
HETATM   40  C   UNK N   1      24.245  12.537  10.989  0.00  0.00     0.183 C 
HETATM   41  C   UNK N   1      24.342  12.991   9.535  0.00  0.00     0.204 C 
BRANCH  38  42
HETATM   42  O   UNK N   1      22.763  11.647  12.632  0.00  0.00    -0.390 OA
HETATM   43  H   UNK N   1      21.961  11.349  13.092  0.00  0.00     0.210 HD
ENDBRANCH  38  42
BRANCH  40  44
HETATM   44  O   UNK N   1      25.282  11.648  11.279  0.00  0.00    -0.390 OA
HETATM   45  H   UNK N   1      26.188  11.935  11.476  0.00  0.00     0.210 HD
ENDBRANCH  40  44
BRANCH  41  46
HETATM   46  O   UNK N   1      25.459  13.811   9.386  0.00  0.00    -0.388 OA
HETATM   47  H   UNK N   1      26.382  13.555   9.233  0.00  0.00     0.210 HD
ENDBRANCH  41  46
ENDBRANCH  34  35
ENDBRANCH  33  34
ENDBRANCH   2  33
BRANCH   4  48
HETATM   48  O   UNK N   1      18.081  13.743   4.707  0.00  0.00    -0.390 OA
HETATM   49  H   UNK N   1      17.477  14.185   4.092  0.00  0.00     0.210 HD
ENDBRANCH   4  48
BRANCH   3  50
HETATM   50  O   UNK N   1      20.149  11.960   5.631  0.00  0.00    -0.390 OA
HETATM   51  H   UNK N   1      19.380  11.376   5.538  0.00  0.00     0.210 HD
ENDBRANCH   3  50
TORSDOF 15
ENDMDL
MODEL 5
REMARK VINA RESULT:      -8.6      9.503     13.262
REMARK  15 active torsions:
REMARK  status: ('A' for Active; 'I' for Inactive)
REMARK    1  A    between atoms: C_21  and  O_3 
REMARK    2  A    between atoms: O_3  and  C_26 
REMARK    3  A    between atoms: C_17  and  O_4 
REMARK    4  A    between atoms: C_18  and  O_5 
REMARK    5  A    between atoms: C_24  and  O_6 
REMARK    6  A    between atoms: O_6  and  C_28 
REMARK    7  A    between atoms: C_19  and  O_7 
REMARK    8  A    between atoms: C_20  and  O_8 
REMARK    9  A    between atoms: C_22  and  O_9 
REMARK   10  A    between atoms: C_23  and  O_10 
REMARK   11  A    between atoms: O_12  and  C_32 
REMARK   12  A    between atoms: O_14  and  C_42 
REMARK   13  A    between atoms: O_15  and  C_40 
REMARK   14  A    between atoms: C_16  and  C_26 
REMARK   15  A    between atoms: C_35  and  C_37 
ROOT
HETATM    1  O   UNK N   1      22.319  18.089   3.374  0.00  0.00    -0.348 OA
HETATM    2  C   UNK N   1      22.525  19.434   3.715  0.00  0.00     0.180 C 
HETATM    3  C   UNK N   1      22.194  20.326   2.517  0.00  0.00     0.180 C 
HETATM    4  C   UNK N   1      20.715  20.116   2.185  0.00  0.00     0.183 C 
HETATM    5  C   UNK N   1      20.378  18.629   2.091  0.00  0.00     0.205 C 
HETATM    6  C   UNK N   1      20.923  17.934   3.346  0.00  0.00     0.298 C 
ENDROOT
BRANCH   6   7
HETATM    7  O   UNK N   1      20.589  16.605   3.298  0.00  0.00    -0.318 OA
BRANCH   7   8
HETATM    8  C   UNK N   1      21.412  15.566   3.559  0.00  0.00     0.077 A 
HETATM    9  C   UNK N   1      21.451  15.110   4.857  0.00  0.00     0.075 A 
HETATM   10  C   UNK N   1      22.253  14.047   5.216  0.00  0.00     0.095 A 
HETATM   11  O   UNK N   1      22.262  13.687   6.476  0.00  0.00    -0.309 OA
HETATM   12  C   UNK N   1      23.047  13.376   4.266  0.00  0.00     0.081 A 
HETATM   13  C   UNK N   1      22.988  12.692   6.953  0.00  0.00     0.090 A 
HETATM   14  C   UNK N   1      23.796  11.939   6.084  0.00  0.00     0.094 A 
HETATM   15  C   UNK N   1      23.825  12.285   4.723  0.00  0.00     0.190 A 
HETATM   16  O   UNK N   1      24.527  11.645   3.955  0.00  0.00    -0.287 OA
HETATM   17  C   UNK N   1      23.023  13.837   2.928  0.00  0.00     0.085 A 
HETATM   18  C   UNK N   1      22.210  14.935   2.581  0.00  0.00     0.074 A 
BRANCH  13  19
HETATM   19  C   UNK N   1      22.921  12.489   8.406  0.00  0.00     0.001 A 
HETATM   20  C   UNK N   1      21.655  12.594   8.995  0.00  0.00     0.053 A 
HETATM   21  C   UNK N   1      21.481  12.463  10.361  0.00  0.00     0.099 A 
HETATM   22  C   UNK N   1      22.583  12.214  11.182  0.00  0.00     0.101 A 
HETATM   23  C   UNK N   1      23.866  12.101  10.602  0.00  0.00     0.040 A 
HETATM   24  C   UNK N   1      24.037  12.243   9.214  0.00  0.00     0.017 A 
BRANCH  21  25
HETATM   25  O   UNK N   1      20.249  12.582  10.885  0.00  0.00    -0.358 OA
HETATM   26  H   UNK N   1      19.497  12.373  10.365  0.00  0.00     0.217 HD
ENDBRANCH  21  25
BRANCH  22  27
HETATM   27  O   UNK N   1      22.387  12.092  12.516  0.00  0.00    -0.353 OA
HETATM   28  C   UNK N   1      23.412  11.983  13.425  0.00  0.00     0.210 C 
ENDBRANCH  22  27
ENDBRANCH  13  19
BRANCH  17  29
HETATM   29  O   UNK N   1      23.775  13.247   1.982  0.00  0.00    -0.360 OA
HETATM   30  H   UNK N   1      23.376  12.870   1.223  0.00  0.00     0.217 HD
ENDBRANCH  17  29
ENDBRANCH   7   8
ENDBRANCH   6   7
BRANCH   5  31
HETATM   31  O   UNK N   1      18.993  18.462   2.005  0.00  0.00    -0.388 OA
HETATM   32  H   UNK N   1      18.423  18.225   1.257  0.00  0.00     0.210 HD
ENDBRANCH   5  31
BRANCH   2  33
HETATM   33  C   UNK N   1      23.928  19.637   4.244  0.00  0.00     0.205 C 
BRANCH  33  34
HETATM   34  O   UNK N   1      24.769  18.809   3.504  0.00  0.00    -0.356 OA
BRANCH  34  35
HETATM   35  C   UNK N   1      25.722  18.312   4.391  0.00  0.00     0.291 C 
HETATM   36  O   UNK N   1      25.413  16.966   4.658  0.00  0.00    -0.351 OA
HETATM   37  C   UNK N   1      26.289  16.522   5.663  0.00  0.00     0.152 C 
HETATM   38  C   UNK N   1      27.689  16.365   5.062  0.00  0.00     0.178 C 
HETATM   39  C   UNK N   1      25.781  15.199   6.205  0.00  0.00     0.042 C 
HETATM   40  C   UNK N   1      28.154  17.748   4.613  0.00  0.00     0.183 C 
HETATM   41  C   UNK N   1      27.103  18.413   3.730  0.00  0.00     0.204 C 
BRANCH  38  42
HETATM   42  O   UNK N   1      28.580  15.864   6.013  0.00  0.00    -0.390 OA
HETATM   43  H   UNK N   1      28.984  14.982   6.016  0.00  0.00     0.210 HD
ENDBRANCH  38  42
BRANCH  40  44
HETATM   44  O   UNK N   1      29.362  17.648   3.920  0.00  0.00    -0.390 OA
HETATM   45  H   UNK N   1      30.222  17.557   4.361  0.00  0.00     0.210 HD
ENDBRANCH  40  44
BRANCH  41  46
HETATM   46  O   UNK N   1      27.434  19.756   3.558  0.00  0.00    -0.388 OA
HETATM   47  H   UNK N   1      27.687  20.408   4.230  0.00  0.00     0.210 HD
ENDBRANCH  41  46
ENDBRANCH  34  35
ENDBRANCH  33  34
ENDBRANCH   2  33
BRANCH   4  48
HETATM   48  O   UNK N   1      20.386  20.765   0.994  0.00  0.00    -0.390 OA
HETATM   49  H   UNK N   1      19.608  21.338   0.911  0.00  0.00     0.210 HD
ENDBRANCH   4  48
BRANCH   3  50
HETATM   50  O   UNK N   1      22.398  21.666   2.851  0.00  0.00    -0.390 OA
HETATM   51  H   UNK N   1      23.088  22.236   2.476  0.00  0.00     0.210 HD
ENDBRANCH   3  50
TORSDOF 15
ENDMDL
MODEL 6
REMARK VINA RESULT:      -8.6      5.417     10.877
REMARK  15 active torsions:
REMARK  status: ('A' for Active; 'I' for Inactive)
REMARK    1  A    between atoms: C_21  and  O_3 
REMARK    2  A    between atoms: O_3  and  C_26 
REMARK    3  A    between atoms: C_17  and  O_4 
REMARK    4  A    between atoms: C_18  and  O_5 
REMARK    5  A    between atoms: C_24  and  O_6 
REMARK    6  A    between atoms: O_6  and  C_28 
REMARK    7  A    between atoms: C_19  and  O_7 
REMARK    8  A    between atoms: C_20  and  O_8 
REMARK    9  A    between atoms: C_22  and  O_9 
REMARK   10  A    between atoms: C_23  and  O_10 
REMARK   11  A    between atoms: O_12  and  C_32 
REMARK   12  A    between atoms: O_14  and  C_42 
REMARK   13  A    between atoms: O_15  and  C_40 
REMARK   14  A    between atoms: C_16  and  C_26 
REMARK   15  A    between atoms: C_35  and  C_37 
ROOT
HETATM    1  O   UNK N   1      24.470  18.486   5.158  0.00  0.00    -0.348 OA
HETATM    2  C   UNK N   1      23.220  18.103   4.648  0.00  0.00     0.180 C 
HETATM    3  C   UNK N   1      22.445  19.343   4.199  0.00  0.00     0.180 C 
HETATM    4  C   UNK N   1      23.256  20.011   3.086  0.00  0.00     0.183 C 
HETATM    5  C   UNK N   1      24.717  20.185   3.497  0.00  0.00     0.205 C 
HETATM    6  C   UNK N   1      25.227  18.838   4.029  0.00  0.00     0.298 C 
ENDROOT
BRANCH   6   7
HETATM    7  O   UNK N   1      26.552  18.965   4.360  0.00  0.00    -0.318 OA
BRANCH   7   8
HETATM    8  C   UNK N   1      27.504  18.017   4.216  0.00  0.00     0.077 A 
HETATM    9  C   UNK N   1      28.484  17.965   5.181  0.00  0.00     0.075 A 
HETATM   10  C   UNK N   1      29.490  17.024   5.126  0.00  0.00     0.095 A 
HETATM   11  O   UNK N   1      30.407  17.054   6.062  0.00  0.00    -0.309 OA
HETATM   12  C   UNK N   1      29.543  16.069   4.092  0.00  0.00     0.081 A 
HETATM   13  C   UNK N   1      31.425  16.216   6.123  0.00  0.00     0.090 A 
HETATM   14  C   UNK N   1      31.557  15.206   5.154  0.00  0.00     0.094 A 
HETATM   15  C   UNK N   1      30.602  15.132   4.126  0.00  0.00     0.190 A 
HETATM   16  O   UNK N   1      30.706  14.264   3.273  0.00  0.00    -0.287 OA
HETATM   17  C   UNK N   1      28.545  16.114   3.089  0.00  0.00     0.085 A 
HETATM   18  C   UNK N   1      27.533  17.093   3.151  0.00  0.00     0.074 A 
BRANCH  13  19
HETATM   19  C   UNK N   1      32.388  16.455   7.205  0.00  0.00     0.001 A 
HETATM   20  C   UNK N   1      33.219  17.574   7.069  0.00  0.00     0.053 A 
HETATM   21  C   UNK N   1      34.191  17.870   8.007  0.00  0.00     0.099 A 
HETATM   22  C   UNK N   1      34.355  17.048   9.124  0.00  0.00     0.101 A 
HETATM   23  C   UNK N   1      33.521  15.917   9.278  0.00  0.00     0.040 A 
HETATM   24  C   UNK N   1      32.540  15.617   8.317  0.00  0.00     0.017 A 
BRANCH  21  25
HETATM   25  O   UNK N   1      34.973  18.949   7.830  0.00  0.00    -0.358 OA
HETATM   26  H   UNK N   1      35.661  18.929   7.193  0.00  0.00     0.217 HD
ENDBRANCH  21  25
BRANCH  22  27
HETATM   27  O   UNK N   1      35.314  17.358  10.027  0.00  0.00    -0.353 OA
HETATM   28  C   UNK N   1      35.722  16.503  11.023  0.00  0.00     0.210 C 
ENDBRANCH  22  27
ENDBRANCH  13  19
BRANCH  17  29
HETATM   29  O   UNK N   1      28.556  15.239   2.067  0.00  0.00    -0.360 OA
HETATM   30  H   UNK N   1      27.791  14.740   1.859  0.00  0.00     0.217 HD
ENDBRANCH  17  29
ENDBRANCH   7   8
ENDBRANCH   6   7
BRANCH   5  31
HETATM   31  O   UNK N   1      25.473  20.590   2.395  0.00  0.00    -0.388 OA
HETATM   32  H   UNK N   1      26.432  20.663   2.269  0.00  0.00     0.210 HD
ENDBRANCH   5  31
BRANCH   2  33
HETATM   33  C   UNK N   1      22.472  17.262   5.659  0.00  0.00     0.205 C 
BRANCH  33  34
HETATM   34  O   UNK N   1      21.846  16.236   4.956  0.00  0.00    -0.356 OA
BRANCH  34  35
HETATM   35  C   UNK N   1      21.922  15.098   5.757  0.00  0.00     0.291 C 
HETATM   36  O   UNK N   1      23.151  15.125   6.442  0.00  0.00    -0.351 OA
HETATM   37  C   UNK N   1      23.280  13.906   7.128  0.00  0.00     0.152 C 
HETATM   38  C   UNK N   1      22.309  13.902   8.313  0.00  0.00     0.178 C 
HETATM   39  C   UNK N   1      24.714  13.763   7.603  0.00  0.00     0.042 C 
HETATM   40  C   UNK N   1      20.893  13.972   7.746  0.00  0.00     0.183 C 
HETATM   41  C   UNK N   1      20.761  15.128   6.759  0.00  0.00     0.204 C 
BRANCH  38  42
HETATM   42  O   UNK N   1      22.450  12.732   9.061  0.00  0.00    -0.390 OA
HETATM   43  H   UNK N   1      22.453  12.664  10.029  0.00  0.00     0.210 HD
ENDBRANCH  38  42
BRANCH  40  44
HETATM   44  O   UNK N   1      19.967  14.123   8.780  0.00  0.00    -0.390 OA
HETATM   45  H   UNK N   1      19.208  13.532   8.904  0.00  0.00     0.210 HD
ENDBRANCH  40  44
BRANCH  41  46
HETATM   46  O   UNK N   1      19.555  15.006   6.070  0.00  0.00    -0.388 OA
HETATM   47  H   UNK N   1      19.412  14.881   5.119  0.00  0.00     0.210 HD
ENDBRANCH  41  46
ENDBRANCH  34  35
ENDBRANCH  33  34
ENDBRANCH   2  33
BRANCH   4  48
HETATM   48  O   UNK N   1      22.696  21.244   2.748  0.00  0.00    -0.390 OA
HETATM   49  H   UNK N   1      22.760  22.021   3.324  0.00  0.00     0.210 HD
ENDBRANCH   4  48
BRANCH   3  50
HETATM   50  O   UNK N   1      21.200  18.968   3.691  0.00  0.00    -0.390 OA
HETATM   51  H   UNK N   1      20.955  18.973   2.752  0.00  0.00     0.210 HD
ENDBRANCH   3  50
TORSDOF 15
ENDMDL
MODEL 7
REMARK VINA RESULT:      -8.5      9.347     11.851
REMARK  15 active torsions:
REMARK  status: ('A' for Active; 'I' for Inactive)
REMARK    1  A    between atoms: C_21  and  O_3 
REMARK    2  A    between atoms: O_3  and  C_26 
REMARK    3  A    between atoms: C_17  and  O_4 
REMARK    4  A    between atoms: C_18  and  O_5 
REMARK    5  A    between atoms: C_24  and  O_6 
REMARK    6  A    between atoms: O_6  and  C_28 
REMARK    7  A    between atoms: C_19  and  O_7 
REMARK    8  A    between atoms: C_20  and  O_8 
REMARK    9  A    between atoms: C_22  and  O_9 
REMARK   10  A    between atoms: C_23  and  O_10 
REMARK   11  A    between atoms: O_12  and  C_32 
REMARK   12  A    between atoms: O_14  and  C_42 
REMARK   13  A    between atoms: O_15  and  C_40 
REMARK   14  A    between atoms: C_16  and  C_26 
REMARK   15  A    between atoms: C_35  and  C_37 
ROOT
HETATM    1  O   UNK N   1      25.832  18.259   3.508  0.00  0.00    -0.348 OA
HETATM    2  C   UNK N   1      25.915  19.651   3.662  0.00  0.00     0.180 C 
HETATM    3  C   UNK N   1      25.999  20.001   5.149  0.00  0.00     0.180 C 
HETATM    4  C   UNK N   1      27.276  19.360   5.698  0.00  0.00     0.183 C 
HETATM    5  C   UNK N   1      27.369  17.888   5.298  0.00  0.00     0.205 C 
HETATM    6  C   UNK N   1      27.125  17.787   3.786  0.00  0.00     0.298 C 
ENDROOT
BRANCH   6   7
HETATM    7  O   UNK N   1      27.251  16.477   3.403  0.00  0.00    -0.318 OA
BRANCH   7   8
HETATM    8  C   UNK N   1      26.317  15.511   3.546  0.00  0.00     0.077 A 
HETATM    9  C   UNK N   1      26.011  15.124   4.832  0.00  0.00     0.075 A 
HETATM   10  C   UNK N   1      25.062  14.155   5.078  0.00  0.00     0.095 A 
HETATM   11  O   UNK N   1      24.845  13.816   6.325  0.00  0.00    -0.309 OA
HETATM   12  C   UNK N   1      24.358  13.537   4.027  0.00  0.00     0.081 A 
HETATM   13  C   UNK N   1      23.970  12.899   6.698  0.00  0.00     0.090 A 
HETATM   14  C   UNK N   1      23.194  12.240   5.728  0.00  0.00     0.094 A 
HETATM   15  C   UNK N   1      23.390  12.565   4.376  0.00  0.00     0.190 A 
HETATM   16  O   UNK N   1      22.728  11.997   3.521  0.00  0.00    -0.287 OA
HETATM   17  C   UNK N   1      24.666  13.919   2.699  0.00  0.00     0.085 A 
HETATM   18  C   UNK N   1      25.649  14.901   2.464  0.00  0.00     0.074 A 
BRANCH  13  19
HETATM   19  C   UNK N   1      23.923  12.606   8.136  0.00  0.00     0.001 A 
HETATM   20  C   UNK N   1      24.908  13.205   8.930  0.00  0.00     0.053 A 
HETATM   21  C   UNK N   1      24.984  12.965  10.290  0.00  0.00     0.099 A 
HETATM   22  C   UNK N   1      24.061  12.112  10.899  0.00  0.00     0.101 A 
HETATM   23  C   UNK N   1      23.058  11.503  10.111  0.00  0.00     0.040 A 
HETATM   24  C   UNK N   1      22.991  11.746   8.729  0.00  0.00     0.017 A 
BRANCH  21  25
HETATM   25  O   UNK N   1      25.953  13.553  11.012  0.00  0.00    -0.358 OA
HETATM   26  H   UNK N   1      26.759  13.800  10.601  0.00  0.00     0.217 HD
ENDBRANCH  21  25
BRANCH  22  27
HETATM   27  O   UNK N   1      24.157  11.891  12.231  0.00  0.00    -0.353 OA
HETATM   28  C   UNK N   1      23.076  11.890  13.079  0.00  0.00     0.210 C 
ENDBRANCH  22  27
ENDBRANCH  13  19
BRANCH  17  29
HETATM   29  O   UNK N   1      24.037  13.350   1.655  0.00  0.00    -0.360 OA
HETATM   30  H   UNK N   1      24.519  12.855   1.022  0.00  0.00     0.217 HD
ENDBRANCH  17  29
ENDBRANCH   7   8
ENDBRANCH   6   7
BRANCH   5  31
HETATM   31  O   UNK N   1      28.634  17.390   5.621  0.00  0.00    -0.388 OA
HETATM   32  H   UNK N   1      28.939  16.859   6.373  0.00  0.00     0.210 HD
ENDBRANCH   5  31
BRANCH   2  33
HETATM   33  C   UNK N   1      24.766  20.331   2.950  0.00  0.00     0.205 C 
BRANCH  33  34
HETATM   34  O   UNK N   1      23.674  20.303   3.813  0.00  0.00    -0.356 OA
BRANCH  34  35
HETATM   35  C   UNK N   1      22.810  19.320   3.333  0.00  0.00     0.291 C 
HETATM   36  O   UNK N   1      22.593  18.386   4.362  0.00  0.00    -0.351 OA
HETATM   37  C   UNK N   1      21.845  17.327   3.822  0.00  0.00     0.152 C 
HETATM   38  C   UNK N   1      20.410  17.808   3.585  0.00  0.00     0.178 C 
HETATM   39  C   UNK N   1      21.873  16.163   4.795  0.00  0.00     0.042 C 
HETATM   40  C   UNK N   1      20.465  18.921   2.543  0.00  0.00     0.183 C 
HETATM   41  C   UNK N   1      21.485  19.985   2.939  0.00  0.00     0.204 C 
BRANCH  38  42
HETATM   42  O   UNK N   1      19.614  16.766   3.107  0.00  0.00    -0.390 OA
HETATM   43  H   UNK N   1      18.931  16.288   3.603  0.00  0.00     0.210 HD
ENDBRANCH  38  42
BRANCH  40  44
HETATM   44  O   UNK N   1      19.205  19.504   2.394  0.00  0.00    -0.390 OA
HETATM   45  H   UNK N   1      18.909  20.270   2.913  0.00  0.00     0.210 HD
ENDBRANCH  40  44
BRANCH  41  46
HETATM   46  O   UNK N   1      21.701  20.837   1.857  0.00  0.00    -0.388 OA
HETATM   47  H   UNK N   1      21.142  21.562   1.538  0.00  0.00     0.210 HD
ENDBRANCH  41  46
ENDBRANCH  34  35
ENDBRANCH  33  34
ENDBRANCH   2  33
BRANCH   4  48
HETATM   48  O   UNK N   1      27.328  19.490   7.087  0.00  0.00    -0.390 OA
HETATM   49  H   UNK N   1      27.349  18.726   7.681  0.00  0.00     0.210 HD
ENDBRANCH   4  48
BRANCH   3  50
HETATM   50  O   UNK N   1      26.081  21.385   5.308  0.00  0.00    -0.390 OA
HETATM   51  H   UNK N   1      26.204  22.023   4.587  0.00  0.00     0.210 HD
ENDBRANCH   3  50
TORSDOF 15
ENDMDL
MODEL 8
REMARK VINA RESULT:      -8.5      5.633     11.402
REMARK  15 active torsions:
REMARK  status: ('A' for Active; 'I' for Inactive)
REMARK    1  A    between atoms: C_21  and  O_3 
REMARK    2  A    between atoms: O_3  and  C_26 
REMARK    3  A    between atoms: C_17  and  O_4 
REMARK    4  A    between atoms: C_18  and  O_5 
REMARK    5  A    between atoms: C_24  and  O_6 
REMARK    6  A    between atoms: O_6  and  C_28 
REMARK    7  A    between atoms: C_19  and  O_7 
REMARK    8  A    between atoms: C_20  and  O_8 
REMARK    9  A    between atoms: C_22  and  O_9 
REMARK   10  A    between atoms: C_23  and  O_10 
REMARK   11  A    between atoms: O_12  and  C_32 
REMARK   12  A    between atoms: O_14  and  C_42 
REMARK   13  A    between atoms: O_15  and  C_40 
REMARK   14  A    between atoms: C_16  and  C_26 
REMARK   15  A    between atoms: C_35  and  C_37 
ROOT
HETATM    1  O   UNK N   1      23.758  18.407   4.639  0.00  0.00    -0.348 OA
HETATM    2  C   UNK N   1      22.482  18.126   4.129  0.00  0.00     0.180 C 
HETATM    3  C   UNK N   1      21.716  19.433   3.911  0.00  0.00     0.180 C 
HETATM    4  C   UNK N   1      22.496  20.254   2.882  0.00  0.00     0.183 C 
HETATM    5  C   UNK N   1      23.976  20.340   3.253  0.00  0.00     0.205 C 
HETATM    6  C   UNK N   1      24.478  18.919   3.548  0.00  0.00     0.298 C 
ENDROOT
BRANCH   6   7
HETATM    7  O   UNK N   1      25.817  18.974   3.838  0.00  0.00    -0.318 OA
BRANCH   7   8
HETATM    8  C   UNK N   1      26.683  17.937   3.801  0.00  0.00     0.077 A 
HETATM    9  C   UNK N   1      27.716  17.953   4.711  0.00  0.00     0.075 A 
HETATM   10  C   UNK N   1      28.642  16.933   4.756  0.00  0.00     0.095 A 
HETATM   11  O   UNK N   1      29.616  17.031   5.628  0.00  0.00    -0.309 OA
HETATM   12  C   UNK N   1      28.557  15.828   3.888  0.00  0.00     0.081 A 
HETATM   13  C   UNK N   1      30.570  16.129   5.771  0.00  0.00     0.090 A 
HETATM   14  C   UNK N   1      30.563  14.973   4.971  0.00  0.00     0.094 A 
HETATM   15  C   UNK N   1      29.542  14.821   4.019  0.00  0.00     0.190 A 
HETATM   16  O   UNK N   1      29.525  13.825   3.311  0.00  0.00    -0.287 OA
HETATM   17  C   UNK N   1      27.504  15.800   2.942  0.00  0.00     0.085 A 
HETATM   18  C   UNK N   1      26.574  16.859   2.898  0.00  0.00     0.074 A 
BRANCH  13  19
HETATM   19  C   UNK N   1      31.615  16.451   6.751  0.00  0.00     0.001 A 
HETATM   20  C   UNK N   1      31.582  15.742   7.958  0.00  0.00     0.053 A 
HETATM   21  C   UNK N   1      32.492  15.995   8.969  0.00  0.00     0.099 A 
HETATM   22  C   UNK N   1      33.475  16.971   8.793  0.00  0.00     0.101 A 
HETATM   23  C   UNK N   1      33.524  17.692   7.578  0.00  0.00     0.040 A 
HETATM   24  C   UNK N   1      32.592  17.436   6.558  0.00  0.00     0.017 A 
BRANCH  21  25
HETATM   25  O   UNK N   1      32.416  15.297  10.115  0.00  0.00    -0.358 OA
HETATM   26  H   UNK N   1      31.626  14.843  10.335  0.00  0.00     0.217 HD
ENDBRANCH  21  25
BRANCH  22  27
HETATM   27  O   UNK N   1      34.353  17.201   9.798  0.00  0.00    -0.353 OA
HETATM   28  C   UNK N   1      35.416  16.376  10.077  0.00  0.00     0.210 C 
ENDBRANCH  22  27
ENDBRANCH  13  19
BRANCH  17  29
HETATM   29  O   UNK N   1      27.383  14.779   2.075  0.00  0.00    -0.360 OA
HETATM   30  H   UNK N   1      27.691  14.863   1.194  0.00  0.00     0.217 HD
ENDBRANCH  17  29
ENDBRANCH   7   8
ENDBRANCH   6   7
BRANCH   5  31
HETATM   31  O   UNK N   1      24.696  20.901   2.196  0.00  0.00    -0.388 OA
HETATM   32  H   UNK N   1      25.231  21.709   2.145  0.00  0.00     0.210 HD
ENDBRANCH   5  31
BRANCH   2  33
HETATM   33  C   UNK N   1      21.756  17.149   5.028  0.00  0.00     0.205 C 
BRANCH  33  34
HETATM   34  O   UNK N   1      22.717  16.302   5.574  0.00  0.00    -0.356 OA
BRANCH  34  35
HETATM   35  C   UNK N   1      22.217  15.868   6.801  0.00  0.00     0.291 C 
HETATM   36  O   UNK N   1      21.013  16.551   7.049  0.00  0.00    -0.351 OA
HETATM   37  C   UNK N   1      20.598  16.218   8.349  0.00  0.00     0.152 C 
HETATM   38  C   UNK N   1      20.096  14.770   8.351  0.00  0.00     0.178 C 
HETATM   39  C   UNK N   1      19.498  17.174   8.771  0.00  0.00     0.042 C 
HETATM   40  C   UNK N   1      21.278  13.874   7.992  0.00  0.00     0.183 C 
HETATM   41  C   UNK N   1      21.959  14.359   6.715  0.00  0.00     0.204 C 
BRANCH  38  42
HETATM   42  O   UNK N   1      19.614  14.418   9.612  0.00  0.00    -0.390 OA
HETATM   43  H   UNK N   1      18.718  14.108   9.821  0.00  0.00     0.210 HD
ENDBRANCH  38  42
BRANCH  40  44
HETATM   44  O   UNK N   1      20.849  12.555   7.829  0.00  0.00    -0.390 OA
HETATM   45  H   UNK N   1      20.697  12.149   6.961  0.00  0.00     0.210 HD
ENDBRANCH  40  44
BRANCH  41  46
HETATM   46  O   UNK N   1      23.172  13.691   6.563  0.00  0.00    -0.388 OA
HETATM   47  H   UNK N   1      24.057  13.974   6.840  0.00  0.00     0.210 HD
ENDBRANCH  41  46
ENDBRANCH  34  35
ENDBRANCH  33  34
ENDBRANCH   2  33
BRANCH   4  48
HETATM   48  O   UNK N   1      21.950  21.533   2.763  0.00  0.00    -0.390 OA
HETATM   49  H   UNK N   1      22.496  22.323   2.635  0.00  0.00     0.210 HD
ENDBRANCH   4  48
BRANCH   3  50
HETATM   50  O   UNK N   1      20.444  19.160   3.404  0.00  0.00    -0.390 OA
HETATM   51  H   UNK N   1      20.245  18.499   2.722  0.00  0.00     0.210 HD
ENDBRANCH   3  50
TORSDOF 15
ENDMDL
MODEL 9
REMARK VINA RESULT:      -8.4     10.141     14.206
REMARK  15 active torsions:
REMARK  status: ('A' for Active; 'I' for Inactive)
REMARK    1  A    between atoms: C_21  and  O_3 
REMARK    2  A    between atoms: O_3  and  C_26 
REMARK    3  A    between atoms: C_17  and  O_4 
REMARK    4  A    between atoms: C_18  and  O_5 
REMARK    5  A    between atoms: C_24  and  O_6 
REMARK    6  A    between atoms: O_6  and  C_28 
REMARK    7  A    between atoms: C_19  and  O_7 
REMARK    8  A    between atoms: C_20  and  O_8 
REMARK    9  A    between atoms: C_22  and  O_9 
REMARK   10  A    between atoms: C_23  and  O_10 
REMARK   11  A    between atoms: O_12  and  C_32 
REMARK   12  A    between atoms: O_14  and  C_42 
REMARK   13  A    between atoms: O_15  and  C_40 
REMARK   14  A    between atoms: C_16  and  C_26 
REMARK   15  A    between atoms: C_35  and  C_37 
ROOT
HETATM    1  O   UNK N   1      21.924  14.689   0.721  0.00  0.00    -0.348 OA
HETATM    2  C   UNK N   1      20.752  14.848   1.474  0.00  0.00     0.180 C 
HETATM    3  C   UNK N   1      19.630  14.005   0.865  0.00  0.00     0.180 C 
HETATM    4  C   UNK N   1      20.071  12.541   0.928  0.00  0.00     0.183 C 
HETATM    5  C   UNK N   1      21.484  12.368   0.375  0.00  0.00     0.205 C 
HETATM    6  C   UNK N   1      22.392  13.407   1.047  0.00  0.00     0.298 C 
ENDROOT
BRANCH   6   7
HETATM    7  O   UNK N   1      23.676  13.234   0.595  0.00  0.00    -0.318 OA
BRANCH   7   8
HETATM    8  C   UNK N   1      24.797  13.264   1.348  0.00  0.00     0.077 A 
HETATM    9  C   UNK N   1      25.070  14.438   2.014  0.00  0.00     0.075 A 
HETATM   10  C   UNK N   1      26.185  14.559   2.816  0.00  0.00     0.095 A 
HETATM   11  O   UNK N   1      26.397  15.715   3.395  0.00  0.00    -0.309 OA
HETATM   12  C   UNK N   1      27.076  13.484   2.999  0.00  0.00     0.081 A 
HETATM   13  C   UNK N   1      27.428  15.968   4.181  0.00  0.00     0.090 A 
HETATM   14  C   UNK N   1      28.364  14.954   4.452  0.00  0.00     0.094 A 
HETATM   15  C   UNK N   1      28.184  13.696   3.853  0.00  0.00     0.190 A 
HETATM   16  O   UNK N   1      28.991  12.806   4.073  0.00  0.00    -0.287 OA
HETATM   17  C   UNK N   1      26.812  12.273   2.315  0.00  0.00     0.085 A 
HETATM   18  C   UNK N   1      25.676  12.170   1.487  0.00  0.00     0.074 A 
BRANCH  13  19
HETATM   19  C   UNK N   1      27.534  17.346   4.678  0.00  0.00     0.001 A 
HETATM   20  C   UNK N   1      27.590  17.508   6.068  0.00  0.00     0.053 A 
HETATM   21  C   UNK N   1      27.648  18.763   6.646  0.00  0.00     0.099 A 
HETATM   22  C   UNK N   1      27.657  19.902   5.838  0.00  0.00     0.101 A 
HETATM   23  C   UNK N   1      27.606  19.754   4.434  0.00  0.00     0.040 A 
HETATM   24  C   UNK N   1      27.539  18.477   3.853  0.00  0.00     0.017 A 
BRANCH  21  25
HETATM   25  O   UNK N   1      27.690  18.872   7.985  0.00  0.00    -0.358 OA
HETATM   26  H   UNK N   1      27.127  18.343   8.515  0.00  0.00     0.217 HD
ENDBRANCH  21  25
BRANCH  22  27
HETATM   27  O   UNK N   1      27.712  21.119   6.429  0.00  0.00    -0.353 OA
HETATM   28  C   UNK N   1      26.602  21.887   6.686  0.00  0.00     0.210 C 
ENDBRANCH  22  27
ENDBRANCH  13  19
BRANCH  17  29
HETATM   29  O   UNK N   1      27.639  11.219   2.437  0.00  0.00    -0.360 OA
HETATM   30  H   UNK N   1      27.362  10.364   2.171  0.00  0.00     0.217 HD
ENDBRANCH  17  29
ENDBRANCH   7   8
ENDBRANCH   6   7
BRANCH   5  31
HETATM   31  O   UNK N   1      21.942  11.075   0.644  0.00  0.00    -0.388 OA
HETATM   32  H   UNK N   1      21.818  10.501   1.416  0.00  0.00     0.210 HD
ENDBRANCH   5  31
BRANCH   2  33
HETATM   33  C   UNK N   1      20.399  16.314   1.602  0.00  0.00     0.205 C 
BRANCH  33  34
HETATM   34  O   UNK N   1      20.054  16.539   2.932  0.00  0.00    -0.356 OA
BRANCH  34  35
HETATM   35  C   UNK N   1      20.459  17.838   3.236  0.00  0.00     0.291 C 
HETATM   36  O   UNK N   1      21.862  17.890   3.156  0.00  0.00    -0.351 OA
HETATM   37  C   UNK N   1      22.265  19.158   3.608  0.00  0.00     0.152 C 
HETATM   38  C   UNK N   1      21.894  20.199   2.547  0.00  0.00     0.178 C 
HETATM   39  C   UNK N   1      23.763  19.138   3.847  0.00  0.00     0.042 C 
HETATM   40  C   UNK N   1      20.373  20.207   2.424  0.00  0.00     0.183 C 
HETATM   41  C   UNK N   1      19.838  18.794   2.209  0.00  0.00     0.204 C 
BRANCH  38  42
HETATM   42  O   UNK N   1      22.334  21.467   2.928  0.00  0.00    -0.390 OA
HETATM   43  H   UNK N   1      21.803  22.157   3.357  0.00  0.00     0.210 HD
ENDBRANCH  38  42
BRANCH  40  44
HETATM   44  O   UNK N   1      19.981  21.029   1.365  0.00  0.00    -0.390 OA
HETATM   45  H   UNK N   1      20.611  21.480   0.781  0.00  0.00     0.210 HD
ENDBRANCH  40  44
BRANCH  41  46
HETATM   46  O   UNK N   1      18.453  18.801   2.364  0.00  0.00    -0.388 OA
HETATM   47  H   UNK N   1      17.799  18.196   1.982  0.00  0.00     0.210 HD
ENDBRANCH  41  46
ENDBRANCH  34  35
ENDBRANCH  33  34
ENDBRANCH   2  33
BRANCH   4  48
HETATM   48  O   UNK N   1      19.173  11.731   0.232  0.00  0.00    -0.390 OA
HETATM   49  H   UNK N   1      19.420  10.863  -0.121  0.00  0.00     0.210 HD
ENDBRANCH   4  48
BRANCH   3  50
HETATM   50  O   UNK N   1      18.460  14.160   1.610  0.00  0.00    -0.390 OA
HETATM   51  H   UNK N   1      17.623  13.699   1.438  0.00  0.00     0.210 HD
ENDBRANCH   3  50
TORSDOF 15
ENDMDL
