REMARK  15 active torsions:
REMARK  status: ('A' for Active; 'I' for Inactive)
REMARK    1  A    between atoms: C_21  and  O_3 
REMARK    2  A    between atoms: O_3  and  C_26 
REMARK    3  A    between atoms: C_17  and  O_4 
REMARK    4  A    between atoms: C_18  and  O_5 
REMARK    5  A    between atoms: C_24  and  O_6 
REMARK    6  A    between atoms: O_6  and  C_28 
REMARK    7  A    between atoms: C_19  and  O_7 
REMARK    8  A    between atoms: C_20  and  O_8 
REMARK    9  A    between atoms: C_22  and  O_9 
REMARK   10  A    between atoms: C_23  and  O_10 
REMARK   11  A    between atoms: O_12  and  C_32 
REMARK   12  A    between atoms: O_14  and  C_42 
REMARK   13  A    between atoms: O_15  and  C_40 
REMARK   14  A    between atoms: C_16  and  C_26 
REMARK   15  A    between atoms: C_35  and  C_37 
ROOT
HETATM    1  O   UNK N   1      11.212   1.273  -0.664  0.00  0.00    -0.348 OA
HETATM    2  C   UNK N   1      12.431   0.842  -0.120  0.00  0.00     0.180 C 
HETATM    3  C   UNK N   1      13.523   1.869  -0.425  0.00  0.00     0.180 C 
HETATM    4  C   UNK N   1      13.114   3.184   0.243  0.00  0.00     0.183 C 
HETATM    5  C   UNK N   1      11.669   3.547  -0.095  0.00  0.00     0.205 C 
HETATM    6  C   UNK N   1      10.791   2.317   0.175  0.00  0.00     0.298 C 
ENDROOT
BRANCH   6   7
HETATM    7  O   UNK N   1       9.483   2.641  -0.080  0.00  0.00    -0.318 OA
BRANCH   7   8
HETATM    8  C   UNK N   1       8.424   1.807   0.008  0.00  0.00     0.077 A 
HETATM    9  C   UNK N   1       7.173   2.373  -0.091  0.00  0.00     0.075 A 
HETATM   10  C   UNK N   1       6.033   1.600  -0.025  0.00  0.00     0.095 A 
HETATM   11  O   UNK N   1       4.876   2.211  -0.096  0.00  0.00    -0.309 OA
HETATM   12  C   UNK N   1       6.105   0.202   0.128  0.00  0.00     0.081 A 
HETATM   13  C   UNK N   1       3.711   1.592  -0.039  0.00  0.00     0.090 A 
HETATM   14  C   UNK N   1       3.670   0.192   0.086  0.00  0.00     0.094 A 
HETATM   15  C   UNK N   1       4.883  -0.511   0.169  0.00  0.00     0.190 A 
HETATM   16  O   UNK N   1       4.865  -1.727   0.284  0.00  0.00    -0.287 OA
HETATM   17  C   UNK N   1       7.384  -0.394   0.238  0.00  0.00     0.085 A 
HETATM   18  C   UNK N   1       8.539   0.412   0.184  0.00  0.00     0.074 A 
BRANCH  13  19
HETATM   19  C   UNK N   1       2.524   2.456  -0.061  0.00  0.00     0.001 A 
HETATM   20  C   UNK N   1       2.755   3.837  -0.090  0.00  0.00     0.053 A 
HETATM   21  C   UNK N   1       1.711   4.744  -0.070  0.00  0.00     0.099 A 
HETATM   22  C   UNK N   1       0.392   4.287  -0.026  0.00  0.00     0.101 A 
HETATM   23  C   UNK N   1       0.143   2.896  -0.001  0.00  0.00     0.040 A 
HETATM   24  C   UNK N   1       1.208   1.980  -0.014  0.00  0.00     0.017 A 
BRANCH  21  25
HETATM   25  O   UNK N   1       1.980   6.061  -0.088  0.00  0.00    -0.358 OA
HETATM   26  H   UNK N   1       2.869   6.357  -0.101  0.00  0.00     0.217 HD
ENDBRANCH  21  25
BRANCH  22  27
HETATM   27  O   UNK N   1      -0.612   5.195  -0.005  0.00  0.00    -0.353 OA
HETATM   28  C   UNK N   1      -1.942   4.852   0.041  0.00  0.00     0.210 C 
ENDBRANCH  22  27
ENDBRANCH  13  19
BRANCH  17  29
HETATM   29  O   UNK N   1       7.513  -1.723   0.404  0.00  0.00    -0.360 OA
HETATM   30  H   UNK N   1       6.757  -2.264   0.520  0.00  0.00     0.217 HD
ENDBRANCH  17  29
ENDBRANCH   7   8
ENDBRANCH   6   7
BRANCH   5  31
HETATM   31  O   UNK N   1      11.255   4.623   0.694  0.00  0.00    -0.388 OA
HETATM   32  H   UNK N   1      11.759   5.245   1.242  0.00  0.00     0.210 HD
ENDBRANCH   5  31
BRANCH   2  33
HETATM   33  C   UNK N   1      12.765  -0.551  -0.607  0.00  0.00     0.205 C 
BRANCH  33  34
HETATM   34  O   UNK N   1      12.510  -1.426   0.446  0.00  0.00    -0.356 OA
BRANCH  34  35
HETATM   35  C   UNK N   1      12.313  -2.685  -0.119  0.00  0.00     0.291 C 
HETATM   36  O   UNK N   1      13.200  -3.586   0.498  0.00  0.00    -0.351 OA
HETATM   37  C   UNK N   1      13.097  -4.812  -0.180  0.00  0.00     0.152 C 
HETATM   38  C   UNK N   1      11.757  -5.462   0.178  0.00  0.00     0.178 C 
HETATM   39  C   UNK N   1      14.257  -5.698   0.234  0.00  0.00     0.042 C 
HETATM   40  C   UNK N   1      10.650  -4.547  -0.339  0.00  0.00     0.183 C 
HETATM   41  C   UNK N   1      10.863  -3.114   0.140  0.00  0.00     0.204 C 
BRANCH  38  42
HETATM   42  O   UNK N   1      11.641  -6.715  -0.426  0.00  0.00    -0.390 OA
HETATM   43  H   UNK N   1      10.846  -7.081  -0.846  0.00  0.00     0.210 HD
ENDBRANCH  38  42
BRANCH  40  44
HETATM   44  O   UNK N   1       9.404  -5.010   0.089  0.00  0.00    -0.390 OA
HETATM   45  H   UNK N   1       8.692  -4.421   0.386  0.00  0.00     0.210 HD
ENDBRANCH  40  44
BRANCH  41  46
HETATM   46  O   UNK N   1      10.001  -2.267  -0.554  0.00  0.00    -0.388 OA
HETATM   47  H   UNK N   1      10.212  -1.453  -1.037  0.00  0.00     0.210 HD
ENDBRANCH  41  46
ENDBRANCH  34  35
ENDBRANCH  33  34
ENDBRANCH   2  33
BRANCH   4  48
HETATM   48  O   UNK N   1      13.976   4.213  -0.139  0.00  0.00    -0.390 OA
HETATM   49  H   UNK N   1      14.894   4.052  -0.404  0.00  0.00     0.210 HD
ENDBRANCH   4  48
BRANCH   3  50
HETATM   50  O   UNK N   1      14.739   1.445   0.114  0.00  0.00    -0.390 OA
HETATM   51  H   UNK N   1      14.907   0.566   0.489  0.00  0.00     0.210 HD
ENDBRANCH   3  50
TORSDOF 15
