MODEL 1
REMARK VINA RESULT:      -5.8      0.000      0.000
REMARK  5 active torsions:
REMARK  status: ('A' for Active; 'I' for Inactive)
REMARK    1  A    between atoms: S_1  and  N_5 
REMARK    2  A    between atoms: S_1  and  C_10 
REMARK    3  A    between atoms: N_4  and  C_11 
REMARK    4  A    between atoms: N_5  and  C_9 
REMARK    5  A    between atoms: N_8  and  C_20 
ROOT
HETATM    1  N   UNK N   1      29.105  17.890   6.557  0.00  0.00    -0.264 N 
HETATM    2  H   UNK N   1      29.434  18.745   6.196  0.00  0.00     0.180 HD
ENDROOT
BRANCH   1   3
HETATM    3  S   UNK N   1      28.195  16.816   5.506  0.00  0.00     0.264 S 
HETATM    4  O   UNK N   1      28.588  15.338   5.672  0.00  0.00    -0.200 OA
HETATM    5  O   UNK N   1      28.030  17.351   4.074  0.00  0.00    -0.200 OA
BRANCH   3   6
HETATM    6  C   UNK N   1      29.851  16.573   4.610  0.00  0.00     0.080 A 
HETATM    7  C   UNK N   1      30.183  15.299   4.051  0.00  0.00     0.027 A 
HETATM    8  C   UNK N   1      31.387  15.087   3.381  0.00  0.00     0.030 A 
HETATM    9  C   UNK N   1      32.299  16.129   3.240  0.00  0.00     0.025 A 
HETATM   10  C   UNK N   1      32.008  17.387   3.769  0.00  0.00     0.030 A 
HETATM   11  C   UNK N   1      30.803  17.607   4.443  0.00  0.00     0.027 A 
BRANCH   9  12
HETATM   12  N   UNK N   1      33.514  15.912   2.561  0.00  0.00    -0.399 N 
HETATM   13  H   UNK N   1      34.102  16.665   2.322  0.00  0.00     0.156 HD
HETATM   14  H   UNK N   1      33.780  14.994   2.323  0.00  0.00     0.156 HD
ENDBRANCH   9  12
ENDBRANCH   3   6
ENDBRANCH   1   3
BRANCH   1  15
HETATM   15  C   UNK N   1      29.381  17.568   7.911  0.00  0.00     0.138 A 
HETATM   16  N   UNK N   1      30.556  17.140   8.441  0.00  0.00    -0.240 N 
HETATM   17  N   UNK N   1      30.391  17.006   9.747  0.00  0.00    -0.303 N 
HETATM   18  C   UNK N   1      29.121  17.329  10.067  0.00  0.00     0.111 A 
ATOM     19  HN  UNK N   1      31.109  16.707  10.406  1.00  0.00     0.186 HD
HETATM   20  C   UNK N   1      28.443  17.686   8.913  0.00  0.00     0.069 A 
BRANCH  16  21
HETATM   21  C   UNK N   1      31.811  16.792   7.809  0.00  0.00     0.058 A 
HETATM   22  C   UNK N   1      32.818  17.740   7.586  0.00  0.00     0.031 A 
HETATM   23  C   UNK N   1      34.006  17.382   6.940  0.00  0.00     0.002 A 
HETATM   24  C   UNK N   1      34.193  16.070   6.497  0.00  0.00     0.000 A 
HETATM   25  C   UNK N   1      33.192  15.119   6.696  0.00  0.00     0.002 A 
HETATM   26  C   UNK N   1      32.006  15.479   7.344  0.00  0.00     0.031 A 
ENDBRANCH  16  21
ENDBRANCH   1  15
TORSDOF 5
ENDMDL
MODEL 2
REMARK VINA RESULT:      -5.8      3.287      4.851
REMARK  5 active torsions:
REMARK  status: ('A' for Active; 'I' for Inactive)
REMARK    1  A    between atoms: S_1  and  N_5 
REMARK    2  A    between atoms: S_1  and  C_10 
REMARK    3  A    between atoms: N_4  and  C_11 
REMARK    4  A    between atoms: N_5  and  C_9 
REMARK    5  A    between atoms: N_8  and  C_20 
ROOT
HETATM    1  N   UNK N   1      32.497  17.286   8.742  0.00  0.00    -0.264 N 
HETATM    2  H   UNK N   1      32.586  16.512   9.344  0.00  0.00     0.180 HD
ENDROOT
BRANCH   1   3
HETATM    3  S   UNK N   1      33.945  18.157   8.256  0.00  0.00     0.264 S 
HETATM    4  O   UNK N   1      34.206  18.091   6.742  0.00  0.00    -0.200 OA
HETATM    5  O   UNK N   1      35.142  17.931   9.195  0.00  0.00    -0.200 OA
BRANCH   3   6
HETATM    6  C   UNK N   1      34.647  16.433   7.884  0.00  0.00     0.080 A 
HETATM    7  C   UNK N   1      35.060  15.581   8.956  0.00  0.00     0.027 A 
HETATM    8  C   UNK N   1      35.575  14.307   8.719  0.00  0.00     0.030 A 
HETATM    9  C   UNK N   1      35.694  13.835   7.415  0.00  0.00     0.025 A 
HETATM   10  C   UNK N   1      35.299  14.636   6.344  0.00  0.00     0.030 A 
HETATM   11  C   UNK N   1      34.783  15.916   6.573  0.00  0.00     0.027 A 
BRANCH   9  12
HETATM   12  N   UNK N   1      36.214  12.547   7.179  0.00  0.00    -0.399 N 
HETATM   13  H   UNK N   1      36.847  12.383   6.444  0.00  0.00     0.156 HD
HETATM   14  H   UNK N   1      35.939  11.799   7.759  0.00  0.00     0.156 HD
ENDBRANCH   9  12
ENDBRANCH   3   6
ENDBRANCH   1   3
BRANCH   1  15
HETATM   15  C   UNK N   1      31.204  17.662   8.295  0.00  0.00     0.138 A 
HETATM   16  N   UNK N   1      30.603  17.336   7.121  0.00  0.00    -0.240 N 
HETATM   17  N   UNK N   1      29.383  17.850   7.131  0.00  0.00    -0.303 N 
HETATM   18  C   UNK N   1      29.193  18.514   8.289  0.00  0.00     0.111 A 
ATOM     19  HN  UNK N   1      28.697  17.757   6.382  1.00  0.00     0.186 HD
HETATM   20  C   UNK N   1      30.342  18.421   9.056  0.00  0.00     0.069 A 
BRANCH  16  21
HETATM   21  C   UNK N   1      31.103  16.627   5.964  0.00  0.00     0.058 A 
HETATM   22  C   UNK N   1      31.220  15.231   5.942  0.00  0.00     0.031 A 
HETATM   23  C   UNK N   1      31.741  14.574   4.822  0.00  0.00     0.002 A 
HETATM   24  C   UNK N   1      32.166  15.311   3.714  0.00  0.00     0.000 A 
HETATM   25  C   UNK N   1      32.071  16.704   3.728  0.00  0.00     0.002 A 
HETATM   26  C   UNK N   1      31.547  17.357   4.847  0.00  0.00     0.031 A 
ENDBRANCH  16  21
ENDBRANCH   1  15
TORSDOF 5
ENDMDL
MODEL 3
REMARK VINA RESULT:      -5.7      2.917      4.498
REMARK  5 active torsions:
REMARK  status: ('A' for Active; 'I' for Inactive)
REMARK    1  A    between atoms: S_1  and  N_5 
REMARK    2  A    between atoms: S_1  and  C_10 
REMARK    3  A    between atoms: N_4  and  C_11 
REMARK    4  A    between atoms: N_5  and  C_9 
REMARK    5  A    between atoms: N_8  and  C_20 
ROOT
HETATM    1  N   UNK N   1      30.931  17.720   7.254  0.00  0.00    -0.264 N 
HETATM    2  H   UNK N   1      30.824  17.817   6.280  0.00  0.00     0.180 HD
ENDROOT
BRANCH   1   3
HETATM    3  S   UNK N   1      32.529  17.390   7.906  0.00  0.00     0.264 S 
HETATM    4  O   UNK N   1      33.618  18.307   7.324  0.00  0.00    -0.200 OA
HETATM    5  O   UNK N   1      32.849  15.890   8.019  0.00  0.00    -0.200 OA
BRANCH   3   6
HETATM    6  C   UNK N   1      32.921  16.755   6.161  0.00  0.00     0.080 A 
HETATM    7  C   UNK N   1      32.337  17.390   5.020  0.00  0.00     0.027 A 
HETATM    8  C   UNK N   1      32.607  16.953   3.723  0.00  0.00     0.030 A 
HETATM    9  C   UNK N   1      33.466  15.878   3.515  0.00  0.00     0.025 A 
HETATM   10  C   UNK N   1      34.057  15.236   4.603  0.00  0.00     0.030 A 
HETATM   11  C   UNK N   1      33.790  15.666   5.907  0.00  0.00     0.027 A 
BRANCH   9  12
HETATM   12  N   UNK N   1      33.738  15.441   2.204  0.00  0.00    -0.399 N 
HETATM   13  H   UNK N   1      33.037  15.447   1.512  0.00  0.00     0.156 HD
HETATM   14  H   UNK N   1      34.643  15.124   1.976  0.00  0.00     0.156 HD
ENDBRANCH   9  12
ENDBRANCH   3   6
ENDBRANCH   1   3
BRANCH   1  15
HETATM   15  C   UNK N   1      29.789  17.851   8.085  0.00  0.00     0.138 A 
HETATM   16  N   UNK N   1      28.576  18.368   7.755  0.00  0.00    -0.240 N 
HETATM   17  N   UNK N   1      27.783  18.253   8.808  0.00  0.00    -0.303 N 
HETATM   18  C   UNK N   1      28.470  17.681   9.818  0.00  0.00     0.111 A 
ATOM     19  HN  UNK N   1      26.808  18.549   8.849  1.00  0.00     0.186 HD
HETATM   20  C   UNK N   1      29.761  17.418   9.392  0.00  0.00     0.069 A 
BRANCH  16  21
HETATM   21  C   UNK N   1      28.118  19.015   6.545  0.00  0.00     0.058 A 
HETATM   22  C   UNK N   1      27.607  20.320   6.548  0.00  0.00     0.031 A 
HETATM   23  C   UNK N   1      27.138  20.907   5.368  0.00  0.00     0.002 A 
HETATM   24  C   UNK N   1      27.161  20.186   4.171  0.00  0.00     0.000 A 
HETATM   25  C   UNK N   1      27.650  18.879   4.156  0.00  0.00     0.002 A 
HETATM   26  C   UNK N   1      28.121  18.296   5.336  0.00  0.00     0.031 A 
ENDBRANCH  16  21
ENDBRANCH   1  15
TORSDOF 5
ENDMDL
MODEL 4
REMARK VINA RESULT:      -5.7      2.588      4.390
REMARK  5 active torsions:
REMARK  status: ('A' for Active; 'I' for Inactive)
REMARK    1  A    between atoms: S_1  and  N_5 
REMARK    2  A    between atoms: S_1  and  C_10 
REMARK    3  A    between atoms: N_4  and  C_11 
REMARK    4  A    between atoms: N_5  and  C_9 
REMARK    5  A    between atoms: N_8  and  C_20 
ROOT
HETATM    1  N   UNK N   1      28.752  17.182   7.617  0.00  0.00    -0.264 N 
HETATM    2  H   UNK N   1      28.536  16.222   7.575  0.00  0.00     0.180 HD
ENDROOT
BRANCH   1   3
HETATM    3  S   UNK N   1      29.217  17.881   9.161  0.00  0.00     0.264 S 
HETATM    4  O   UNK N   1      30.128  19.111   9.014  0.00  0.00    -0.200 OA
HETATM    5  O   UNK N   1      29.602  16.834  10.219  0.00  0.00    -0.200 OA
BRANCH   3   6
HETATM    6  C   UNK N   1      30.952  17.244   8.731  0.00  0.00     0.080 A 
HETATM    7  C   UNK N   1      31.980  18.163   8.351  0.00  0.00     0.027 A 
HETATM    8  C   UNK N   1      33.267  17.730   8.035  0.00  0.00     0.030 A 
HETATM    9  C   UNK N   1      33.579  16.375   8.089  0.00  0.00     0.025 A 
HETATM   10  C   UNK N   1      32.604  15.449   8.458  0.00  0.00     0.030 A 
HETATM   11  C   UNK N   1      31.310  15.874   8.775  0.00  0.00     0.027 A 
BRANCH   9  12
HETATM   12  N   UNK N   1      34.881  15.941   7.770  0.00  0.00    -0.399 N 
HETATM   13  H   UNK N   1      35.043  15.352   6.998  0.00  0.00     0.156 HD
HETATM   14  H   UNK N   1      35.639  16.232   8.327  0.00  0.00     0.156 HD
ENDBRANCH   9  12
ENDBRANCH   3   6
ENDBRANCH   1   3
BRANCH   1  15
HETATM   15  C   UNK N   1      28.678  17.954   6.429  0.00  0.00     0.138 A 
HETATM   16  N   UNK N   1      29.440  17.834   5.311  0.00  0.00    -0.240 N 
HETATM   17  N   UNK N   1      29.006  18.715   4.424  0.00  0.00    -0.303 N 
HETATM   18  C   UNK N   1      27.983  19.413   4.959  0.00  0.00     0.111 A 
ATOM     19  HN  UNK N   1      29.384  18.846   3.486  1.00  0.00     0.186 HD
HETATM   20  C   UNK N   1      27.751  18.956   6.246  0.00  0.00     0.069 A 
BRANCH  16  21
HETATM   21  C   UNK N   1      30.583  16.993   5.027  0.00  0.00     0.058 A 
HETATM   22  C   UNK N   1      30.540  15.602   5.189  0.00  0.00     0.031 A 
HETATM   23  C   UNK N   1      31.672  14.818   4.941  0.00  0.00     0.002 A 
HETATM   24  C   UNK N   1      32.867  15.422   4.542  0.00  0.00     0.000 A 
HETATM   25  C   UNK N   1      32.930  16.808   4.394  0.00  0.00     0.002 A 
HETATM   26  C   UNK N   1      31.796  17.588   4.639  0.00  0.00     0.031 A 
ENDBRANCH  16  21
ENDBRANCH   1  15
TORSDOF 5
ENDMDL
MODEL 5
REMARK VINA RESULT:      -5.6      3.105      5.906
REMARK  5 active torsions:
REMARK  status: ('A' for Active; 'I' for Inactive)
REMARK    1  A    between atoms: S_1  and  N_5 
REMARK    2  A    between atoms: S_1  and  C_10 
REMARK    3  A    between atoms: N_4  and  C_11 
REMARK    4  A    between atoms: N_5  and  C_9 
REMARK    5  A    between atoms: N_8  and  C_20 
ROOT
HETATM    1  N   UNK N   1      31.519  17.184   5.520  0.00  0.00    -0.264 N 
HETATM    2  H   UNK N   1      31.228  17.408   6.434  0.00  0.00     0.180 HD
ENDROOT
BRANCH   1   3
HETATM    3  S   UNK N   1      33.238  17.058   5.181  0.00  0.00     0.264 S 
HETATM    4  O   UNK N   1      33.725  15.603   5.072  0.00  0.00    -0.200 OA
HETATM    5  O   UNK N   1      34.099  18.036   5.997  0.00  0.00    -0.200 OA
BRANCH   3   6
HETATM    6  C   UNK N   1      33.361  16.376   6.948  0.00  0.00     0.080 A 
HETATM    7  C   UNK N   1      32.173  16.134   7.706  0.00  0.00     0.027 A 
HETATM    8  C   UNK N   1      32.226  15.628   9.005  0.00  0.00     0.030 A 
HETATM    9  C   UNK N   1      33.455  15.343   9.592  0.00  0.00     0.025 A 
HETATM   10  C   UNK N   1      34.635  15.562   8.881  0.00  0.00     0.030 A 
HETATM   11  C   UNK N   1      34.591  16.071   7.579  0.00  0.00     0.027 A 
BRANCH   9  12
HETATM   12  N   UNK N   1      33.505  14.831  10.903  0.00  0.00    -0.399 N 
HETATM   13  H   UNK N   1      34.131  14.109  11.141  0.00  0.00     0.156 HD
HETATM   14  H   UNK N   1      32.905  15.200  11.591  0.00  0.00     0.156 HD
ENDBRANCH   9  12
ENDBRANCH   3   6
ENDBRANCH   1   3
BRANCH   1  15
HETATM   15  C   UNK N   1      30.534  16.974   4.521  0.00  0.00     0.138 A 
HETATM   16  N   UNK N   1      29.340  17.608   4.384  0.00  0.00    -0.240 N 
HETATM   17  N   UNK N   1      28.754  17.145   3.291  0.00  0.00    -0.303 N 
HETATM   18  C   UNK N   1      29.548  16.211   2.727  0.00  0.00     0.111 A 
ATOM     19  HN  UNK N   1      27.849  17.447   2.932  1.00  0.00     0.186 HD
HETATM   20  C   UNK N   1      30.692  16.071   3.493  0.00  0.00     0.069 A 
BRANCH  16  21
HETATM   21  C   UNK N   1      28.677  18.576   5.231  0.00  0.00     0.058 A 
HETATM   22  C   UNK N   1      28.528  18.377   6.610  0.00  0.00     0.031 A 
HETATM   23  C   UNK N   1      27.851  19.314   7.398  0.00  0.00     0.002 A 
HETATM   24  C   UNK N   1      27.300  20.456   6.809  0.00  0.00     0.000 A 
HETATM   25  C   UNK N   1      27.426  20.658   5.435  0.00  0.00     0.002 A 
HETATM   26  C   UNK N   1      28.105  19.722   4.650  0.00  0.00     0.031 A 
ENDBRANCH  16  21
ENDBRANCH   1  15
TORSDOF 5
ENDMDL
MODEL 6
REMARK VINA RESULT:      -5.6     15.269     16.662
REMARK  5 active torsions:
REMARK  status: ('A' for Active; 'I' for Inactive)
REMARK    1  A    between atoms: S_1  and  N_5 
REMARK    2  A    between atoms: S_1  and  C_10 
REMARK    3  A    between atoms: N_4  and  C_11 
REMARK    4  A    between atoms: N_5  and  C_9 
REMARK    5  A    between atoms: N_8  and  C_20 
ROOT
HETATM    1  N   UNK N   1      28.376  24.630  -7.177  0.00  0.00    -0.264 N 
HETATM    2  H   UNK N   1      29.159  24.495  -6.596  0.00  0.00     0.180 HD
ENDROOT
BRANCH   1   3
HETATM    3  S   UNK N   1      28.492  25.769  -8.510  0.00  0.00     0.264 S 
HETATM    4  O   UNK N   1      29.882  26.417  -8.629  0.00  0.00    -0.200 OA
HETATM    5  O   UNK N   1      27.266  26.688  -8.641  0.00  0.00    -0.200 OA
BRANCH   3   6
HETATM    6  C   UNK N   1      28.614  27.085  -7.147  0.00  0.00     0.080 A 
HETATM    7  C   UNK N   1      29.372  26.822  -5.963  0.00  0.00     0.027 A 
HETATM    8  C   UNK N   1      29.488  27.768  -4.945  0.00  0.00     0.030 A 
HETATM    9  C   UNK N   1      28.861  29.005  -5.068  0.00  0.00     0.025 A 
HETATM   10  C   UNK N   1      28.116  29.299  -6.211  0.00  0.00     0.030 A 
HETATM   11  C   UNK N   1      27.994  28.355  -7.235  0.00  0.00     0.027 A 
BRANCH   9  12
HETATM   12  N   UNK N   1      28.981  29.958  -4.039  0.00  0.00    -0.399 N 
HETATM   13  H   UNK N   1      29.858  30.170  -3.644  0.00  0.00     0.156 HD
HETATM   14  H   UNK N   1      28.176  30.421  -3.710  0.00  0.00     0.156 HD
ENDBRANCH   9  12
ENDBRANCH   3   6
ENDBRANCH   1   3
BRANCH   1  15
HETATM   15  C   UNK N   1      27.190  23.898  -6.909  0.00  0.00     0.138 A 
HETATM   16  N   UNK N   1      26.127  24.284  -6.157  0.00  0.00    -0.240 N 
HETATM   17  N   UNK N   1      25.217  23.324  -6.212  0.00  0.00    -0.303 N 
HETATM   18  C   UNK N   1      25.685  22.317  -6.977  0.00  0.00     0.111 A 
ATOM     19  HN  UNK N   1      24.309  23.343  -5.749  1.00  0.00     0.186 HD
HETATM   20  C   UNK N   1      26.949  22.648  -7.434  0.00  0.00     0.069 A 
BRANCH  16  21
HETATM   21  C   UNK N   1      25.918  25.462  -5.343  0.00  0.00     0.058 A 
HETATM   22  C   UNK N   1      25.172  26.557  -5.799  0.00  0.00     0.031 A 
HETATM   23  C   UNK N   1      25.017  27.698  -5.004  0.00  0.00     0.002 A 
HETATM   24  C   UNK N   1      25.622  27.761  -3.746  0.00  0.00     0.000 A 
HETATM   25  C   UNK N   1      26.383  26.685  -3.286  0.00  0.00     0.002 A 
HETATM   26  C   UNK N   1      26.533  25.546  -4.082  0.00  0.00     0.031 A 
ENDBRANCH  16  21
ENDBRANCH   1  15
TORSDOF 5
ENDMDL
MODEL 7
REMARK VINA RESULT:      -5.6     13.386     15.090
REMARK  5 active torsions:
REMARK  status: ('A' for Active; 'I' for Inactive)
REMARK    1  A    between atoms: S_1  and  N_5 
REMARK    2  A    between atoms: S_1  and  C_10 
REMARK    3  A    between atoms: N_4  and  C_11 
REMARK    4  A    between atoms: N_5  and  C_9 
REMARK    5  A    between atoms: N_8  and  C_20 
ROOT
HETATM    1  N   UNK N   1      30.734  26.386  -4.535  0.00  0.00    -0.264 N 
HETATM    2  H   UNK N   1      30.785  26.552  -5.504  0.00  0.00     0.180 HD
ENDROOT
BRANCH   1   3
HETATM    3  S   UNK N   1      30.960  24.749  -3.938  0.00  0.00     0.264 S 
HETATM    4  O   UNK N   1      30.965  23.695  -5.059  0.00  0.00    -0.200 OA
HETATM    5  O   UNK N   1      30.144  24.437  -2.673  0.00  0.00    -0.200 OA
BRANCH   3   6
HETATM    6  C   UNK N   1      29.157  24.490  -4.470  0.00  0.00     0.080 A 
HETATM    7  C   UNK N   1      28.820  24.430  -5.859  0.00  0.00     0.027 A 
HETATM    8  C   UNK N   1      27.507  24.235  -6.284  0.00  0.00     0.030 A 
HETATM    9  C   UNK N   1      26.486  24.090  -5.350  0.00  0.00     0.025 A 
HETATM   10  C   UNK N   1      26.776  24.140  -3.986  0.00  0.00     0.030 A 
HETATM   11  C   UNK N   1      28.090  24.337  -3.551  0.00  0.00     0.027 A 
BRANCH   9  12
HETATM   12  N   UNK N   1      25.160  23.893  -5.783  0.00  0.00    -0.399 N 
HETATM   13  H   UNK N   1      24.957  23.724  -6.731  0.00  0.00     0.156 HD
HETATM   14  H   UNK N   1      24.426  23.924  -5.127  0.00  0.00     0.156 HD
ENDBRANCH   9  12
ENDBRANCH   3   6
ENDBRANCH   1   3
BRANCH   1  15
HETATM   15  C   UNK N   1      30.478  27.478  -3.666  0.00  0.00     0.138 A 
HETATM   16  N   UNK N   1      29.293  28.104  -3.444  0.00  0.00    -0.240 N 
HETATM   17  N   UNK N   1      29.488  29.035  -2.524  0.00  0.00    -0.303 N 
HETATM   18  C   UNK N   1      30.787  29.028  -2.158  0.00  0.00     0.111 A 
ATOM     19  HN  UNK N   1      28.772  29.658  -2.151  1.00  0.00     0.186 HD
HETATM   20  C   UNK N   1      31.451  28.048  -2.876  0.00  0.00     0.069 A 
BRANCH  16  21
HETATM   21  C   UNK N   1      27.999  27.935  -4.070  0.00  0.00     0.058 A 
HETATM   22  C   UNK N   1      27.839  27.956  -5.462  0.00  0.00     0.031 A 
HETATM   23  C   UNK N   1      26.570  27.826  -6.037  0.00  0.00     0.002 A 
HETATM   24  C   UNK N   1      25.443  27.689  -5.223  0.00  0.00     0.000 A 
HETATM   25  C   UNK N   1      25.585  27.684  -3.835  0.00  0.00     0.002 A 
HETATM   26  C   UNK N   1      26.854  27.811  -3.262  0.00  0.00     0.031 A 
ENDBRANCH  16  21
ENDBRANCH   1  15
TORSDOF 5
ENDMDL
MODEL 8
REMARK VINA RESULT:      -5.5      3.603      4.955
REMARK  5 active torsions:
REMARK  status: ('A' for Active; 'I' for Inactive)
REMARK    1  A    between atoms: S_1  and  N_5 
REMARK    2  A    between atoms: S_1  and  C_10 
REMARK    3  A    between atoms: N_4  and  C_11 
REMARK    4  A    between atoms: N_5  and  C_9 
REMARK    5  A    between atoms: N_8  and  C_20 
ROOT
HETATM    1  N   UNK N   1      35.306  14.151   8.227  0.00  0.00    -0.264 N 
HETATM    2  H   UNK N   1      36.092  14.105   7.635  0.00  0.00     0.180 HD
ENDROOT
BRANCH   1   3
HETATM    3  S   UNK N   1      34.154  12.824   8.216  0.00  0.00     0.264 S 
HETATM    4  O   UNK N   1      34.584  11.661   7.307  0.00  0.00    -0.200 OA
HETATM    5  O   UNK N   1      32.689  13.283   8.138  0.00  0.00    -0.200 OA
BRANCH   3   6
HETATM    6  C   UNK N   1      33.816  13.359   6.427  0.00  0.00     0.080 A 
HETATM    7  C   UNK N   1      34.901  13.736   5.575  0.00  0.00     0.027 A 
HETATM    8  C   UNK N   1      34.690  14.129   4.254  0.00  0.00     0.030 A 
HETATM    9  C   UNK N   1      33.400  14.157   3.733  0.00  0.00     0.025 A 
HETATM   10  C   UNK N   1      32.317  13.793   4.533  0.00  0.00     0.030 A 
HETATM   11  C   UNK N   1      32.520  13.400   5.860  0.00  0.00     0.027 A 
BRANCH   9  12
HETATM   12  N   UNK N   1      33.190  14.553   2.398  0.00  0.00    -0.399 N 
HETATM   13  H   UNK N   1      33.116  13.886   1.678  0.00  0.00     0.156 HD
HETATM   14  H   UNK N   1      33.115  15.512   2.182  0.00  0.00     0.156 HD
ENDBRANCH   9  12
ENDBRANCH   3   6
ENDBRANCH   1   3
BRANCH   1  15
HETATM   15  C   UNK N   1      35.143  15.287   9.060  0.00  0.00     0.138 A 
HETATM   16  N   UNK N   1      34.339  16.363   8.851  0.00  0.00    -0.240 N 
HETATM   17  N   UNK N   1      34.451  17.166   9.897  0.00  0.00    -0.303 N 
HETATM   18  C   UNK N   1      35.326  16.631  10.773  0.00  0.00     0.111 A 
ATOM     19  HN  UNK N   1      33.954  18.048  10.021  1.00  0.00     0.186 HD
HETATM   20  C   UNK N   1      35.795  15.431  10.265  0.00  0.00     0.069 A 
BRANCH  16  21
HETATM   21  C   UNK N   1      33.514  16.725   7.719  0.00  0.00     0.058 A 
HETATM   22  C   UNK N   1      32.118  16.606   7.749  0.00  0.00     0.031 A 
HETATM   23  C   UNK N   1      31.349  16.930   6.626  0.00  0.00     0.002 A 
HETATM   24  C   UNK N   1      31.971  17.363   5.453  0.00  0.00     0.000 A 
HETATM   25  C   UNK N   1      33.362  17.469   5.403  0.00  0.00     0.002 A 
HETATM   26  C   UNK N   1      34.128  17.148   6.527  0.00  0.00     0.031 A 
ENDBRANCH  16  21
ENDBRANCH   1  15
TORSDOF 5
ENDMDL
MODEL 9
REMARK VINA RESULT:      -5.5     13.039     14.820
REMARK  5 active torsions:
REMARK  status: ('A' for Active; 'I' for Inactive)
REMARK    1  A    between atoms: S_1  and  N_5 
REMARK    2  A    between atoms: S_1  and  C_10 
REMARK    3  A    between atoms: N_4  and  C_11 
REMARK    4  A    between atoms: N_5  and  C_9 
REMARK    5  A    between atoms: N_8  and  C_20 
ROOT
HETATM    1  N   UNK N   1      25.564  24.532  -6.206  0.00  0.00    -0.264 N 
HETATM    2  H   UNK N   1      25.446  23.673  -5.740  0.00  0.00     0.180 HD
ENDROOT
BRANCH   1   3
HETATM    3  S   UNK N   1      25.585  24.549  -7.963  0.00  0.00     0.264 S 
HETATM    4  O   UNK N   1      24.889  23.328  -8.586  0.00  0.00    -0.200 OA
HETATM    5  O   UNK N   1      26.938  24.976  -8.557  0.00  0.00    -0.200 OA
BRANCH   3   6
HETATM    6  C   UNK N   1      26.774  23.080  -7.792  0.00  0.00     0.080 A 
HETATM    7  C   UNK N   1      27.875  23.152  -6.881  0.00  0.00     0.027 A 
HETATM    8  C   UNK N   1      28.765  22.089  -6.725  0.00  0.00     0.030 A 
HETATM    9  C   UNK N   1      28.591  20.922  -7.462  0.00  0.00     0.025 A 
HETATM   10  C   UNK N   1      27.527  20.813  -8.358  0.00  0.00     0.030 A 
HETATM   11  C   UNK N   1      26.631  21.875  -8.521  0.00  0.00     0.027 A 
BRANCH   9  12
HETATM   12  N   UNK N   1      29.490  19.850  -7.302  0.00  0.00    -0.399 N 
HETATM   13  H   UNK N   1      30.346  19.973  -6.831  0.00  0.00     0.156 HD
HETATM   14  H   UNK N   1      29.259  18.964  -7.666  0.00  0.00     0.156 HD
ENDBRANCH   9  12
ENDBRANCH   3   6
ENDBRANCH   1   3
BRANCH   1  15
HETATM   15  C   UNK N   1      25.711  25.714  -5.437  0.00  0.00     0.138 A 
HETATM   16  N   UNK N   1      26.654  25.983  -4.497  0.00  0.00    -0.240 N 
HETATM   17  N   UNK N   1      26.458  27.217  -4.062  0.00  0.00    -0.303 N 
HETATM   18  C   UNK N   1      25.392  27.745  -4.697  0.00  0.00     0.111 A 
ATOM     19  HN  UNK N   1      27.023  27.693  -3.358  1.00  0.00     0.186 HD
HETATM   20  C   UNK N   1      24.884  26.807  -5.580  0.00  0.00     0.069 A 
BRANCH  16  21
HETATM   21  C   UNK N   1      27.695  25.151  -3.932  0.00  0.00     0.058 A 
HETATM   22  C   UNK N   1      27.405  24.066  -3.094  0.00  0.00     0.031 A 
HETATM   23  C   UNK N   1      28.433  23.301  -2.534  0.00  0.00     0.002 A 
HETATM   24  C   UNK N   1      29.767  23.624  -2.795  0.00  0.00     0.000 A 
HETATM   25  C   UNK N   1      30.071  24.712  -3.613  0.00  0.00     0.002 A 
HETATM   26  C   UNK N   1      29.042  25.473  -4.174  0.00  0.00     0.031 A 
ENDBRANCH  16  21
ENDBRANCH   1  15
TORSDOF 5
ENDMDL
