REMARK  6 active torsions:
REMARK  status: ('A' for Active; 'I' for Inactive)
REMARK    1  A    between atoms: O_1  and  C_18 
REMARK    2  A    between atoms: O_2  and  C_19 
REMARK    3  A    between atoms: O_3  and  C_24 
REMARK    4  A    between atoms: O_4  and  C_26 
REMARK    5  A    between atoms: C_9  and  C_11 
REMARK    6  A    between atoms: C_15  and  C_21 
ROOT
HETATM    1  N   UNK N   1       4.777   3.095  -0.256  0.00  0.00    -0.308 N 
ATOM      2  HN  UNK N   1       5.277   3.984  -0.264  1.00  0.00     0.186 HD
HETATM    3  N   UNK N   1       5.572   2.009   0.016  0.00  0.00    -0.299 N 
ATOM      4  HN  UNK N   1       6.563   2.240   0.081  1.00  0.00     0.187 HD
HETATM    5  C   UNK N   1       2.465   2.124  -0.446  0.00  0.00     0.066 C 
HETATM    6  C   UNK N   1       2.721   0.686  -0.105  0.00  0.00    -0.033 A 
HETATM    7  C   UNK N   1       3.959   0.105   0.247  0.00  0.00     0.003 A 
HETATM    8  C   UNK N   1       3.518   3.201  -0.502  0.00  0.00     0.008 C 
HETATM    9  C   UNK N   1       1.583  -0.151  -0.181  0.00  0.00     0.048 A 
HETATM   10  C   UNK N   1       5.326   0.753   0.208  0.00  0.00     0.069 C 
HETATM   11  C   UNK N   1       3.939  -1.247   0.638  0.00  0.00     0.054 A 
HETATM   12  C   UNK N   1       1.622  -1.519   0.135  0.00  0.00     0.102 A 
HETATM   13  C   UNK N   1       2.829  -2.063   0.595  0.00  0.00     0.102 A 
HETATM   14  C   UNK N   1       3.060   4.558  -0.931  0.00  0.00     0.066 C 
ENDROOT
BRANCH  10  15
HETATM   15  C   UNK N   1       6.559  -0.128   0.166  0.00  0.00    -0.004 A 
HETATM   16  C   UNK N   1       7.848   0.430   0.250  0.00  0.00     0.053 A 
HETATM   17  C   UNK N   1       8.998  -0.364   0.038  0.00  0.00     0.102 A 
HETATM   18  C   UNK N   1       8.854  -1.723  -0.291  0.00  0.00     0.101 A 
HETATM   19  C   UNK N   1       7.577  -2.277  -0.378  0.00  0.00     0.040 A 
HETATM   20  C   UNK N   1       6.461  -1.490  -0.161  0.00  0.00     0.017 A 
BRANCH  17  21
HETATM   21  O   UNK N   1      10.244   0.161   0.126  0.00  0.00    -0.353 OA
HETATM   22  C   UNK N   1      10.489   1.475   0.454  0.00  0.00     0.210 C 
ENDBRANCH  17  21
BRANCH  18  23
HETATM   23  O   UNK N   1       9.952  -2.481  -0.529  0.00  0.00    -0.353 OA
HETATM   24  C   UNK N   1       9.881  -3.807  -0.899  0.00  0.00     0.210 C 
ENDBRANCH  18  23
ENDBRANCH  10  15
BRANCH   5  25
HETATM   25  C   UNK N   1       1.341   2.618   0.479  0.00  0.00     0.011 C 
HETATM   26  C   UNK N   1       0.329   3.456  -0.284  0.00  0.00     0.006 C 
ENDBRANCH   5  25
BRANCH  13  27
HETATM   27  O   UNK N   1       2.996  -3.364   0.956  0.00  0.00    -0.353 OA
HETATM   28  C   UNK N   1       2.051  -4.355   0.849  0.00  0.00     0.210 C 
ENDBRANCH  13  27
BRANCH  12  29
HETATM   29  O   UNK N   1       0.525  -2.301  -0.004  0.00  0.00    -0.353 OA
HETATM   30  C   UNK N   1      -0.640  -1.872  -0.598  0.00  0.00     0.210 C 
ENDBRANCH  12  29
TORSDOF 6
