MODEL 1
REMARK VINA RESULT:      -6.7      0.000      0.000
REMARK  6 active torsions:
REMARK  status: ('A' for Active; 'I' for Inactive)
REMARK    1  A    between atoms: O_1  and  C_18 
REMARK    2  A    between atoms: O_2  and  C_19 
REMARK    3  A    between atoms: O_3  and  C_24 
REMARK    4  A    between atoms: O_4  and  C_26 
REMARK    5  A    between atoms: C_9  and  C_11 
REMARK    6  A    between atoms: C_15  and  C_21 
ROOT
HETATM    1  N   UNK N   1      26.243  17.282   5.472  0.00  0.00    -0.308 N 
ATOM      2  HN  UNK N   1      27.000  16.836   5.990  1.00  0.00     0.186 HD
HETATM    3  N   UNK N   1      25.008  16.726   5.698  0.00  0.00    -0.299 N 
ATOM      4  HN  UNK N   1      25.042  15.890   6.281  1.00  0.00     0.187 HD
HETATM    5  C   UNK N   1      25.767  19.216   3.936  0.00  0.00     0.066 C 
HETATM    6  C   UNK N   1      24.270  19.166   3.856  0.00  0.00    -0.033 A 
HETATM    7  C   UNK N   1      23.414  18.258   4.518  0.00  0.00     0.003 A 
HETATM    8  C   UNK N   1      26.623  18.262   4.729  0.00  0.00     0.008 C 
HETATM    9  C   UNK N   1      23.692  20.128   2.995  0.00  0.00     0.048 A 
HETATM   10  C   UNK N   1      23.809  17.041   5.326  0.00  0.00     0.069 C 
HETATM   11  C   UNK N   1      22.030  18.473   4.382  0.00  0.00     0.054 A 
HETATM   12  C   UNK N   1      22.304  20.255   2.818  0.00  0.00     0.102 A 
HETATM   13  C   UNK N   1      21.458  19.427   3.568  0.00  0.00     0.102 A 
HETATM   14  C   UNK N   1      28.103  18.446   4.618  0.00  0.00     0.066 C 
ENDROOT
BRANCH  10  15
HETATM   15  C   UNK N   1      22.786  15.948   5.562  0.00  0.00    -0.004 A 
HETATM   16  C   UNK N   1      22.117  15.839   6.795  0.00  0.00     0.053 A 
HETATM   17  C   UNK N   1      21.295  14.725   7.079  0.00  0.00     0.102 A 
HETATM   18  C   UNK N   1      21.165  13.696   6.130  0.00  0.00     0.101 A 
HETATM   19  C   UNK N   1      21.830  13.801   4.908  0.00  0.00     0.040 A 
HETATM   20  C   UNK N   1      22.625  14.900   4.641  0.00  0.00     0.017 A 
BRANCH  17  21
HETATM   21  O   UNK N   1      20.639  14.614   8.259  0.00  0.00    -0.353 OA
HETATM   22  C   UNK N   1      20.046  15.680   8.897  0.00  0.00     0.210 C 
ENDBRANCH  17  21
BRANCH  18  23
HETATM   23  O   UNK N   1      20.405  12.609   6.410  0.00  0.00    -0.353 OA
HETATM   24  C   UNK N   1      20.741  11.336   6.003  0.00  0.00     0.210 C 
ENDBRANCH  18  23
ENDBRANCH  10  15
BRANCH   5  25
HETATM   25  C   UNK N   1      26.153  20.645   4.350  0.00  0.00     0.011 C 
HETATM   26  C   UNK N   1      26.081  20.819   5.858  0.00  0.00     0.006 C 
ENDBRANCH   5  25
BRANCH  13  27
HETATM   27  O   UNK N   1      20.099  19.464   3.509  0.00  0.00    -0.353 OA
HETATM   28  C   UNK N   1      19.303  18.617   2.777  0.00  0.00     0.210 C 
ENDBRANCH  13  27
BRANCH  12  29
HETATM   29  O   UNK N   1      21.789  21.151   1.942  0.00  0.00    -0.353 OA
HETATM   30  C   UNK N   1      21.207  20.792   0.748  0.00  0.00     0.210 C 
ENDBRANCH  12  29
TORSDOF 6
ENDMDL
MODEL 2
REMARK VINA RESULT:      -6.7      3.115      6.042
REMARK  6 active torsions:
REMARK  status: ('A' for Active; 'I' for Inactive)
REMARK    1  A    between atoms: O_1  and  C_18 
REMARK    2  A    between atoms: O_2  and  C_19 
REMARK    3  A    between atoms: O_3  and  C_24 
REMARK    4  A    between atoms: O_4  and  C_26 
REMARK    5  A    between atoms: C_9  and  C_11 
REMARK    6  A    between atoms: C_15  and  C_21 
ROOT
HETATM    1  N   UNK N   1      27.442  18.914   6.828  0.00  0.00    -0.308 N 
ATOM      2  HN  UNK N   1      27.616  19.670   7.490  1.00  0.00     0.186 HD
HETATM    3  N   UNK N   1      26.440  19.178   5.928  0.00  0.00    -0.299 N 
ATOM      4  HN  UNK N   1      25.954  20.056   6.110  1.00  0.00     0.187 HD
HETATM    5  C   UNK N   1      28.310  16.660   6.128  0.00  0.00     0.066 C 
HETATM    6  C   UNK N   1      27.495  16.401   4.896  0.00  0.00    -0.033 A 
HETATM    7  C   UNK N   1      26.530  17.256   4.322  0.00  0.00     0.003 A 
HETATM    8  C   UNK N   1      28.205  17.890   6.992  0.00  0.00     0.008 C 
HETATM    9  C   UNK N   1      27.727  15.145   4.287  0.00  0.00     0.048 A 
HETATM   10  C   UNK N   1      25.983  18.546   4.895  0.00  0.00     0.069 C 
HETATM   11  C   UNK N   1      25.969  16.851   3.096  0.00  0.00     0.054 A 
HETATM   12  C   UNK N   1      27.082  14.740   3.107  0.00  0.00     0.102 A 
HETATM   13  C   UNK N   1      26.211  15.642   2.481  0.00  0.00     0.102 A 
HETATM   14  C   UNK N   1      29.062  17.919   8.217  0.00  0.00     0.066 C 
ENDROOT
BRANCH  10  15
HETATM   15  C   UNK N   1      24.654  19.072   4.391  0.00  0.00    -0.004 A 
HETATM   16  C   UNK N   1      23.453  18.402   4.688  0.00  0.00     0.053 A 
HETATM   17  C   UNK N   1      22.236  18.788   4.080  0.00  0.00     0.102 A 
HETATM   18  C   UNK N   1      22.229  19.835   3.142  0.00  0.00     0.101 A 
HETATM   19  C   UNK N   1      23.420  20.498   2.844  0.00  0.00     0.040 A 
HETATM   20  C   UNK N   1      24.601  20.115   3.452  0.00  0.00     0.017 A 
BRANCH  17  21
HETATM   21  O   UNK N   1      21.073  18.156   4.366  0.00  0.00    -0.353 OA
HETATM   22  C   UNK N   1      20.722  16.938   3.829  0.00  0.00     0.210 C 
ENDBRANCH  17  21
BRANCH  18  23
HETATM   23  O   UNK N   1      21.072  20.187   2.530  0.00  0.00    -0.353 OA
HETATM   24  C   UNK N   1      20.971  20.371   1.168  0.00  0.00     0.210 C 
ENDBRANCH  18  23
ENDBRANCH  10  15
BRANCH   5  25
HETATM   25  C   UNK N   1      29.788  16.487   5.741  0.00  0.00     0.011 C 
HETATM   26  C   UNK N   1      30.242  17.588   4.797  0.00  0.00     0.006 C 
ENDBRANCH   5  25
BRANCH  13  27
HETATM   27  O   UNK N   1      25.542  15.385   1.324  0.00  0.00    -0.353 OA
HETATM   28  C   UNK N   1      24.435  14.582   1.198  0.00  0.00     0.210 C 
ENDBRANCH  13  27
BRANCH  12  29
HETATM   29  O   UNK N   1      27.287  13.507   2.585  0.00  0.00    -0.353 OA
HETATM   30  C   UNK N   1      28.413  13.165   1.871  0.00  0.00     0.210 C 
ENDBRANCH  12  29
TORSDOF 6
ENDMDL
MODEL 3
REMARK VINA RESULT:      -6.2      5.348      8.665
REMARK  6 active torsions:
REMARK  status: ('A' for Active; 'I' for Inactive)
REMARK    1  A    between atoms: O_1  and  C_18 
REMARK    2  A    between atoms: O_2  and  C_19 
REMARK    3  A    between atoms: O_3  and  C_24 
REMARK    4  A    between atoms: O_4  and  C_26 
REMARK    5  A    between atoms: C_9  and  C_11 
REMARK    6  A    between atoms: C_15  and  C_21 
ROOT
HETATM    1  N   UNK N   1      27.751  19.808   4.066  0.00  0.00    -0.308 N 
ATOM      2  HN  UNK N   1      27.875  20.813   4.190  1.00  0.00     0.186 HD
HETATM    3  N   UNK N   1      28.768  19.050   4.593  0.00  0.00    -0.299 N 
ATOM      4  HN  UNK N   1      29.543  19.607   4.951  1.00  0.00     0.187 HD
HETATM    5  C   UNK N   1      26.110  18.110   3.203  0.00  0.00     0.066 C 
HETATM    6  C   UNK N   1      26.756  16.828   3.639  0.00  0.00    -0.033 A 
HETATM    7  C   UNK N   1      27.959  16.689   4.365  0.00  0.00     0.003 A 
HETATM    8  C   UNK N   1      26.670  19.488   3.446  0.00  0.00     0.008 C 
HETATM    9  C   UNK N   1      26.072  15.656   3.240  0.00  0.00     0.048 A 
HETATM   10  C   UNK N   1      28.947  17.776   4.730  0.00  0.00     0.069 C 
HETATM   11  C   UNK N   1      28.315  15.386   4.763  0.00  0.00     0.054 A 
HETATM   12  C   UNK N   1      26.509  14.366   3.584  0.00  0.00     0.102 A 
HETATM   13  C   UNK N   1      27.639  14.240   4.402  0.00  0.00     0.102 A 
HETATM   14  C   UNK N   1      25.900  20.631   2.866  0.00  0.00     0.066 C 
ENDROOT
BRANCH  10  15
HETATM   15  C   UNK N   1      30.370  17.390   5.086  0.00  0.00    -0.004 A 
HETATM   16  C   UNK N   1      30.762  17.240   6.429  0.00  0.00     0.053 A 
HETATM   17  C   UNK N   1      32.120  17.053   6.771  0.00  0.00     0.102 A 
HETATM   18  C   UNK N   1      33.098  17.045   5.761  0.00  0.00     0.101 A 
HETATM   19  C   UNK N   1      32.711  17.197   4.430  0.00  0.00     0.040 A 
HETATM   20  C   UNK N   1      31.378  17.373   4.109  0.00  0.00     0.017 A 
BRANCH  17  21
HETATM   21  O   UNK N   1      32.508  16.898   8.060  0.00  0.00    -0.353 OA
HETATM   22  C   UNK N   1      32.273  15.754   8.788  0.00  0.00     0.210 C 
ENDBRANCH  17  21
BRANCH  18  23
HETATM   23  O   UNK N   1      34.406  16.900   6.087  0.00  0.00    -0.353 OA
HETATM   24  C   UNK N   1      35.048  15.681   6.080  0.00  0.00     0.210 C 
ENDBRANCH  18  23
ENDBRANCH  10  15
BRANCH   5  25
HETATM   25  C   UNK N   1      24.666  18.093   3.730  0.00  0.00     0.011 C 
HETATM   26  C   UNK N   1      24.628  18.286   5.237  0.00  0.00     0.006 C 
ENDBRANCH   5  25
BRANCH  13  27
HETATM   27  O   UNK N   1      28.151  13.054   4.827  0.00  0.00    -0.353 OA
HETATM   28  C   UNK N   1      29.211  12.388   4.261  0.00  0.00     0.210 C 
ENDBRANCH  13  27
BRANCH  12  29
HETATM   29  O   UNK N   1      25.860  13.265   3.135  0.00  0.00    -0.353 OA
HETATM   30  C   UNK N   1      26.147  12.653   1.936  0.00  0.00     0.210 C 
ENDBRANCH  12  29
TORSDOF 6
ENDMDL
MODEL 4
REMARK VINA RESULT:      -6.2     11.503     14.683
REMARK  6 active torsions:
REMARK  status: ('A' for Active; 'I' for Inactive)
REMARK    1  A    between atoms: O_1  and  C_18 
REMARK    2  A    between atoms: O_2  and  C_19 
REMARK    3  A    between atoms: O_3  and  C_24 
REMARK    4  A    between atoms: O_4  and  C_26 
REMARK    5  A    between atoms: C_9  and  C_11 
REMARK    6  A    between atoms: C_15  and  C_21 
ROOT
HETATM    1  N   UNK N   1      32.284  15.660   9.667  0.00  0.00    -0.308 N 
ATOM      2  HN  UNK N   1      31.396  15.898  10.108  1.00  0.00     0.186 HD
HETATM    3  N   UNK N   1      33.130  14.935  10.470  0.00  0.00    -0.299 N 
ATOM      4  HN  UNK N   1      32.783  14.819  11.421  1.00  0.00     0.187 HD
HETATM    5  C   UNK N   1      33.513  15.822   7.478  0.00  0.00     0.066 C 
HETATM    6  C   UNK N   1      34.727  14.987   7.760  0.00  0.00    -0.033 A 
HETATM    7  C   UNK N   1      35.023  14.297   8.956  0.00  0.00     0.003 A 
HETATM    8  C   UNK N   1      32.402  16.094   8.461  0.00  0.00     0.008 C 
HETATM    9  C   UNK N   1      35.663  14.930   6.701  0.00  0.00     0.048 A 
HETATM   10  C   UNK N   1      34.276  14.367  10.270  0.00  0.00     0.069 C 
HETATM   11  C   UNK N   1      36.170  13.482   8.953  0.00  0.00     0.054 A 
HETATM   12  C   UNK N   1      36.843  14.171   6.769  0.00  0.00     0.102 A 
HETATM   13  C   UNK N   1      37.073  13.397   7.915  0.00  0.00     0.102 A 
HETATM   14  C   UNK N   1      31.315  17.011   8.000  0.00  0.00     0.066 C 
ENDROOT
BRANCH  10  15
HETATM   15  C   UNK N   1      34.983  13.945  11.544  0.00  0.00    -0.004 A 
HETATM   16  C   UNK N   1      34.724  12.693  12.132  0.00  0.00     0.053 A 
HETATM   17  C   UNK N   1      35.245  12.367  13.404  0.00  0.00     0.102 A 
HETATM   18  C   UNK N   1      36.008  13.316  14.107  0.00  0.00     0.101 A 
HETATM   19  C   UNK N   1      36.263  14.558  13.527  0.00  0.00     0.040 A 
HETATM   20  C   UNK N   1      35.752  14.861  12.279  0.00  0.00     0.017 A 
BRANCH  17  21
HETATM   21  O   UNK N   1      35.010  11.161  13.975  0.00  0.00    -0.353 OA
HETATM   22  C   UNK N   1      33.805  10.817  14.545  0.00  0.00     0.210 C 
ENDBRANCH  17  21
BRANCH  18  23
HETATM   23  O   UNK N   1      36.482  13.021  15.342  0.00  0.00    -0.353 OA
HETATM   24  C   UNK N   1      35.843  13.406  16.501  0.00  0.00     0.210 C 
ENDBRANCH  18  23
ENDBRANCH  10  15
BRANCH   5  25
HETATM   25  C   UNK N   1      32.874  15.276   6.191  0.00  0.00     0.011 C 
HETATM   26  C   UNK N   1      32.307  13.882   6.406  0.00  0.00     0.006 C 
ENDBRANCH   5  25
BRANCH  13  27
HETATM   27  O   UNK N   1      38.162  12.601   8.097  0.00  0.00    -0.353 OA
HETATM   28  C   UNK N   1      39.431  13.033   8.395  0.00  0.00     0.210 C 
ENDBRANCH  13  27
BRANCH  12  29
HETATM   29  O   UNK N   1      37.744  14.185   5.758  0.00  0.00    -0.353 OA
HETATM   30  C   UNK N   1      37.575  13.487   4.584  0.00  0.00     0.210 C 
ENDBRANCH  12  29
TORSDOF 6
ENDMDL
MODEL 5
REMARK VINA RESULT:      -6.2     12.779     15.946
REMARK  6 active torsions:
REMARK  status: ('A' for Active; 'I' for Inactive)
REMARK    1  A    between atoms: O_1  and  C_18 
REMARK    2  A    between atoms: O_2  and  C_19 
REMARK    3  A    between atoms: O_3  and  C_24 
REMARK    4  A    between atoms: O_4  and  C_26 
REMARK    5  A    between atoms: C_9  and  C_11 
REMARK    6  A    between atoms: C_15  and  C_21 
ROOT
HETATM    1  N   UNK N   1      33.466  15.757  10.241  0.00  0.00    -0.308 N 
ATOM      2  HN  UNK N   1      32.627  16.278  10.496  1.00  0.00     0.186 HD
HETATM    3  N   UNK N   1      33.909  14.898  11.217  0.00  0.00    -0.299 N 
ATOM      4  HN  UNK N   1      33.386  14.973  12.089  1.00  0.00     0.187 HD
HETATM    5  C   UNK N   1      35.043  15.363   8.322  0.00  0.00     0.066 C 
HETATM    6  C   UNK N   1      35.888  14.246   8.860  0.00  0.00    -0.033 A 
HETATM    7  C   UNK N   1      35.757  13.613  10.115  0.00  0.00     0.003 A 
HETATM    8  C   UNK N   1      33.912  16.028   9.065  0.00  0.00     0.008 C 
HETATM    9  C   UNK N   1      36.932  13.829   8.001  0.00  0.00     0.048 A 
HETATM   10  C   UNK N   1      34.852  14.012  11.260  0.00  0.00     0.069 C 
HETATM   11  C   UNK N   1      36.594  12.508  10.360  0.00  0.00     0.054 A 
HETATM   12  C   UNK N   1      37.804  12.775   8.320  0.00  0.00     0.102 A 
HETATM   13  C   UNK N   1      37.595  12.076   9.517  0.00  0.00     0.102 A 
HETATM   14  C   UNK N   1      33.242  17.170   8.372  0.00  0.00     0.066 C 
ENDROOT
BRANCH  10  15
HETATM   15  C   UNK N   1      35.172  13.524  12.659  0.00  0.00    -0.004 A 
HETATM   16  C   UNK N   1      36.120  14.192  13.457  0.00  0.00     0.053 A 
HETATM   17  C   UNK N   1      36.548  13.644  14.687  0.00  0.00     0.102 A 
HETATM   18  C   UNK N   1      36.044  12.401  15.108  0.00  0.00     0.101 A 
HETATM   19  C   UNK N   1      35.107  11.737  14.318  0.00  0.00     0.040 A 
HETATM   20  C   UNK N   1      34.692  12.288  13.119  0.00  0.00     0.017 A 
BRANCH  17  21
HETATM   21  O   UNK N   1      37.453  14.283  15.467  0.00  0.00    -0.353 OA
HETATM   22  C   UNK N   1      37.326  15.599  15.850  0.00  0.00     0.210 C 
ENDBRANCH  17  21
BRANCH  18  23
HETATM   23  O   UNK N   1      36.476  11.855  16.271  0.00  0.00    -0.353 OA
HETATM   24  C   UNK N   1      36.346  10.514  16.562  0.00  0.00     0.210 C 
ENDBRANCH  18  23
ENDBRANCH  10  15
BRANCH   5  25
HETATM   25  C   UNK N   1      34.500  14.907   6.958  0.00  0.00     0.011 C 
HETATM   26  C   UNK N   1      33.457  13.814   7.118  0.00  0.00     0.006 C 
ENDBRANCH   5  25
BRANCH  13  27
HETATM   27  O   UNK N   1      38.350  11.023   9.932  0.00  0.00    -0.353 OA
HETATM   28  C   UNK N   1      38.040  10.169  10.962  0.00  0.00     0.210 C 
ENDBRANCH  13  27
BRANCH  12  29
HETATM   29  O   UNK N   1      38.827  12.441   7.499  0.00  0.00    -0.353 OA
HETATM   30  C   UNK N   1      39.967  13.200   7.361  0.00  0.00     0.210 C 
ENDBRANCH  12  29
TORSDOF 6
ENDMDL
MODEL 6
REMARK VINA RESULT:      -6.1      5.010      8.106
REMARK  6 active torsions:
REMARK  status: ('A' for Active; 'I' for Inactive)
REMARK    1  A    between atoms: O_1  and  C_18 
REMARK    2  A    between atoms: O_2  and  C_19 
REMARK    3  A    between atoms: O_3  and  C_24 
REMARK    4  A    between atoms: O_4  and  C_26 
REMARK    5  A    between atoms: C_9  and  C_11 
REMARK    6  A    between atoms: C_15  and  C_21 
ROOT
HETATM    1  N   UNK N   1      28.761  13.812   3.067  0.00  0.00    -0.308 N 
ATOM      2  HN  UNK N   1      29.207  12.932   2.808  1.00  0.00     0.186 HD
HETATM    3  N   UNK N   1      29.588  14.685   3.728  0.00  0.00    -0.299 N 
ATOM      4  HN  UNK N   1      30.503  14.290   3.943  1.00  0.00     0.187 HD
HETATM    5  C   UNK N   1      26.607  15.086   2.817  0.00  0.00     0.066 C 
HETATM    6  C   UNK N   1      26.983  16.416   3.398  0.00  0.00    -0.033 A 
HETATM    7  C   UNK N   1      28.244  16.793   3.909  0.00  0.00     0.003 A 
HETATM    8  C   UNK N   1      27.526  13.896   2.712  0.00  0.00     0.008 C 
HETATM    9  C   UNK N   1      25.929  17.359   3.446  0.00  0.00     0.048 A 
HETATM   10  C   UNK N   1      29.450  15.906   4.134  0.00  0.00     0.069 C 
HETATM   11  C   UNK N   1      28.397  18.136   4.300  0.00  0.00     0.054 A 
HETATM   12  C   UNK N   1      26.100  18.668   3.926  0.00  0.00     0.102 A 
HETATM   13  C   UNK N   1      27.383  19.070   4.323  0.00  0.00     0.102 A 
HETATM   14  C   UNK N   1      26.930  12.640   2.162  0.00  0.00     0.066 C 
ENDROOT
BRANCH  10  15
HETATM   15  C   UNK N   1      30.528  16.359   5.099  0.00  0.00    -0.004 A 
HETATM   16  C   UNK N   1      30.237  16.568   6.460  0.00  0.00     0.053 A 
HETATM   17  C   UNK N   1      31.191  17.153   7.324  0.00  0.00     0.102 A 
HETATM   18  C   UNK N   1      32.435  17.560   6.813  0.00  0.00     0.101 A 
HETATM   19  C   UNK N   1      32.724  17.357   5.464  0.00  0.00     0.040 A 
HETATM   20  C   UNK N   1      31.785  16.777   4.631  0.00  0.00     0.017 A 
BRANCH  17  21
HETATM   21  O   UNK N   1      30.925  17.350   8.638  0.00  0.00    -0.353 OA
HETATM   22  C   UNK N   1      30.145  18.384   9.104  0.00  0.00     0.210 C 
ENDBRANCH  17  21
BRANCH  18  23
HETATM   23  O   UNK N   1      33.340  18.153   7.630  0.00  0.00    -0.353 OA
HETATM   24  C   UNK N   1      34.404  17.476   8.186  0.00  0.00     0.210 C 
ENDBRANCH  18  23
ENDBRANCH  10  15
BRANCH   5  25
HETATM   25  C   UNK N   1      26.022  15.348   1.419  0.00  0.00     0.011 C 
HETATM   26  C   UNK N   1      24.611  14.796   1.301  0.00  0.00     0.006 C 
ENDBRANCH   5  25
BRANCH  13  27
HETATM   27  O   UNK N   1      27.689  20.313   4.784  0.00  0.00    -0.353 OA
HETATM   28  C   UNK N   1      27.562  20.742   6.082  0.00  0.00     0.210 C 
ENDBRANCH  13  27
BRANCH  12  29
HETATM   29  O   UNK N   1      25.055  19.525   4.010  0.00  0.00    -0.353 OA
HETATM   30  C   UNK N   1      23.746  19.143   3.824  0.00  0.00     0.210 C 
ENDBRANCH  12  29
TORSDOF 6
ENDMDL
MODEL 7
REMARK VINA RESULT:      -6.1     11.771     15.471
REMARK  6 active torsions:
REMARK  status: ('A' for Active; 'I' for Inactive)
REMARK    1  A    between atoms: O_1  and  C_18 
REMARK    2  A    between atoms: O_2  and  C_19 
REMARK    3  A    between atoms: O_3  and  C_24 
REMARK    4  A    between atoms: O_4  and  C_26 
REMARK    5  A    between atoms: C_9  and  C_11 
REMARK    6  A    between atoms: C_15  and  C_21 
ROOT
HETATM    1  N   UNK N   1      36.669  15.084  13.181  0.00  0.00    -0.308 N 
ATOM      2  HN  UNK N   1      37.208  15.860  13.565  1.00  0.00     0.186 HD
HETATM    3  N   UNK N   1      36.283  15.265  11.875  0.00  0.00    -0.299 N 
ATOM      4  HN  UNK N   1      36.515  16.188  11.510  1.00  0.00     0.187 HD
HETATM    5  C   UNK N   1      35.844  12.777  13.746  0.00  0.00     0.066 C 
HETATM    6  C   UNK N   1      35.283  12.335  12.427  0.00  0.00    -0.033 A 
HETATM    7  C   UNK N   1      35.278  13.065  11.219  0.00  0.00     0.003 A 
HETATM    8  C   UNK N   1      36.479  14.119  14.010  0.00  0.00     0.008 C 
HETATM    9  C   UNK N   1      34.679  11.055  12.441  0.00  0.00     0.048 A 
HETATM   10  C   UNK N   1      35.688  14.507  11.012  0.00  0.00     0.069 C 
HETATM   11  C   UNK N   1      34.796  12.401  10.075  0.00  0.00     0.054 A 
HETATM   12  C   UNK N   1      34.129  10.460  11.294  0.00  0.00     0.102 A 
HETATM   13  C   UNK N   1      34.232  11.143  10.074  0.00  0.00     0.102 A 
HETATM   14  C   UNK N   1      36.912  14.385  15.416  0.00  0.00     0.066 C 
ENDROOT
BRANCH  10  15
HETATM   15  C   UNK N   1      35.188  15.247   9.786  0.00  0.00    -0.004 A 
HETATM   16  C   UNK N   1      35.617  14.881   8.497  0.00  0.00     0.053 A 
HETATM   17  C   UNK N   1      35.293  15.672   7.372  0.00  0.00     0.102 A 
HETATM   18  C   UNK N   1      34.558  16.858   7.544  0.00  0.00     0.101 A 
HETATM   19  C   UNK N   1      34.135  17.225   8.822  0.00  0.00     0.040 A 
HETATM   20  C   UNK N   1      34.453  16.437   9.913  0.00  0.00     0.017 A 
BRANCH  17  21
HETATM   21  O   UNK N   1      35.692  15.324   6.125  0.00  0.00    -0.353 OA
HETATM   22  C   UNK N   1      35.261  14.185   5.484  0.00  0.00     0.210 C 
ENDBRANCH  17  21
BRANCH  18  23
HETATM   23  O   UNK N   1      34.273  17.639   6.474  0.00  0.00    -0.353 OA
HETATM   24  C   UNK N   1      33.104  17.524   5.752  0.00  0.00     0.210 C 
ENDBRANCH  18  23
ENDBRANCH  10  15
BRANCH   5  25
HETATM   25  C   UNK N   1      36.832  11.694  14.207  0.00  0.00     0.011 C 
HETATM   26  C   UNK N   1      36.362  11.030  15.490  0.00  0.00     0.006 C 
ENDBRANCH   5  25
BRANCH  13  27
HETATM   27  O   UNK N   1      33.764  10.669   8.888  0.00  0.00    -0.353 OA
HETATM   28  C   UNK N   1      34.209  11.042   7.643  0.00  0.00     0.210 C 
ENDBRANCH  13  27
BRANCH  12  29
HETATM   29  O   UNK N   1      33.509   9.258  11.358  0.00  0.00    -0.353 OA
HETATM   30  C   UNK N   1      34.174   8.057  11.265  0.00  0.00     0.210 C 
ENDBRANCH  12  29
TORSDOF 6
ENDMDL
MODEL 8
REMARK VINA RESULT:      -6.1      6.101      9.675
REMARK  6 active torsions:
REMARK  status: ('A' for Active; 'I' for Inactive)
REMARK    1  A    between atoms: O_1  and  C_18 
REMARK    2  A    between atoms: O_2  and  C_19 
REMARK    3  A    between atoms: O_3  and  C_24 
REMARK    4  A    between atoms: O_4  and  C_26 
REMARK    5  A    between atoms: C_9  and  C_11 
REMARK    6  A    between atoms: C_15  and  C_21 
ROOT
HETATM    1  N   UNK N   1      27.741  18.164   3.394  0.00  0.00    -0.308 N 
ATOM      2  HN  UNK N   1      27.376  18.356   2.462  1.00  0.00     0.186 HD
HETATM    3  N   UNK N   1      28.988  17.590   3.399  0.00  0.00    -0.299 N 
ATOM      4  HN  UNK N   1      29.329  17.356   2.467  1.00  0.00     0.187 HD
HETATM    5  C   UNK N   1      27.211  18.487   5.832  0.00  0.00     0.066 C 
HETATM    6  C   UNK N   1      28.484  18.023   6.474  0.00  0.00    -0.033 A 
HETATM    7  C   UNK N   1      29.647  17.564   5.817  0.00  0.00     0.003 A 
HETATM    8  C   UNK N   1      26.946  18.507   4.348  0.00  0.00     0.008 C 
HETATM    9  C   UNK N   1      28.472  18.037   7.888  0.00  0.00     0.048 A 
HETATM   10  C   UNK N   1      29.822  17.284   4.340  0.00  0.00     0.069 C 
HETATM   11  C   UNK N   1      30.766  17.287   6.624  0.00  0.00     0.054 A 
HETATM   12  C   UNK N   1      29.585  17.669   8.662  0.00  0.00     0.102 A 
HETATM   13  C   UNK N   1      30.772  17.325   8.002  0.00  0.00     0.102 A 
HETATM   14  C   UNK N   1      25.582  18.943   3.920  0.00  0.00     0.066 C 
ENDROOT
BRANCH  10  15
HETATM   15  C   UNK N   1      30.950  16.376   3.890  0.00  0.00    -0.004 A 
HETATM   16  C   UNK N   1      30.881  14.985   4.094  0.00  0.00     0.053 A 
HETATM   17  C   UNK N   1      31.998  14.158   3.836  0.00  0.00     0.102 A 
HETATM   18  C   UNK N   1      33.203  14.733   3.398  0.00  0.00     0.101 A 
HETATM   19  C   UNK N   1      33.274  16.112   3.198  0.00  0.00     0.040 A 
HETATM   20  C   UNK N   1      32.171  16.908   3.448  0.00  0.00     0.017 A 
BRANCH  17  21
HETATM   21  O   UNK N   1      31.940  12.817   4.019  0.00  0.00    -0.353 OA
HETATM   22  C   UNK N   1      31.255  11.968   3.180  0.00  0.00     0.210 C 
ENDBRANCH  17  21
BRANCH  18  23
HETATM   23  O   UNK N   1      34.287  13.949   3.181  0.00  0.00    -0.353 OA
HETATM   24  C   UNK N   1      35.308  13.812   4.097  0.00  0.00     0.210 C 
ENDBRANCH  18  23
ENDBRANCH  10  15
BRANCH   5  25
HETATM   25  C   UNK N   1      26.911  19.892   6.378  0.00  0.00     0.011 C 
HETATM   26  C   UNK N   1      27.829  20.931   5.757  0.00  0.00     0.006 C 
ENDBRANCH   5  25
BRANCH  13  27
HETATM   27  O   UNK N   1      31.926  16.973   8.631  0.00  0.00    -0.353 OA
HETATM   28  C   UNK N   1      32.941  16.224   8.088  0.00  0.00     0.210 C 
ENDBRANCH  13  27
BRANCH  12  29
HETATM   29  O   UNK N   1      29.518  17.640  10.015  0.00  0.00    -0.353 OA
HETATM   30  C   UNK N   1      29.120  16.533  10.729  0.00  0.00     0.210 C 
ENDBRANCH  12  29
TORSDOF 6
ENDMDL
MODEL 9
REMARK VINA RESULT:      -6.1      3.703      7.208
REMARK  6 active torsions:
REMARK  status: ('A' for Active; 'I' for Inactive)
REMARK    1  A    between atoms: O_1  and  C_18 
REMARK    2  A    between atoms: O_2  and  C_19 
REMARK    3  A    between atoms: O_3  and  C_24 
REMARK    4  A    between atoms: O_4  and  C_26 
REMARK    5  A    between atoms: C_9  and  C_11 
REMARK    6  A    between atoms: C_15  and  C_21 
ROOT
HETATM    1  N   UNK N   1      24.705  12.643   9.204  0.00  0.00    -0.308 N 
ATOM      2  HN  UNK N   1      25.485  12.030   9.444  1.00  0.00     0.186 HD
HETATM    3  N   UNK N   1      24.868  13.316   8.019  0.00  0.00    -0.299 N 
ATOM      4  HN  UNK N   1      25.785  13.174   7.596  1.00  0.00     0.187 HD
HETATM    5  C   UNK N   1      22.410  13.318   9.977  0.00  0.00     0.066 C 
HETATM    6  C   UNK N   1      21.950  14.166   8.828  0.00  0.00    -0.033 A 
HETATM    7  C   UNK N   1      22.663  14.446   7.642  0.00  0.00     0.003 A 
HETATM    8  C   UNK N   1      23.752  12.639  10.069  0.00  0.00     0.008 C 
HETATM    9  C   UNK N   1      20.673  14.751   8.999  0.00  0.00     0.048 A 
HETATM   10  C   UNK N   1      24.101  14.094   7.326  0.00  0.00     0.069 C 
HETATM   11  C   UNK N   1      21.984  15.177   6.649  0.00  0.00     0.054 A 
HETATM   12  C   UNK N   1      20.064  15.548   8.017  0.00  0.00     0.102 A 
HETATM   13  C   UNK N   1      20.729  15.726   6.796  0.00  0.00     0.102 A 
HETATM   14  C   UNK N   1      24.037  11.896  11.335  0.00  0.00     0.066 C 
ENDROOT
BRANCH  10  15
HETATM   15  C   UNK N   1      24.825  14.860   6.236  0.00  0.00    -0.004 A 
HETATM   16  C   UNK N   1      24.677  14.504   4.883  0.00  0.00     0.053 A 
HETATM   17  C   UNK N   1      25.479  15.099   3.883  0.00  0.00     0.102 A 
HETATM   18  C   UNK N   1      26.460  16.038   4.247  0.00  0.00     0.101 A 
HETATM   19  C   UNK N   1      26.610  16.390   5.588  0.00  0.00     0.040 A 
HETATM   20  C   UNK N   1      25.813  15.805   6.554  0.00  0.00     0.017 A 
BRANCH  17  21
HETATM   21  O   UNK N   1      25.339  14.770   2.577  0.00  0.00    -0.353 OA
HETATM   22  C   UNK N   1      25.780  13.580   2.045  0.00  0.00     0.210 C 
ENDBRANCH  17  21
BRANCH  18  23
HETATM   23  O   UNK N   1      27.256  16.587   3.297  0.00  0.00    -0.353 OA
HETATM   24  C   UNK N   1      28.591  16.859   3.504  0.00  0.00     0.210 C 
ENDBRANCH  18  23
ENDBRANCH  10  15
BRANCH   5  25
HETATM   25  C   UNK N   1      21.330  12.251  10.216  0.00  0.00     0.011 C 
HETATM   26  C   UNK N   1      20.761  12.348  11.622  0.00  0.00     0.006 C 
ENDBRANCH   5  25
BRANCH  13  27
HETATM   27  O   UNK N   1      20.240  16.453   5.755  0.00  0.00    -0.353 OA
HETATM   28  C   UNK N   1      19.362  16.000   4.801  0.00  0.00     0.210 C 
ENDBRANCH  13  27
BRANCH  12  29
HETATM   29  O   UNK N   1      18.865  16.138   8.238  0.00  0.00    -0.353 OA
HETATM   30  C   UNK N   1      18.713  17.290   8.976  0.00  0.00     0.210 C 
ENDBRANCH  12  29
TORSDOF 6
ENDMDL
