MODEL 1
REMARK VINA RESULT:      -7.6      0.000      0.000
REMARK  5 active torsions:
REMARK  status: ('A' for Active; 'I' for Inactive)
REMARK    1  A    between atoms: S_1  and  O_4 
REMARK    2  A    between atoms: S_1  and  C_22 
REMARK    3  A    between atoms: O_2  and  C_19 
REMARK    4  A    between atoms: C_9  and  C_19 
REMARK    5  A    between atoms: C_23  and  C_24 
ROOT
HETATM    1  C   UNK N   1      26.429  18.352   5.766  0.00  0.00     0.017 C 
HETATM    2  C   UNK N   1      25.920  19.091   4.488  0.00  0.00    -0.011 C 
HETATM    3  C   UNK N   1      27.877  18.808   6.158  0.00  0.00     0.046 C 
HETATM    4  C   UNK N   1      25.885  20.621   4.736  0.00  0.00     0.014 C 
HETATM    5  C   UNK N   1      26.312  16.803   5.688  0.00  0.00     0.011 C 
HETATM    6  C   UNK N   1      28.061  20.327   5.987  0.00  0.00     0.020 C 
HETATM    7  C   UNK N   1      26.745  21.097   5.917  0.00  0.00     0.002 C 
HETATM    8  C   UNK N   1      24.552  18.547   4.133  0.00  0.00    -0.042 A 
HETATM    9  C   UNK N   1      25.491  16.260   4.502  0.00  0.00     0.039 C 
HETATM   10  C   UNK N   1      26.824  18.838   3.286  0.00  0.00     0.021 C 
HETATM   11  C   UNK N   1      24.353  17.162   4.135  0.00  0.00    -0.050 A 
HETATM   12  C   UNK N   1      28.915  18.160   5.234  0.00  0.00     0.027 C 
HETATM   13  C   UNK N   1      23.496  19.386   3.787  0.00  0.00     0.034 A 
HETATM   14  C   UNK N   1      23.106  16.630   3.795  0.00  0.00     0.016 A 
HETATM   15  C   UNK N   1      22.252  18.875   3.416  0.00  0.00     0.079 A 
HETATM   16  C   UNK N   1      22.038  17.471   3.416  0.00  0.00    -0.031 A 
ENDROOT
BRANCH   3  17
HETATM   17  C   UNK N   1      28.180  18.432   7.597  0.00  0.00     0.148 C 
HETATM   18  O   UNK N   1      29.080  17.663   7.872  0.00  0.00    -0.649 OA
BRANCH  17  19
HETATM   19  O   UNK N   1      27.444  18.972   8.593  0.00  0.00    -0.776 OA
HETATM   20  H   UNK N   1      27.251  19.379   9.415  0.00  0.00     0.167 HD
ENDBRANCH  17  19
ENDBRANCH   3  17
BRANCH  15  21
HETATM   21  S   UNK N   1      21.054  20.084   2.844  0.00  0.00     0.130 S 
HETATM   22  O   UNK N   1      20.230  20.795   3.929  0.00  0.00    -0.598 OA
HETATM   23  O   UNK N   1      22.099  21.199   2.767  0.00  0.00    -0.598 OA
BRANCH  21  24
HETATM   24  O   UNK N   1      20.409  20.443   1.294  0.00  0.00    -0.292 OA
HETATM   25  H   UNK N   1      20.729  19.970   0.511  0.00  0.00     0.232 HD
ENDBRANCH  21  24
ENDBRANCH  15  21
BRANCH  16  26
HETATM   26  C   UNK N   1      20.704  16.862   3.014  0.00  0.00     0.012 C 
HETATM   27  C   UNK N   1      19.756  16.645   4.188  0.00  0.00     0.015 C 
HETATM   28  C   UNK N   1      20.885  15.524   2.324  0.00  0.00     0.015 C 
ENDBRANCH  16  26
TORSDOF 5
ENDMDL
MODEL 2
REMARK VINA RESULT:      -7.3     12.636     13.601
REMARK  5 active torsions:
REMARK  status: ('A' for Active; 'I' for Inactive)
REMARK    1  A    between atoms: S_1  and  O_4 
REMARK    2  A    between atoms: S_1  and  C_22 
REMARK    3  A    between atoms: O_2  and  C_19 
REMARK    4  A    between atoms: C_9  and  C_19 
REMARK    5  A    between atoms: C_23  and  C_24 
ROOT
HETATM    1  C   UNK N   1      27.694  26.914  -4.895  0.00  0.00     0.017 C 
HETATM    2  C   UNK N   1      26.946  26.535  -6.211  0.00  0.00    -0.011 C 
HETATM    3  C   UNK N   1      27.457  28.416  -4.508  0.00  0.00     0.046 C 
HETATM    4  C   UNK N   1      25.420  26.743  -6.035  0.00  0.00     0.014 C 
HETATM    5  C   UNK N   1      29.207  26.552  -4.902  0.00  0.00     0.011 C 
HETATM    6  C   UNK N   1      25.996  28.840  -4.748  0.00  0.00     0.020 C 
HETATM    7  C   UNK N   1      25.031  27.664  -4.867  0.00  0.00     0.002 C 
HETATM    8  C   UNK N   1      27.281  25.099  -6.555  0.00  0.00    -0.042 A 
HETATM    9  C   UNK N   1      29.668  25.660  -6.071  0.00  0.00     0.039 C 
HETATM   10  C   UNK N   1      27.397  27.391  -7.390  0.00  0.00     0.021 C 
HETATM   11  C   UNK N   1      28.615  24.681  -6.491  0.00  0.00    -0.050 A 
HETATM   12  C   UNK N   1      28.305  29.340  -5.390  0.00  0.00     0.027 C 
HETATM   13  C   UNK N   1      26.302  24.191  -6.953  0.00  0.00     0.034 A 
HETATM   14  C   UNK N   1      28.958  23.366  -6.821  0.00  0.00     0.016 A 
HETATM   15  C   UNK N   1      26.626  22.883  -7.313  0.00  0.00     0.079 A 
HETATM   16  C   UNK N   1      27.976  22.447  -7.251  0.00  0.00    -0.031 A 
ENDROOT
BRANCH   3  17
HETATM   17  C   UNK N   1      27.807  28.649  -3.050  0.00  0.00     0.148 C 
HETATM   18  O   UNK N   1      27.023  28.380  -2.162  0.00  0.00    -0.649 OA
BRANCH  17  19
HETATM   19  O   UNK N   1      29.020  29.155  -2.731  0.00  0.00    -0.776 OA
HETATM   20  H   UNK N   1      29.821  29.272  -2.259  0.00  0.00     0.167 HD
ENDBRANCH  17  19
ENDBRANCH   3  17
BRANCH  15  21
HETATM   21  S   UNK N   1      25.270  21.896  -7.954  0.00  0.00     0.130 S 
HETATM   22  O   UNK N   1      24.180  21.496  -6.947  0.00  0.00    -0.598 OA
HETATM   23  O   UNK N   1      24.503  23.125  -8.445  0.00  0.00    -0.598 OA
BRANCH  21  24
HETATM   24  O   UNK N   1      25.044  21.041  -9.426  0.00  0.00    -0.292 OA
HETATM   25  H   UNK N   1      25.702  20.392  -9.719  0.00  0.00     0.232 HD
ENDBRANCH  21  24
ENDBRANCH  15  21
BRANCH  16  26
HETATM   26  C   UNK N   1      28.383  21.035  -7.639  0.00  0.00     0.012 C 
HETATM   27  C   UNK N   1      29.626  20.538  -6.909  0.00  0.00     0.015 C 
HETATM   28  C   UNK N   1      28.654  20.920  -9.127  0.00  0.00     0.015 C 
ENDBRANCH  16  26
TORSDOF 5
ENDMDL
MODEL 3
REMARK VINA RESULT:      -7.0     12.082     13.635
REMARK  5 active torsions:
REMARK  status: ('A' for Active; 'I' for Inactive)
REMARK    1  A    between atoms: S_1  and  O_4 
REMARK    2  A    between atoms: S_1  and  C_22 
REMARK    3  A    between atoms: O_2  and  C_19 
REMARK    4  A    between atoms: C_9  and  C_19 
REMARK    5  A    between atoms: C_23  and  C_24 
ROOT
HETATM    1  C   UNK N   1      27.222  27.068  -4.656  0.00  0.00     0.017 C 
HETATM    2  C   UNK N   1      27.848  26.600  -6.007  0.00  0.00    -0.011 C 
HETATM    3  C   UNK N   1      28.020  28.268  -4.036  0.00  0.00     0.046 C 
HETATM    4  C   UNK N   1      27.831  27.761  -7.033  0.00  0.00     0.014 C 
HETATM    5  C   UNK N   1      27.011  25.921  -3.627  0.00  0.00     0.011 C 
HETATM    6  C   UNK N   1      28.450  29.282  -5.111  0.00  0.00     0.020 C 
HETATM    7  C   UNK N   1      27.664  29.158  -6.415  0.00  0.00     0.002 C 
HETATM    8  C   UNK N   1      27.070  25.399  -6.504  0.00  0.00    -0.042 A 
HETATM    9  C   UNK N   1      27.201  24.495  -4.178  0.00  0.00     0.039 C 
HETATM   10  C   UNK N   1      29.297  26.152  -5.839  0.00  0.00     0.021 C 
HETATM   11  C   UNK N   1      26.764  24.371  -5.605  0.00  0.00    -0.050 A 
HETATM   12  C   UNK N   1      29.321  27.774  -3.391  0.00  0.00     0.027 C 
HETATM   13  C   UNK N   1      26.670  25.283  -7.833  0.00  0.00     0.034 A 
HETATM   14  C   UNK N   1      26.063  23.242  -6.039  0.00  0.00     0.016 A 
HETATM   15  C   UNK N   1      25.995  24.152  -8.293  0.00  0.00     0.079 A 
HETATM   16  C   UNK N   1      25.678  23.103  -7.389  0.00  0.00    -0.031 A 
ENDROOT
BRANCH   3  17
HETATM   17  C   UNK N   1      27.179  28.980  -2.992  0.00  0.00     0.148 C 
HETATM   18  O   UNK N   1      27.604  29.184  -1.871  0.00  0.00    -0.649 OA
BRANCH  17  19
HETATM   19  O   UNK N   1      25.939  29.408  -3.317  0.00  0.00    -0.776 OA
HETATM   20  H   UNK N   1      25.272  29.952  -3.689  0.00  0.00     0.167 HD
ENDBRANCH  17  19
ENDBRANCH   3  17
BRANCH  15  21
HETATM   21  S   UNK N   1      25.697  24.091 -10.062  0.00  0.00     0.130 S 
HETATM   22  O   UNK N   1      24.510  24.916 -10.584  0.00  0.00    -0.598 OA
HETATM   23  O   UNK N   1      26.718  25.194 -10.352  0.00  0.00    -0.598 OA
BRANCH  21  24
HETATM   24  O   UNK N   1      26.292  23.073 -11.311  0.00  0.00    -0.292 OA
HETATM   25  H   UNK N   1      26.514  23.444 -12.179  0.00  0.00     0.232 HD
ENDBRANCH  21  24
ENDBRANCH  15  21
BRANCH  16  26
HETATM   26  C   UNK N   1      24.949  21.847  -7.841  0.00  0.00     0.012 C 
HETATM   27  C   UNK N   1      24.156  21.171  -6.728  0.00  0.00     0.015 C 
HETATM   28  C   UNK N   1      25.909  20.816  -8.404  0.00  0.00     0.015 C 
ENDBRANCH  16  26
TORSDOF 5
ENDMDL
MODEL 4
REMARK VINA RESULT:      -6.8      1.287      1.516
REMARK  5 active torsions:
REMARK  status: ('A' for Active; 'I' for Inactive)
REMARK    1  A    between atoms: S_1  and  O_4 
REMARK    2  A    between atoms: S_1  and  C_22 
REMARK    3  A    between atoms: O_2  and  C_19 
REMARK    4  A    between atoms: C_9  and  C_19 
REMARK    5  A    between atoms: C_23  and  C_24 
ROOT
HETATM    1  C   UNK N   1      26.012  17.786   5.311  0.00  0.00     0.017 C 
HETATM    2  C   UNK N   1      25.231  18.129   4.004  0.00  0.00    -0.011 C 
HETATM    3  C   UNK N   1      27.533  18.148   5.187  0.00  0.00     0.046 C 
HETATM    4  C   UNK N   1      25.334  19.647   3.704  0.00  0.00     0.014 C 
HETATM    5  C   UNK N   1      25.803  16.326   5.806  0.00  0.00     0.011 C 
HETATM    6  C   UNK N   1      27.741  19.489   4.461  0.00  0.00     0.020 C 
HETATM    7  C   UNK N   1      26.489  20.363   4.423  0.00  0.00     0.002 C 
HETATM    8  C   UNK N   1      23.793  17.687   4.174  0.00  0.00    -0.042 A 
HETATM    9  C   UNK N   1      24.682  15.541   5.097  0.00  0.00     0.039 C 
HETATM   10  C   UNK N   1      25.786  17.381   2.795  0.00  0.00     0.021 C 
HETATM   11  C   UNK N   1      23.533  16.418   4.703  0.00  0.00    -0.050 A 
HETATM   12  C   UNK N   1      28.268  17.102   4.340  0.00  0.00     0.027 C 
HETATM   13  C   UNK N   1      22.725  18.500   3.801  0.00  0.00     0.034 A 
HETATM   14  C   UNK N   1      22.216  15.975   4.856  0.00  0.00     0.016 A 
HETATM   15  C   UNK N   1      21.405  18.067   3.919  0.00  0.00     0.079 A 
HETATM   16  C   UNK N   1      21.129  16.781   4.455  0.00  0.00    -0.031 A 
ENDROOT
BRANCH   3  17
HETATM   17  C   UNK N   1      28.173  18.224   6.561  0.00  0.00     0.148 C 
HETATM   18  O   UNK N   1      29.192  17.612   6.817  0.00  0.00    -0.649 OA
BRANCH  17  19
HETATM   19  O   UNK N   1      27.608  18.997   7.515  0.00  0.00    -0.776 OA
HETATM   20  H   UNK N   1      27.282  19.246   8.357  0.00  0.00     0.167 HD
ENDBRANCH  17  19
ENDBRANCH   3  17
BRANCH  15  21
HETATM   21  S   UNK N   1      20.161  19.171   3.243  0.00  0.00     0.130 S 
HETATM   22  O   UNK N   1      20.225  20.636   3.705  0.00  0.00    -0.598 OA
HETATM   23  O   UNK N   1      20.972  19.434   1.972  0.00  0.00    -0.598 OA
BRANCH  21  24
HETATM   24  O   UNK N   1      18.703  18.897   2.378  0.00  0.00    -0.292 OA
HETATM   25  H   UNK N   1      18.442  19.495   1.661  0.00  0.00     0.232 HD
ENDBRANCH  21  24
ENDBRANCH  15  21
BRANCH  16  26
HETATM   26  C   UNK N   1      19.709  16.258   4.598  0.00  0.00     0.012 C 
HETATM   27  C   UNK N   1      19.295  16.007   6.044  0.00  0.00     0.015 C 
HETATM   28  C   UNK N   1      19.512  14.960   3.839  0.00  0.00     0.015 C 
ENDBRANCH  16  26
TORSDOF 5
ENDMDL
MODEL 5
REMARK VINA RESULT:      -6.8      5.079      8.397
REMARK  5 active torsions:
REMARK  status: ('A' for Active; 'I' for Inactive)
REMARK    1  A    between atoms: S_1  and  O_4 
REMARK    2  A    between atoms: S_1  and  C_22 
REMARK    3  A    between atoms: O_2  and  C_19 
REMARK    4  A    between atoms: C_9  and  C_19 
REMARK    5  A    between atoms: C_23  and  C_24 
ROOT
HETATM    1  C   UNK N   1      33.113  14.939   6.232  0.00  0.00     0.017 C 
HETATM    2  C   UNK N   1      32.760  16.160   7.139  0.00  0.00    -0.011 C 
HETATM    3  C   UNK N   1      34.493  14.308   6.627  0.00  0.00     0.046 C 
HETATM    4  C   UNK N   1      32.670  15.716   8.621  0.00  0.00     0.014 C 
HETATM    5  C   UNK N   1      33.030  15.240   4.708  0.00  0.00     0.011 C 
HETATM    6  C   UNK N   1      34.675  14.248   8.155  0.00  0.00     0.020 C 
HETATM    7  C   UNK N   1      33.366  14.380   8.931  0.00  0.00     0.002 C 
HETATM    8  C   UNK N   1      31.456  16.757   6.651  0.00  0.00    -0.042 A 
HETATM    9  C   UNK N   1      32.375  16.583   4.334  0.00  0.00     0.039 C 
HETATM   10  C   UNK N   1      33.813  17.261   7.049  0.00  0.00     0.021 C 
HETATM   11  C   UNK N   1      31.278  16.967   5.280  0.00  0.00    -0.050 A 
HETATM   12  C   UNK N   1      35.649  15.170   6.108  0.00  0.00     0.027 C 
HETATM   13  C   UNK N   1      30.440  17.120   7.533  0.00  0.00     0.034 A 
HETATM   14  C   UNK N   1      30.093  17.533   4.801  0.00  0.00     0.016 A 
HETATM   15  C   UNK N   1      29.261  17.711   7.079  0.00  0.00     0.079 A 
HETATM   16  C   UNK N   1      29.069  17.929   5.689  0.00  0.00    -0.031 A 
ENDROOT
BRANCH   3  17
HETATM   17  C   UNK N   1      34.616  12.906   6.059  0.00  0.00     0.148 C 
HETATM   18  O   UNK N   1      33.762  12.065   6.263  0.00  0.00    -0.649 OA
BRANCH  17  19
HETATM   19  O   UNK N   1      35.690  12.589   5.301  0.00  0.00    -0.776 OA
HETATM   20  H   UNK N   1      36.183  12.358   4.538  0.00  0.00     0.167 HD
ENDBRANCH  17  19
ENDBRANCH   3  17
BRANCH  15  21
HETATM   21  S   UNK N   1      28.127  18.264   8.357  0.00  0.00     0.130 S 
HETATM   22  O   UNK N   1      27.754  17.231   9.432  0.00  0.00    -0.598 OA
HETATM   23  O   UNK N   1      29.250  18.877   9.198  0.00  0.00    -0.598 OA
BRANCH  21  24
HETATM   24  O   UNK N   1      27.122  19.648   8.506  0.00  0.00    -0.292 OA
HETATM   25  H   UNK N   1      26.927  20.195   7.730  0.00  0.00     0.232 HD
ENDBRANCH  21  24
ENDBRANCH  15  21
BRANCH  16  26
HETATM   26  C   UNK N   1      27.806  18.576   5.144  0.00  0.00     0.012 C 
HETATM   27  C   UNK N   1      27.247  17.875   3.911  0.00  0.00     0.015 C 
HETATM   28  C   UNK N   1      28.037  20.028   4.773  0.00  0.00     0.015 C 
ENDBRANCH  16  26
TORSDOF 5
ENDMDL
MODEL 6
REMARK VINA RESULT:      -6.7      4.659      5.895
REMARK  5 active torsions:
REMARK  status: ('A' for Active; 'I' for Inactive)
REMARK    1  A    between atoms: S_1  and  O_4 
REMARK    2  A    between atoms: S_1  and  C_22 
REMARK    3  A    between atoms: O_2  and  C_19 
REMARK    4  A    between atoms: C_9  and  C_19 
REMARK    5  A    between atoms: C_23  and  C_24 
ROOT
HETATM    1  C   UNK N   1      25.682  16.944   5.427  0.00  0.00     0.017 C 
HETATM    2  C   UNK N   1      24.365  16.150   5.157  0.00  0.00    -0.011 C 
HETATM    3  C   UNK N   1      26.042  17.889   4.229  0.00  0.00     0.046 C 
HETATM    4  C   UNK N   1      23.183  17.132   4.956  0.00  0.00     0.014 C 
HETATM    5  C   UNK N   1      26.885  16.047   5.839  0.00  0.00     0.011 C 
HETATM    6  C   UNK N   1      24.793  18.584   3.658  0.00  0.00     0.020 C 
HETATM    7  C   UNK N   1      23.599  18.570   4.609  0.00  0.00     0.002 C 
HETATM    8  C   UNK N   1      24.125  15.211   6.320  0.00  0.00    -0.042 A 
HETATM    9  C   UNK N   1      26.539  14.582   6.164  0.00  0.00     0.039 C 
HETATM   10  C   UNK N   1      24.467  15.286   3.903  0.00  0.00     0.021 C 
HETATM   11  C   UNK N   1      25.190  14.443   6.802  0.00  0.00    -0.050 A 
HETATM   12  C   UNK N   1      26.634  17.084   3.066  0.00  0.00     0.027 C 
HETATM   13  C   UNK N   1      22.869  15.077   6.909  0.00  0.00     0.034 A 
HETATM   14  C   UNK N   1      24.995  13.554   7.864  0.00  0.00     0.016 A 
HETATM   15  C   UNK N   1      22.646  14.176   7.950  0.00  0.00     0.079 A 
HETATM   16  C   UNK N   1      23.720  13.392   8.448  0.00  0.00    -0.031 A 
ENDROOT
BRANCH   3  17
HETATM   17  C   UNK N   1      27.040  18.945   4.668  0.00  0.00     0.148 C 
HETATM   18  O   UNK N   1      26.880  19.575   5.695  0.00  0.00    -0.649 OA
BRANCH  17  19
HETATM   19  O   UNK N   1      28.134  19.182   3.910  0.00  0.00    -0.776 OA
HETATM   20  H   UNK N   1      29.011  19.432   3.697  0.00  0.00     0.167 HD
ENDBRANCH  17  19
ENDBRANCH   3  17
BRANCH  15  21
HETATM   21  S   UNK N   1      20.939  14.012   8.483  0.00  0.00     0.130 S 
HETATM   22  O   UNK N   1      19.911  14.903   7.766  0.00  0.00    -0.598 OA
HETATM   23  O   UNK N   1      20.685  12.813   7.566  0.00  0.00    -0.598 OA
BRANCH  21  24
HETATM   24  O   UNK N   1      20.208  13.257   9.841  0.00  0.00    -0.292 OA
HETATM   25  H   UNK N   1      19.729  13.789  10.495  0.00  0.00     0.232 HD
ENDBRANCH  21  24
ENDBRANCH  15  21
BRANCH  16  26
HETATM   26  C   UNK N   1      23.529  12.391   9.575  0.00  0.00     0.012 C 
HETATM   27  C   UNK N   1      24.699  12.342  10.551  0.00  0.00     0.015 C 
HETATM   28  C   UNK N   1      23.322  10.985   9.046  0.00  0.00     0.015 C 
ENDBRANCH  16  26
TORSDOF 5
ENDMDL
MODEL 7
REMARK VINA RESULT:      -6.5     10.131     14.386
REMARK  5 active torsions:
REMARK  status: ('A' for Active; 'I' for Inactive)
REMARK    1  A    between atoms: S_1  and  O_4 
REMARK    2  A    between atoms: S_1  and  C_22 
REMARK    3  A    between atoms: O_2  and  C_19 
REMARK    4  A    between atoms: C_9  and  C_19 
REMARK    5  A    between atoms: C_23  and  C_24 
ROOT
HETATM    1  C   UNK N   1      34.064  15.519   9.544  0.00  0.00     0.017 C 
HETATM    2  C   UNK N   1      34.596  14.059   9.699  0.00  0.00    -0.011 C 
HETATM    3  C   UNK N   1      33.746  15.861   8.047  0.00  0.00     0.046 C 
HETATM    4  C   UNK N   1      33.533  13.049   9.198  0.00  0.00     0.014 C 
HETATM    5  C   UNK N   1      34.975  16.595  10.202  0.00  0.00     0.011 C 
HETATM    6  C   UNK N   1      33.066  14.683   7.326  0.00  0.00     0.020 C 
HETATM    7  C   UNK N   1      32.460  13.654   8.278  0.00  0.00     0.002 C 
HETATM    8  C   UNK N   1      34.948  13.830  11.154  0.00  0.00    -0.042 A 
HETATM    9  C   UNK N   1      36.095  16.050  11.108  0.00  0.00     0.039 C 
HETATM   10  C   UNK N   1      35.870  13.828   8.892  0.00  0.00     0.021 C 
HETATM   11  C   UNK N   1      35.687  14.804  11.834  0.00  0.00    -0.050 A 
HETATM   12  C   UNK N   1      35.039  16.131   7.268  0.00  0.00     0.027 C 
HETATM   13  C   UNK N   1      34.574  12.668  11.825  0.00  0.00     0.034 A 
HETATM   14  C   UNK N   1      36.042  14.612  13.172  0.00  0.00     0.016 A 
HETATM   15  C   UNK N   1      34.942  12.443  13.152  0.00  0.00     0.079 A 
HETATM   16  C   UNK N   1      35.691  13.426  13.852  0.00  0.00    -0.031 A 
ENDROOT
BRANCH   3  17
HETATM   17  C   UNK N   1      32.844  17.080   7.963  0.00  0.00     0.148 C 
HETATM   18  O   UNK N   1      32.993  17.915   7.092  0.00  0.00    -0.649 OA
BRANCH  17  19
HETATM   19  O   UNK N   1      31.849  17.233   8.865  0.00  0.00    -0.776 OA
HETATM   20  H   UNK N   1      31.360  17.607   9.571  0.00  0.00     0.167 HD
ENDBRANCH  17  19
ENDBRANCH   3  17
BRANCH  15  21
HETATM   21  S   UNK N   1      34.519  10.829  13.813  0.00  0.00     0.130 S 
HETATM   22  O   UNK N   1      33.185  10.729  14.570  0.00  0.00    -0.598 OA
HETATM   23  O   UNK N   1      33.915  10.357  12.488  0.00  0.00    -0.598 OA
BRANCH  21  24
HETATM   24  O   UNK N   1      35.421   9.385  14.033  0.00  0.00    -0.292 OA
HETATM   25  H   UNK N   1      35.742   9.140  14.914  0.00  0.00     0.232 HD
ENDBRANCH  21  24
ENDBRANCH  15  21
BRANCH  16  26
HETATM   26  C   UNK N   1      36.124  13.228  15.296  0.00  0.00     0.012 C 
HETATM   27  C   UNK N   1      34.962  13.217  16.283  0.00  0.00     0.015 C 
HETATM   28  C   UNK N   1      37.089  14.308  15.744  0.00  0.00     0.015 C 
ENDBRANCH  16  26
TORSDOF 5
ENDMDL
MODEL 8
REMARK VINA RESULT:      -6.5      9.237     12.895
REMARK  5 active torsions:
REMARK  status: ('A' for Active; 'I' for Inactive)
REMARK    1  A    between atoms: S_1  and  O_4 
REMARK    2  A    between atoms: S_1  and  C_22 
REMARK    3  A    between atoms: O_2  and  C_19 
REMARK    4  A    between atoms: C_9  and  C_19 
REMARK    5  A    between atoms: C_23  and  C_24 
ROOT
HETATM    1  C   UNK N   1      35.111  12.926  11.936  0.00  0.00     0.017 C 
HETATM    2  C   UNK N   1      35.962  13.937  11.104  0.00  0.00    -0.011 C 
HETATM    3  C   UNK N   1      35.894  12.412  13.194  0.00  0.00     0.046 C 
HETATM    4  C   UNK N   1      36.324  15.169  11.973  0.00  0.00     0.014 C 
HETATM    5  C   UNK N   1      34.530  11.751  11.098  0.00  0.00     0.011 C 
HETATM    6  C   UNK N   1      36.680  13.546  13.878  0.00  0.00     0.020 C 
HETATM    7  C   UNK N   1      36.199  14.942  13.488  0.00  0.00     0.002 C 
HETATM    8  C   UNK N   1      35.171  14.329   9.874  0.00  0.00    -0.042 A 
HETATM    9  C   UNK N   1      34.658  11.902   9.570  0.00  0.00     0.039 C 
HETATM   10  C   UNK N   1      37.267  13.316  10.615  0.00  0.00     0.021 C 
HETATM   11  C   UNK N   1      34.543  13.328   9.125  0.00  0.00    -0.050 A 
HETATM   12  C   UNK N   1      36.942  11.369  12.789  0.00  0.00     0.027 C 
HETATM   13  C   UNK N   1      35.070  15.655   9.458  0.00  0.00     0.034 A 
HETATM   14  C   UNK N   1      33.821  13.657   7.974  0.00  0.00     0.016 A 
HETATM   15  C   UNK N   1      34.379  16.002   8.297  0.00  0.00     0.079 A 
HETATM   16  C   UNK N   1      33.736  14.994   7.530  0.00  0.00    -0.031 A 
ENDROOT
BRANCH   3  17
HETATM   17  C   UNK N   1      34.936  11.799  14.200  0.00  0.00     0.148 C 
HETATM   18  O   UNK N   1      34.927  10.602  14.414  0.00  0.00    -0.649 OA
BRANCH  17  19
HETATM   19  O   UNK N   1      34.085  12.599  14.880  0.00  0.00    -0.776 OA
HETATM   20  H   UNK N   1      33.774  13.170  15.555  0.00  0.00     0.167 HD
ENDBRANCH  17  19
ENDBRANCH   3  17
BRANCH  15  21
HETATM   21  S   UNK N   1      34.483  17.729   7.818  0.00  0.00     0.130 S 
HETATM   22  O   UNK N   1      34.078  18.063   6.374  0.00  0.00    -0.598 OA
HETATM   23  O   UNK N   1      33.098  18.052   8.385  0.00  0.00    -0.598 OA
BRANCH  21  24
HETATM   24  O   UNK N   1      35.213  19.101   8.550  0.00  0.00    -0.292 OA
HETATM   25  H   UNK N   1      36.149  19.296   8.392  0.00  0.00     0.232 HD
ENDBRANCH  21  24
ENDBRANCH  15  21
BRANCH  16  26
HETATM   26  C   UNK N   1      32.976  15.319   6.254  0.00  0.00     0.012 C 
HETATM   27  C   UNK N   1      31.539  14.810   6.256  0.00  0.00     0.015 C 
HETATM   28  C   UNK N   1      33.660  14.737   5.032  0.00  0.00     0.015 C 
ENDBRANCH  16  26
TORSDOF 5
ENDMDL
MODEL 9
REMARK VINA RESULT:      -6.4      4.136      6.922
REMARK  5 active torsions:
REMARK  status: ('A' for Active; 'I' for Inactive)
REMARK    1  A    between atoms: S_1  and  O_4 
REMARK    2  A    between atoms: S_1  and  C_22 
REMARK    3  A    between atoms: O_2  and  C_19 
REMARK    4  A    between atoms: C_9  and  C_19 
REMARK    5  A    between atoms: C_23  and  C_24 
ROOT
HETATM    1  C   UNK N   1      22.728  14.810   7.264  0.00  0.00     0.017 C 
HETATM    2  C   UNK N   1      23.840  14.522   6.206  0.00  0.00    -0.011 C 
HETATM    3  C   UNK N   1      22.062  13.486   7.777  0.00  0.00     0.046 C 
HETATM    4  C   UNK N   1      24.954  13.642   6.831  0.00  0.00     0.014 C 
HETATM    5  C   UNK N   1      21.667  15.847   6.796  0.00  0.00     0.011 C 
HETATM    6  C   UNK N   1      23.104  12.373   7.996  0.00  0.00     0.020 C 
HETATM    7  C   UNK N   1      24.536  12.892   8.105  0.00  0.00     0.002 C 
HETATM    8  C   UNK N   1      24.381  15.845   5.708  0.00  0.00    -0.042 A 
HETATM    9  C   UNK N   1      22.010  16.608   5.501  0.00  0.00     0.039 C 
HETATM   10  C   UNK N   1      23.292  13.780   4.991  0.00  0.00     0.021 C 
HETATM   11  C   UNK N   1      23.481  16.857   5.359  0.00  0.00    -0.050 A 
HETATM   12  C   UNK N   1      21.084  12.934   6.733  0.00  0.00     0.027 C 
HETATM   13  C   UNK N   1      25.749  16.073   5.570  0.00  0.00     0.034 A 
HETATM   14  C   UNK N   1      23.950  18.083   4.879  0.00  0.00     0.016 A 
HETATM   15  C   UNK N   1      26.237  17.279   5.066  0.00  0.00     0.079 A 
HETATM   16  C   UNK N   1      25.332  18.314   4.709  0.00  0.00    -0.031 A 
ENDROOT
BRANCH   3  17
HETATM   17  C   UNK N   1      21.323  13.735   9.079  0.00  0.00     0.148 C 
HETATM   18  O   UNK N   1      21.914  13.792  10.139  0.00  0.00    -0.649 OA
BRANCH  17  19
HETATM   19  O   UNK N   1      19.982  13.908   9.058  0.00  0.00    -0.776 OA
HETATM   20  H   UNK N   1      19.158  14.329   8.910  0.00  0.00     0.167 HD
ENDBRANCH  17  19
ENDBRANCH   3  17
BRANCH  15  21
HETATM   21  S   UNK N   1      28.012  17.348   4.801  0.00  0.00     0.130 S 
HETATM   22  O   UNK N   1      28.878  17.617   6.041  0.00  0.00    -0.598 OA
HETATM   23  O   UNK N   1      28.165  15.828   4.902  0.00  0.00    -0.598 OA
BRANCH  21  24
HETATM   24  O   UNK N   1      28.976  17.453   3.384  0.00  0.00    -0.292 OA
HETATM   25  H   UNK N   1      29.735  18.055   3.355  0.00  0.00     0.232 HD
ENDBRANCH  21  24
ENDBRANCH  15  21
BRANCH  16  26
HETATM   26  C   UNK N   1      25.812  19.643   4.149  0.00  0.00     0.012 C 
HETATM   27  C   UNK N   1      26.217  20.645   5.225  0.00  0.00     0.015 C 
HETATM   28  C   UNK N   1      24.752  20.304   3.290  0.00  0.00     0.015 C 
ENDBRANCH  16  26
TORSDOF 5
ENDMDL
