REMARK  4 active torsions:
REMARK  status: ('A' for Active; 'I' for Inactive)
REMARK    1  A    between atoms: C_1  and  O_2 
REMARK    2  A    between atoms: O_2  and  C_10 
REMARK       I    between atoms: C_13  and  N_14 
REMARK    3  A    between atoms: N_14  and  C_20 
REMARK    4  A    between atoms: C_17  and  N_18 
ROOT
HETATM    1  C   UNK N   1      -2.381   0.646   0.161  0.00  0.00     0.049 A 
HETATM    2  C   UNK N   1      -3.466  -0.203   0.401  0.00  0.00     0.031 A 
HETATM    3  C   UNK N   1      -4.762   0.304   0.290  0.00  0.00     0.025 A 
HETATM    4  C   UNK N   1      -4.941   1.650  -0.065  0.00  0.00     0.044 A 
HETATM    5  C   UNK N   1      -3.859   2.443  -0.407  0.00  0.00     0.025 A 
HETATM    6  C   UNK N   1      -2.588   1.941  -0.299  0.00  0.00     0.031 A 
HETATM    7  C   UNK N   1      -6.203   2.294   0.034  0.00  0.00     0.099 C 
HETATM    8  N   UNK N   1      -7.199   2.873   0.097  0.00  0.00    -0.191 NA
ENDROOT
BRANCH   1   9
HETATM    9  N   UNK N   1      -1.096   0.236   0.525  0.00  0.00    -0.192 N 
HETATM   10  C   UNK N   1       0.054   1.063   0.498  0.00  0.00     0.686 C 
HETATM   11  N   UNK N   1       1.216   0.440   0.506  0.00  0.00    -0.168 N 
HETATM   12  N   UNK N   1       0.014   2.399   0.239  0.00  0.00    -0.175 N 
HETATM   13  C   UNK N   1       2.367   1.004   0.136  0.00  0.00     0.184 C 
ATOM     14  HN  UNK N   1       1.237  -0.533   0.812  1.00  0.00     0.186 HD
HETATM   15  C   UNK N   1       2.399   2.401  -0.055  0.00  0.00     0.106 C 
HETATM   16  C   UNK N   1       1.166   3.093   0.019  0.00  0.00     0.136 C 
HETATM   17 Br   UNK N   1       4.023   3.335  -0.446  0.00  0.00    -0.042 Br
ATOM     18  HN  UNK N   1      -0.883   2.883   0.210  1.00  0.00     0.186 HD
HETATM   19  H   UNK N   1      -0.981  -0.695   0.823  0.00  0.00     0.184 HD
BRANCH  13  20
HETATM   20  O   UNK N   1       3.409   0.165  -0.119  0.00  0.00    -0.291 OA
BRANCH  20  21
HETATM   21  C   UNK N   1       3.226  -1.213  -0.189  0.00  0.00     0.089 A 
HETATM   22  C   UNK N   1       4.273  -2.055   0.234  0.00  0.00    -0.026 A 
HETATM   23  C   UNK N   1       5.602  -1.479   0.580  0.00  0.00     0.051 C 
HETATM   24  C   UNK N   1       4.078  -3.448   0.331  0.00  0.00     0.032 A 
HETATM   25  C   UNK N   1       2.841  -4.012  -0.005  0.00  0.00     0.045 A 
HETATM   26  C   UNK N   1       1.850  -3.221  -0.527  0.00  0.00     0.032 A 
HETATM   27  C   UNK N   1       2.548  -5.408   0.134  0.00  0.00     0.099 C 
HETATM   28  C   UNK N   1       2.011  -1.859  -0.663  0.00  0.00    -0.026 A 
HETATM   29  C   UNK N   1       0.884  -1.202  -1.397  0.00  0.00     0.051 C 
HETATM   30  N   UNK N   1       2.248  -6.522   0.221  0.00  0.00    -0.191 NA
ENDBRANCH  20  21
ENDBRANCH  13  20
BRANCH  16  31
HETATM   31  N   UNK N   1       1.101   4.483  -0.220  0.00  0.00    -0.384 N 
HETATM   32  H   UNK N   1       1.918   5.007  -0.387  0.00  0.00     0.157 HD
HETATM   33  H   UNK N   1       0.226   4.934  -0.220  0.00  0.00     0.157 HD
ENDBRANCH  16  31
ENDBRANCH   1   9
TORSDOF 4
