MODEL 1
REMARK VINA RESULT:      -8.7      0.000      0.000
REMARK  4 active torsions:
REMARK  status: ('A' for Active; 'I' for Inactive)
REMARK    1  A    between atoms: C_1  and  O_2 
REMARK    2  A    between atoms: O_2  and  C_10 
REMARK       I    between atoms: C_13  and  N_14 
REMARK    3  A    between atoms: N_14  and  C_20 
REMARK    4  A    between atoms: C_17  and  N_18 
ROOT
HETATM    1  C   UNK N   1      25.812  18.985   3.918  0.00  0.00     0.049 A 
HETATM    2  C   UNK N   1      24.724  18.172   4.252  0.00  0.00     0.031 A 
HETATM    3  C   UNK N   1      23.437  18.587   3.907  0.00  0.00     0.025 A 
HETATM    4  C   UNK N   1      23.269  19.805   3.231  0.00  0.00     0.044 A 
HETATM    5  C   UNK N   1      24.366  20.540   2.811  0.00  0.00     0.025 A 
HETATM    6  C   UNK N   1      25.629  20.128   3.150  0.00  0.00     0.031 A 
HETATM    7  C   UNK N   1      21.993  20.403   3.060  0.00  0.00     0.099 C 
HETATM    8  N   UNK N   1      20.985  20.941   2.894  0.00  0.00    -0.191 NA
ENDROOT
BRANCH   1   9
HETATM    9  N   UNK N   1      27.063  18.723   4.484  0.00  0.00    -0.192 N 
HETATM   10  C   UNK N   1      27.894  17.630   4.136  0.00  0.00     0.686 C 
HETATM   11  N   UNK N   1      28.838  17.320   5.003  0.00  0.00    -0.168 N 
HETATM   12  N   UNK N   1      27.626  16.778   3.108  0.00  0.00    -0.175 N 
HETATM   13  C   UNK N   1      29.470  16.145   5.030  0.00  0.00     0.184 C 
ATOM     14  HN  UNK N   1      29.100  18.020   5.697  1.00  0.00     0.186 HD
HETATM   15  C   UNK N   1      29.297  15.265   3.941  0.00  0.00     0.106 C 
HETATM   16  C   UNK N   1      28.345  15.630   2.958  0.00  0.00     0.136 C 
HETATM   17 Br   UNK N   1      30.263  13.619   3.804  0.00  0.00    -0.042 Br
ATOM     18  HN  UNK N   1      26.883  17.001   2.446  1.00  0.00     0.186 HD
HETATM   19  H   UNK N   1      27.391  19.343   5.174  0.00  0.00     0.184 HD
BRANCH  13  20
HETATM   20  O   UNK N   1      30.167  15.848   6.161  0.00  0.00    -0.291 OA
BRANCH  20  21
HETATM   21  C   UNK N   1      31.203  16.664   6.606  0.00  0.00     0.089 A 
HETATM   22  C   UNK N   1      31.063  17.316   7.847  0.00  0.00    -0.026 A 
HETATM   23  C   UNK N   1      29.765  17.267   8.574  0.00  0.00     0.051 C 
HETATM   24  C   UNK N   1      32.145  18.023   8.411  0.00  0.00     0.032 A 
HETATM   25  C   UNK N   1      33.369  18.095   7.736  0.00  0.00     0.045 A 
HETATM   26  C   UNK N   1      33.486  17.564   6.477  0.00  0.00     0.032 A 
HETATM   27  C   UNK N   1      34.531  18.736   8.278  0.00  0.00     0.099 C 
HETATM   28  C   UNK N   1      32.444  16.889   5.879  0.00  0.00    -0.026 A 
HETATM   29  C   UNK N   1      32.715  16.530   4.452  0.00  0.00     0.051 C 
HETATM   30  N   UNK N   1      35.503  19.236   8.657  0.00  0.00    -0.191 NA
ENDBRANCH  20  21
ENDBRANCH  13  20
BRANCH  16  31
HETATM   31  N   UNK N   1      28.067  14.777   1.868  0.00  0.00    -0.384 N 
HETATM   32  H   UNK N   1      28.328  13.828   1.889  0.00  0.00     0.157 HD
HETATM   33  H   UNK N   1      27.606  15.137   1.077  0.00  0.00     0.157 HD
ENDBRANCH  16  31
ENDBRANCH   1   9
TORSDOF 4
ENDMDL
MODEL 2
REMARK VINA RESULT:      -8.1      6.619      8.427
REMARK  4 active torsions:
REMARK  status: ('A' for Active; 'I' for Inactive)
REMARK    1  A    between atoms: C_1  and  O_2 
REMARK    2  A    between atoms: O_2  and  C_10 
REMARK       I    between atoms: C_13  and  N_14 
REMARK    3  A    between atoms: N_14  and  C_20 
REMARK    4  A    between atoms: C_17  and  N_18 
ROOT
HETATM    1  C   UNK N   1      20.570  17.767   4.407  0.00  0.00     0.049 A 
HETATM    2  C   UNK N   1      21.077  19.057   4.589  0.00  0.00     0.031 A 
HETATM    3  C   UNK N   1      21.142  19.922   3.495  0.00  0.00     0.025 A 
HETATM    4  C   UNK N   1      20.690  19.474   2.243  0.00  0.00     0.044 A 
HETATM    5  C   UNK N   1      20.089  18.235   2.108  0.00  0.00     0.025 A 
HETATM    6  C   UNK N   1      20.025  17.390   3.186  0.00  0.00     0.031 A 
HETATM    7  C   UNK N   1      20.941  20.200   1.048  0.00  0.00     0.099 C 
HETATM    8  N   UNK N   1      21.117  20.741   0.044  0.00  0.00    -0.191 NA
ENDROOT
BRANCH   1   9
HETATM    9  N   UNK N   1      20.745  16.813   5.413  0.00  0.00    -0.192 N 
HETATM   10  C   UNK N   1      21.900  16.007   5.569  0.00  0.00     0.686 C 
HETATM   11  N   UNK N   1      21.756  14.927   6.312  0.00  0.00    -0.168 N 
HETATM   12  N   UNK N   1      23.033  16.165   4.831  0.00  0.00    -0.175 N 
HETATM   13  C   UNK N   1      22.594  13.889   6.288  0.00  0.00     0.184 C 
ATOM     14  HN  UNK N   1      20.955  14.881   6.942  1.00  0.00     0.186 HD
HETATM   15  C   UNK N   1      23.824  14.034   5.613  0.00  0.00     0.106 C 
HETATM   16  C   UNK N   1      24.023  15.230   4.881  0.00  0.00     0.136 C 
HETATM   17 Br   UNK N   1      25.161  12.665   5.634  0.00  0.00    -0.042 Br
ATOM     18  HN  UNK N   1      23.141  16.987   4.238  1.00  0.00     0.186 HD
HETATM   19  H   UNK N   1      20.014  16.693   6.061  0.00  0.00     0.184 HD
BRANCH  13  20
HETATM   20  O   UNK N   1      22.151  12.728   6.845  0.00  0.00    -0.291 OA
BRANCH  20  21
HETATM   21  C   UNK N   1      22.300  12.478   8.206  0.00  0.00     0.089 A 
HETATM   22  C   UNK N   1      23.118  11.404   8.609  0.00  0.00    -0.026 A 
HETATM   23  C   UNK N   1      23.663  10.459   7.595  0.00  0.00     0.051 C 
HETATM   24  C   UNK N   1      23.427  11.209   9.970  0.00  0.00     0.032 A 
HETATM   25  C   UNK N   1      22.911  12.076  10.942  0.00  0.00     0.045 A 
HETATM   26  C   UNK N   1      22.023  13.056  10.579  0.00  0.00     0.032 A 
HETATM   27  C   UNK N   1      23.236  11.982  12.334  0.00  0.00     0.099 C 
HETATM   28  C   UNK N   1      21.675  13.261   9.261  0.00  0.00    -0.026 A 
HETATM   29  C   UNK N   1      20.577  14.264   9.090  0.00  0.00     0.051 C 
HETATM   30  N   UNK N   1      23.457  11.960  13.470  0.00  0.00    -0.191 NA
ENDBRANCH  20  21
ENDBRANCH  13  20
BRANCH  16  31
HETATM   31  N   UNK N   1      25.201  15.429   4.128  0.00  0.00    -0.384 N 
HETATM   32  H   UNK N   1      25.184  15.943   3.288  0.00  0.00     0.157 HD
HETATM   33  H   UNK N   1      26.050  15.049   4.448  0.00  0.00     0.157 HD
ENDBRANCH  16  31
ENDBRANCH   1   9
TORSDOF 4
ENDMDL
MODEL 3
REMARK VINA RESULT:      -7.8      7.059     10.005
REMARK  4 active torsions:
REMARK  status: ('A' for Active; 'I' for Inactive)
REMARK    1  A    between atoms: C_1  and  O_2 
REMARK    2  A    between atoms: O_2  and  C_10 
REMARK       I    between atoms: C_13  and  N_14 
REMARK    3  A    between atoms: N_14  and  C_20 
REMARK    4  A    between atoms: C_17  and  N_18 
ROOT
HETATM    1  C   UNK N   1      32.230  15.480   8.933  0.00  0.00     0.049 A 
HETATM    2  C   UNK N   1      31.911  16.835   8.801  0.00  0.00     0.031 A 
HETATM    3  C   UNK N   1      31.666  17.355   7.529  0.00  0.00     0.025 A 
HETATM    4  C   UNK N   1      31.741  16.502   6.417  0.00  0.00     0.044 A 
HETATM    5  C   UNK N   1      31.947  15.142   6.578  0.00  0.00     0.025 A 
HETATM    6  C   UNK N   1      32.185  14.636   7.830  0.00  0.00     0.031 A 
HETATM    7  C   UNK N   1      31.741  16.997   5.086  0.00  0.00     0.099 C 
HETATM    8  N   UNK N   1      31.750  17.338   3.983  0.00  0.00    -0.191 NA
ENDROOT
BRANCH   1   9
HETATM    9  N   UNK N   1      32.735  15.010  10.147  0.00  0.00    -0.192 N 
HETATM   10  C   UNK N   1      34.074  14.599  10.360  0.00  0.00     0.686 C 
HETATM   11  N   UNK N   1      34.288  13.847  11.422  0.00  0.00    -0.168 N 
HETATM   12  N   UNK N   1      35.062  14.742   9.434  0.00  0.00    -0.175 N 
HETATM   13  C   UNK N   1      35.372  13.090  11.594  0.00  0.00     0.184 C 
ATOM     14  HN  UNK N   1      33.580  13.843  12.157  1.00  0.00     0.186 HD
HETATM   15  C   UNK N   1      36.461  13.267  10.715  0.00  0.00     0.106 C 
HETATM   16  C   UNK N   1      36.270  14.139   9.616  0.00  0.00     0.136 C 
HETATM   17 Br   UNK N   1      38.118  12.340  10.951  0.00  0.00    -0.042 Br
ATOM     18  HN  UNK N   1      34.896  15.305   8.600  1.00  0.00     0.186 HD
HETATM   19  H   UNK N   1      32.116  14.960  10.911  0.00  0.00     0.184 HD
BRANCH  13  20
HETATM   20  O   UNK N   1      35.307  12.131  12.559  0.00  0.00    -0.291 OA
BRANCH  20  21
HETATM   21  C   UNK N   1      35.183  12.468  13.904  0.00  0.00     0.089 A 
HETATM   22  C   UNK N   1      34.372  11.665  14.729  0.00  0.00    -0.026 A 
HETATM   23  C   UNK N   1      33.532  10.589  14.132  0.00  0.00     0.051 C 
HETATM   24  C   UNK N   1      34.342  11.871  16.124  0.00  0.00     0.032 A 
HETATM   25  C   UNK N   1      35.111  12.887  16.703  0.00  0.00     0.045 A 
HETATM   26  C   UNK N   1      35.816  13.750  15.903  0.00  0.00     0.032 A 
HETATM   27  C   UNK N   1      35.184  13.111  18.117  0.00  0.00     0.099 C 
HETATM   28  C   UNK N   1      35.849  13.598  14.534  0.00  0.00    -0.026 A 
HETATM   29  C   UNK N   1      36.537  14.728  13.832  0.00  0.00     0.051 C 
HETATM   30  N   UNK N   1      35.286  13.345  19.245  0.00  0.00    -0.191 NA
ENDBRANCH  20  21
ENDBRANCH  13  20
BRANCH  16  31
HETATM   31  N   UNK N   1      37.288  14.326   8.655  0.00  0.00    -0.384 N 
HETATM   32  H   UNK N   1      37.927  15.071   8.732  0.00  0.00     0.157 HD
HETATM   33  H   UNK N   1      37.359  13.701   7.898  0.00  0.00     0.157 HD
ENDBRANCH  16  31
ENDBRANCH   1   9
TORSDOF 4
ENDMDL
MODEL 4
REMARK VINA RESULT:      -7.7      7.285     10.728
REMARK  4 active torsions:
REMARK  status: ('A' for Active; 'I' for Inactive)
REMARK    1  A    between atoms: C_1  and  O_2 
REMARK    2  A    between atoms: O_2  and  C_10 
REMARK       I    between atoms: C_13  and  N_14 
REMARK    3  A    between atoms: N_14  and  C_20 
REMARK    4  A    between atoms: C_17  and  N_18 
ROOT
HETATM    1  C   UNK N   1      22.343  13.040   8.791  0.00  0.00     0.049 A 
HETATM    2  C   UNK N   1      23.685  12.761   9.068  0.00  0.00     0.031 A 
HETATM    3  C   UNK N   1      24.043  12.353  10.354  0.00  0.00     0.025 A 
HETATM    4  C   UNK N   1      23.045  12.229  11.333  0.00  0.00     0.044 A 
HETATM    5  C   UNK N   1      21.710  12.402  11.011  0.00  0.00     0.025 A 
HETATM    6  C   UNK N   1      21.363  12.799   9.746  0.00  0.00     0.031 A 
HETATM    7  C   UNK N   1      23.356  12.054  12.708  0.00  0.00     0.099 C 
HETATM    8  N   UNK N   1      23.545  11.916  13.838  0.00  0.00    -0.191 NA
ENDROOT
BRANCH   1   9
HETATM    9  N   UNK N   1      22.010  13.698   7.605  0.00  0.00    -0.192 N 
HETATM   10  C   UNK N   1      21.595  13.055   6.413  0.00  0.00     0.686 C 
HETATM   11  N   UNK N   1      21.683  13.769   5.308  0.00  0.00    -0.168 N 
HETATM   12  N   UNK N   1      21.345  11.719   6.327  0.00  0.00    -0.175 N 
HETATM   13  C   UNK N   1      21.682  13.247   4.080  0.00  0.00     0.184 C 
ATOM     14  HN  UNK N   1      21.759  14.782   5.396  1.00  0.00     0.186 HD
HETATM   15  C   UNK N   1      21.338  11.887   3.930  0.00  0.00     0.106 C 
HETATM   16  C   UNK N   1      21.157  11.130   5.112  0.00  0.00     0.136 C 
HETATM   17 Br   UNK N   1      21.164  11.069   2.208  0.00  0.00    -0.042 Br
ATOM     18  HN  UNK N   1      21.297  11.157   7.176  1.00  0.00     0.186 HD
HETATM   19  H   UNK N   1      22.066  14.681   7.597  0.00  0.00     0.184 HD
BRANCH  13  20
HETATM   20  O   UNK N   1      22.107  14.053   3.068  0.00  0.00    -0.291 OA
BRANCH  20  21
HETATM   21  C   UNK N   1      21.826  15.417   3.066  0.00  0.00     0.089 A 
HETATM   22  C   UNK N   1      20.619  15.856   2.488  0.00  0.00    -0.026 A 
HETATM   23  C   UNK N   1      19.754  14.898   1.745  0.00  0.00     0.051 C 
HETATM   24  C   UNK N   1      20.218  17.203   2.602  0.00  0.00     0.032 A 
HETATM   25  C   UNK N   1      21.025  18.124   3.282  0.00  0.00     0.045 A 
HETATM   26  C   UNK N   1      22.255  17.738   3.750  0.00  0.00     0.032 A 
HETATM   27  C   UNK N   1      20.651  19.490   3.497  0.00  0.00     0.099 C 
HETATM   28  C   UNK N   1      22.694  16.437   3.634  0.00  0.00    -0.026 A 
HETATM   29  C   UNK N   1      24.118  16.256   4.058  0.00  0.00     0.051 C 
HETATM   30  N   UNK N   1      20.409  20.603   3.704  0.00  0.00    -0.191 NA
ENDBRANCH  20  21
ENDBRANCH  13  20
BRANCH  16  31
HETATM   31  N   UNK N   1      20.871   9.749   5.050  0.00  0.00    -0.384 N 
HETATM   32  H   UNK N   1      20.070   9.418   4.582  0.00  0.00     0.157 HD
HETATM   33  H   UNK N   1      21.481   9.108   5.481  0.00  0.00     0.157 HD
ENDBRANCH  16  31
ENDBRANCH   1   9
TORSDOF 4
ENDMDL
MODEL 5
REMARK VINA RESULT:      -7.7      2.481      3.144
REMARK  4 active torsions:
REMARK  status: ('A' for Active; 'I' for Inactive)
REMARK    1  A    between atoms: C_1  and  O_2 
REMARK    2  A    between atoms: O_2  and  C_10 
REMARK       I    between atoms: C_13  and  N_14 
REMARK    3  A    between atoms: N_14  and  C_20 
REMARK    4  A    between atoms: C_17  and  N_18 
ROOT
HETATM    1  C   UNK N   1      27.527  18.630   4.737  0.00  0.00     0.049 A 
HETATM    2  C   UNK N   1      26.537  17.820   4.172  0.00  0.00     0.031 A 
HETATM    3  C   UNK N   1      25.458  18.420   3.521  0.00  0.00     0.025 A 
HETATM    4  C   UNK N   1      25.399  19.821   3.445  0.00  0.00     0.044 A 
HETATM    5  C   UNK N   1      26.443  20.600   3.912  0.00  0.00     0.025 A 
HETATM    6  C   UNK N   1      27.502  20.007   4.549  0.00  0.00     0.031 A 
HETATM    7  C   UNK N   1      24.230  20.503   3.016  0.00  0.00     0.099 C 
HETATM    8  N   UNK N   1      23.311  21.115   2.680  0.00  0.00    -0.191 NA
ENDROOT
BRANCH   1   9
HETATM    9  N   UNK N   1      28.458  18.066   5.612  0.00  0.00    -0.192 N 
HETATM   10  C   UNK N   1      29.721  17.553   5.228  0.00  0.00     0.686 C 
HETATM   11  N   UNK N   1      30.301  16.737   6.086  0.00  0.00    -0.168 N 
HETATM   12  N   UNK N   1      30.232  17.674   3.972  0.00  0.00    -0.175 N 
HETATM   13  C   UNK N   1      31.288  15.899   5.767  0.00  0.00     0.184 C 
ATOM     14  HN  UNK N   1      29.974  16.745   7.052  1.00  0.00     0.186 HD
HETATM   15  C   UNK N   1      31.912  16.044   4.511  0.00  0.00     0.106 C 
HETATM   16  C   UNK N   1      31.348  16.981   3.612  0.00  0.00     0.136 C 
HETATM   17 Br   UNK N   1      33.430  14.993   4.004  0.00  0.00    -0.042 Br
ATOM     18  HN  UNK N   1      29.776  18.287   3.296  1.00  0.00     0.186 HD
HETATM   19  H   UNK N   1      28.219  18.022   6.566  0.00  0.00     0.184 HD
BRANCH  13  20
HETATM   20  O   UNK N   1      31.558  14.900   6.653  0.00  0.00    -0.291 OA
BRANCH  20  21
HETATM   21  C   UNK N   1      32.558  15.036   7.612  0.00  0.00     0.089 A 
HETATM   22  C   UNK N   1      33.505  14.002   7.749  0.00  0.00    -0.026 A 
HETATM   23  C   UNK N   1      33.330  12.724   7.006  0.00  0.00     0.051 C 
HETATM   24  C   UNK N   1      34.624  14.163   8.591  0.00  0.00     0.032 A 
HETATM   25  C   UNK N   1      34.800  15.351   9.312  0.00  0.00     0.045 A 
HETATM   26  C   UNK N   1      33.829  16.319   9.278  0.00  0.00     0.032 A 
HETATM   27  C   UNK N   1      35.945  15.613  10.132  0.00  0.00     0.099 C 
HETATM   28  C   UNK N   1      32.707  16.188   8.488  0.00  0.00    -0.026 A 
HETATM   29  C   UNK N   1      31.698  17.270   8.713  0.00  0.00     0.051 C 
HETATM   30  N   UNK N   1      36.842  15.885  10.811  0.00  0.00    -0.191 NA
ENDBRANCH  20  21
ENDBRANCH  13  20
BRANCH  16  31
HETATM   31  N   UNK N   1      31.875  17.144   2.312  0.00  0.00    -0.384 N 
HETATM   32  H   UNK N   1      31.967  18.039   1.912  0.00  0.00     0.157 HD
HETATM   33  H   UNK N   1      32.153  16.351   1.799  0.00  0.00     0.157 HD
ENDBRANCH  16  31
ENDBRANCH   1   9
TORSDOF 4
ENDMDL
MODEL 6
REMARK VINA RESULT:      -7.6      2.210      8.367
REMARK  4 active torsions:
REMARK  status: ('A' for Active; 'I' for Inactive)
REMARK    1  A    between atoms: C_1  and  O_2 
REMARK    2  A    between atoms: O_2  and  C_10 
REMARK       I    between atoms: C_13  and  N_14 
REMARK    3  A    between atoms: N_14  and  C_20 
REMARK    4  A    between atoms: C_17  and  N_18 
ROOT
HETATM    1  C   UNK N   1      30.623  17.098   6.841  0.00  0.00     0.049 A 
HETATM    2  C   UNK N   1      31.658  17.133   5.901  0.00  0.00     0.031 A 
HETATM    3  C   UNK N   1      32.933  17.529   6.311  0.00  0.00     0.025 A 
HETATM    4  C   UNK N   1      33.143  17.874   7.655  0.00  0.00     0.044 A 
HETATM    5  C   UNK N   1      32.133  17.726   8.591  0.00  0.00     0.025 A 
HETATM    6  C   UNK N   1      30.883  17.335   8.185  0.00  0.00     0.031 A 
HETATM    7  C   UNK N   1      34.336  18.507   8.093  0.00  0.00     0.099 C 
HETATM    8  N   UNK N   1      35.279  19.026   8.508  0.00  0.00    -0.191 NA
ENDROOT
BRANCH   1   9
HETATM    9  N   UNK N   1      29.303  16.969   6.402  0.00  0.00    -0.192 N 
HETATM   10  C   UNK N   1      28.807  15.880   5.643  0.00  0.00     0.686 C 
HETATM   11  N   UNK N   1      27.672  16.088   5.005  0.00  0.00    -0.168 N 
HETATM   12  N   UNK N   1      29.534  14.763   5.365  0.00  0.00    -0.175 N 
HETATM   13  C   UNK N   1      27.240  15.341   3.988  0.00  0.00     0.184 C 
ATOM     14  HN  UNK N   1      27.088  16.869   5.307  1.00  0.00     0.186 HD
HETATM   15  C   UNK N   1      27.904  14.126   3.718  0.00  0.00     0.106 C 
HETATM   16  C   UNK N   1      29.080  13.853   4.459  0.00  0.00     0.136 C 
HETATM   17 Br   UNK N   1      27.286  12.907   2.379  0.00  0.00    -0.042 Br
ATOM     18  HN  UNK N   1      30.424  14.607   5.839  1.00  0.00     0.186 HD
HETATM   19  H   UNK N   1      28.671  17.685   6.638  0.00  0.00     0.184 HD
BRANCH  13  20
HETATM   20  O   UNK N   1      26.238  15.859   3.226  0.00  0.00    -0.291 OA
BRANCH  20  21
HETATM   21  C   UNK N   1      25.124  16.458   3.807  0.00  0.00     0.089 A 
HETATM   22  C   UNK N   1      24.027  15.645   4.157  0.00  0.00    -0.026 A 
HETATM   23  C   UNK N   1      23.999  14.213   3.750  0.00  0.00     0.051 C 
HETATM   24  C   UNK N   1      22.946  16.177   4.889  0.00  0.00     0.032 A 
HETATM   25  C   UNK N   1      22.946  17.525   5.267  0.00  0.00     0.045 A 
HETATM   26  C   UNK N   1      23.949  18.355   4.837  0.00  0.00     0.032 A 
HETATM   27  C   UNK N   1      21.917  18.118   6.070  0.00  0.00     0.099 C 
HETATM   28  C   UNK N   1      25.010  17.879   4.096  0.00  0.00    -0.026 A 
HETATM   29  C   UNK N   1      25.909  18.964   3.590  0.00  0.00     0.051 C 
HETATM   30  N   UNK N   1      21.120  18.657   6.713  0.00  0.00    -0.191 NA
ENDBRANCH  20  21
ENDBRANCH  13  20
BRANCH  16  31
HETATM   31  N   UNK N   1      29.838  12.688   4.208  0.00  0.00    -0.384 N 
HETATM   32  H   UNK N   1      29.802  11.918   4.821  0.00  0.00     0.157 HD
HETATM   33  H   UNK N   1      30.411  12.646   3.409  0.00  0.00     0.157 HD
ENDBRANCH  16  31
ENDBRANCH   1   9
TORSDOF 4
ENDMDL
MODEL 7
REMARK VINA RESULT:      -7.5      2.726      4.280
REMARK  4 active torsions:
REMARK  status: ('A' for Active; 'I' for Inactive)
REMARK    1  A    between atoms: C_1  and  O_2 
REMARK    2  A    between atoms: O_2  and  C_10 
REMARK       I    between atoms: C_13  and  N_14 
REMARK    3  A    between atoms: N_14  and  C_20 
REMARK    4  A    between atoms: C_17  and  N_18 
ROOT
HETATM    1  C   UNK N   1      26.046  18.693   4.006  0.00  0.00     0.049 A 
HETATM    2  C   UNK N   1      26.168  19.939   3.384  0.00  0.00     0.031 A 
HETATM    3  C   UNK N   1      25.014  20.613   2.981  0.00  0.00     0.025 A 
HETATM    4  C   UNK N   1      23.762  20.024   3.217  0.00  0.00     0.044 A 
HETATM    5  C   UNK N   1      23.657  18.844   3.934  0.00  0.00     0.025 A 
HETATM    6  C   UNK N   1      24.793  18.186   4.329  0.00  0.00     0.031 A 
HETATM    7  C   UNK N   1      22.570  20.527   2.631  0.00  0.00     0.099 C 
HETATM    8  N   UNK N   1      21.569  20.886   2.182  0.00  0.00    -0.191 NA
ENDROOT
BRANCH   1   9
HETATM    9  N   UNK N   1      27.180  17.894   4.169  0.00  0.00    -0.192 N 
HETATM   10  C   UNK N   1      27.877  17.719   5.390  0.00  0.00     0.686 C 
HETATM   11  N   UNK N   1      29.107  17.253   5.294  0.00  0.00    -0.168 N 
HETATM   12  N   UNK N   1      27.439  18.208   6.583  0.00  0.00    -0.175 N 
HETATM   13  C   UNK N   1      30.020  17.353   6.262  0.00  0.00     0.184 C 
ATOM     14  HN  UNK N   1      29.378  16.789   4.427  1.00  0.00     0.186 HD
HETATM   15  C   UNK N   1      29.598  17.767   7.542  0.00  0.00     0.106 C 
HETATM   16  C   UNK N   1      28.253  18.190   7.675  0.00  0.00     0.136 C 
HETATM   17 Br   UNK N   1      30.789  17.810   9.039  0.00  0.00    -0.042 Br
ATOM     18  HN  UNK N   1      26.496  18.589   6.659  1.00  0.00     0.186 HD
HETATM   19  H   UNK N   1      27.520  17.416   3.378  0.00  0.00     0.184 HD
BRANCH  13  20
HETATM   20  O   UNK N   1      31.316  17.132   5.909  0.00  0.00    -0.291 OA
BRANCH  20  21
HETATM   21  C   UNK N   1      31.688  15.991   5.205  0.00  0.00     0.089 A 
HETATM   22  C   UNK N   1      31.933  14.804   5.923  0.00  0.00    -0.026 A 
HETATM   23  C   UNK N   1      31.960  14.824   7.412  0.00  0.00     0.051 C 
HETATM   24  C   UNK N   1      32.156  13.588   5.245  0.00  0.00     0.032 A 
HETATM   25  C   UNK N   1      32.150  13.550   3.845  0.00  0.00     0.045 A 
HETATM   26  C   UNK N   1      32.029  14.715   3.132  0.00  0.00     0.032 A 
HETATM   27  C   UNK N   1      32.301  12.342   3.089  0.00  0.00     0.099 C 
HETATM   28  C   UNK N   1      31.836  15.928   3.758  0.00  0.00    -0.026 A 
HETATM   29  C   UNK N   1      31.889  17.092   2.819  0.00  0.00     0.051 C 
HETATM   30  N   UNK N   1      32.418  11.405   2.421  0.00  0.00    -0.191 NA
ENDBRANCH  20  21
ENDBRANCH  13  20
BRANCH  16  31
HETATM   31  N   UNK N   1      27.767  18.677   8.908  0.00  0.00    -0.384 N 
HETATM   32  H   UNK N   1      26.973  19.259   8.945  0.00  0.00     0.157 HD
HETATM   33  H   UNK N   1      28.228  18.431   9.742  0.00  0.00     0.157 HD
ENDBRANCH  16  31
ENDBRANCH   1   9
TORSDOF 4
ENDMDL
MODEL 8
REMARK VINA RESULT:      -7.3      5.756     11.091
REMARK  4 active torsions:
REMARK  status: ('A' for Active; 'I' for Inactive)
REMARK    1  A    between atoms: C_1  and  O_2 
REMARK    2  A    between atoms: O_2  and  C_10 
REMARK       I    between atoms: C_13  and  N_14 
REMARK    3  A    between atoms: N_14  and  C_20 
REMARK    4  A    between atoms: C_17  and  N_18 
ROOT
HETATM    1  C   UNK N   1      34.980  13.371  12.064  0.00  0.00     0.049 A 
HETATM    2  C   UNK N   1      35.714  14.317  12.785  0.00  0.00     0.031 A 
HETATM    3  C   UNK N   1      36.050  14.047  14.113  0.00  0.00     0.025 A 
HETATM    4  C   UNK N   1      35.648  12.831  14.686  0.00  0.00     0.044 A 
HETATM    5  C   UNK N   1      35.020  11.861  13.922  0.00  0.00     0.025 A 
HETATM    6  C   UNK N   1      34.693  12.129  12.618  0.00  0.00     0.031 A 
HETATM    7  C   UNK N   1      35.742  12.587  16.082  0.00  0.00     0.099 C 
HETATM    8  N   UNK N   1      35.788  12.332  17.206  0.00  0.00    -0.191 NA
ENDROOT
BRANCH   1   9
HETATM    9  N   UNK N   1      34.410  13.732  10.840  0.00  0.00    -0.192 N 
HETATM   10  C   UNK N   1      35.065  13.644   9.587  0.00  0.00     0.686 C 
HETATM   11  N   UNK N   1      34.543  14.358   8.609  0.00  0.00    -0.168 N 
HETATM   12  N   UNK N   1      36.286  13.067   9.415  0.00  0.00    -0.175 N 
HETATM   13  C   UNK N   1      35.195  14.680   7.491  0.00  0.00     0.184 C 
ATOM     14  HN  UNK N   1      33.583  14.686   8.714  1.00  0.00     0.186 HD
HETATM   15  C   UNK N   1      36.423  14.039   7.221  0.00  0.00     0.106 C 
HETATM   16  C   UNK N   1      36.951  13.201   8.233  0.00  0.00     0.136 C 
HETATM   17 Br   UNK N   1      37.374  14.315   5.584  0.00  0.00    -0.042 Br
ATOM     18  HN  UNK N   1      36.705  12.531  10.174  1.00  0.00     0.186 HD
HETATM   19  H   UNK N   1      33.487  14.072  10.849  0.00  0.00     0.184 HD
BRANCH  13  20
HETATM   20  O   UNK N   1      34.663  15.679   6.734  0.00  0.00    -0.291 OA
BRANCH  20  21
HETATM   21  C   UNK N   1      33.508  16.347   7.130  0.00  0.00     0.089 A 
HETATM   22  C   UNK N   1      32.259  15.826   6.739  0.00  0.00    -0.026 A 
HETATM   23  C   UNK N   1      32.191  14.688   5.780  0.00  0.00     0.051 C 
HETATM   24  C   UNK N   1      31.063  16.374   7.245  0.00  0.00     0.032 A 
HETATM   25  C   UNK N   1      31.104  17.455   8.135  0.00  0.00     0.045 A 
HETATM   26  C   UNK N   1      32.304  18.046   8.435  0.00  0.00     0.032 A 
HETATM   27  C   UNK N   1      29.935  18.019   8.744  0.00  0.00     0.099 C 
HETATM   28  C   UNK N   1      33.493  17.557   7.939  0.00  0.00    -0.026 A 
HETATM   29  C   UNK N   1      34.667  18.432   8.250  0.00  0.00     0.051 C 
HETATM   30  N   UNK N   1      29.033  18.520   9.267  0.00  0.00    -0.191 NA
ENDBRANCH  20  21
ENDBRANCH  13  20
BRANCH  16  31
HETATM   31  N   UNK N   1      38.203  12.570   8.069  0.00  0.00    -0.384 N 
HETATM   32  H   UNK N   1      38.773  12.366   8.845  0.00  0.00     0.157 HD
HETATM   33  H   UNK N   1      38.510  12.331   7.164  0.00  0.00     0.157 HD
ENDBRANCH  16  31
ENDBRANCH   1   9
TORSDOF 4
ENDMDL
MODEL 9
REMARK VINA RESULT:      -7.2      9.859     13.323
REMARK  4 active torsions:
REMARK  status: ('A' for Active; 'I' for Inactive)
REMARK    1  A    between atoms: C_1  and  O_2 
REMARK    2  A    between atoms: O_2  and  C_10 
REMARK       I    between atoms: C_13  and  N_14 
REMARK    3  A    between atoms: N_14  and  C_20 
REMARK    4  A    between atoms: C_17  and  N_18 
ROOT
HETATM    1  C   UNK N   1      36.403  13.437  14.434  0.00  0.00     0.049 A 
HETATM    2  C   UNK N   1      35.299  12.650  14.777  0.00  0.00     0.031 A 
HETATM    3  C   UNK N   1      34.820  12.689  16.088  0.00  0.00     0.025 A 
HETATM    4  C   UNK N   1      35.455  13.520  17.023  0.00  0.00     0.044 A 
HETATM    5  C   UNK N   1      36.474  14.374  16.637  0.00  0.00     0.025 A 
HETATM    6  C   UNK N   1      36.940  14.335  15.348  0.00  0.00     0.031 A 
HETATM    7  C   UNK N   1      35.181  13.436  18.414  0.00  0.00     0.099 C 
HETATM    8  N   UNK N   1      35.006  13.412  19.555  0.00  0.00    -0.191 NA
ENDROOT
BRANCH   1   9
HETATM    9  N   UNK N   1      37.054  13.212  13.218  0.00  0.00    -0.192 N 
HETATM   10  C   UNK N   1      36.694  13.809  11.985  0.00  0.00     0.686 C 
HETATM   11  N   UNK N   1      37.152  13.219  10.899  0.00  0.00    -0.168 N 
HETATM   12  N   UNK N   1      35.748  14.781  11.869  0.00  0.00    -0.175 N 
HETATM   13  C   UNK N   1      36.649  13.409   9.678  0.00  0.00     0.184 C 
ATOM     14  HN  UNK N   1      37.938  12.576  10.998  1.00  0.00     0.186 HD
HETATM   15  C   UNK N   1      35.733  14.464   9.487  0.00  0.00     0.106 C 
HETATM   16  C   UNK N   1      35.299  15.162  10.640  0.00  0.00     0.136 C 
HETATM   17 Br   UNK N   1      35.057  14.920   7.755  0.00  0.00    -0.042 Br
ATOM     18  HN  UNK N   1      35.374  15.227  12.706  1.00  0.00     0.186 HD
HETATM   19  H   UNK N   1      37.820  12.593  13.218  0.00  0.00     0.184 HD
BRANCH  13  20
HETATM   20  O   UNK N   1      36.994  12.501   8.723  0.00  0.00    -0.291 OA
BRANCH  20  21
HETATM   21  C   UNK N   1      38.322  12.146   8.511  0.00  0.00     0.089 A 
HETATM   22  C   UNK N   1      39.078  12.884   7.580  0.00  0.00    -0.026 A 
HETATM   23  C   UNK N   1      38.416  13.905   6.721  0.00  0.00     0.051 C 
HETATM   24  C   UNK N   1      40.465  12.665   7.447  0.00  0.00     0.032 A 
HETATM   25  C   UNK N   1      41.104  11.699   8.234  0.00  0.00     0.045 A 
HETATM   26  C   UNK N   1      40.364  10.894   9.061  0.00  0.00     0.032 A 
HETATM   27  C   UNK N   1      42.519  11.469   8.203  0.00  0.00     0.099 C 
HETATM   28  C   UNK N   1      39.003  11.058   9.198  0.00  0.00    -0.026 A 
HETATM   29  C   UNK N   1      38.359   9.984  10.018  0.00  0.00     0.051 C 
HETATM   30  N   UNK N   1      43.651  11.233   8.226  0.00  0.00    -0.191 NA
ENDBRANCH  20  21
ENDBRANCH  13  20
BRANCH  16  31
HETATM   31  N   UNK N   1      34.338  16.192  10.543  0.00  0.00    -0.384 N 
HETATM   32  H   UNK N   1      33.691  16.213   9.801  0.00  0.00     0.157 HD
HETATM   33  H   UNK N   1      34.315  16.899  11.228  0.00  0.00     0.157 HD
ENDBRANCH  16  31
ENDBRANCH   1   9
TORSDOF 4
ENDMDL
