MODEL 1
REMARK VINA RESULT:      -7.4      0.000      0.000
REMARK  8 active torsions:
REMARK  status: ('A' for Active; 'I' for Inactive)
REMARK    1  A    between atoms: O_2  and  C_23 
REMARK    2  A    between atoms: O_2  and  C_28 
REMARK    3  A    between atoms: N_5  and  C_10 
REMARK    4  A    between atoms: N_6  and  C_11 
REMARK       I    between atoms: N_6  and  C_21 
REMARK    5  A    between atoms: N_7  and  C_25 
REMARK    6  A    between atoms: N_8  and  C_27 
REMARK    7  A    between atoms: C_9  and  C_10 
REMARK    8  A    between atoms: C_21  and  C_22 
ROOT
HETATM    1  O   UNK N   1      36.537  14.586   6.210  0.00  0.00    -0.268 OA
HETATM    2  N   UNK N   1      35.241  15.026   7.977  0.00  0.00    -0.352 N 
HETATM    3  C   UNK N   1      35.515  15.081   6.645  0.00  0.00     0.254 C 
HETATM    4  H   UNK N   1      34.361  15.380   8.241  0.00  0.00     0.163 HD
ENDROOT
BRANCH   3   5
HETATM    5  C   UNK N   1      34.519  15.769   5.765  0.00  0.00     0.067 A 
HETATM    6  C   UNK N   1      34.039  17.125   5.848  0.00  0.00     0.086 A 
HETATM    7  C   UNK N   1      33.090  17.551   4.908  0.00  0.00     0.069 A 
HETATM    8  C   UNK N   1      32.594  16.712   3.909  0.00  0.00     0.061 A 
HETATM    9  C   UNK N   1      33.064  15.389   3.815  0.00  0.00     0.130 A 
HETATM   10  C   UNK N   1      34.005  14.954   4.741  0.00  0.00     0.058 A 
BRANCH   6  11
HETATM   11  O   UNK N   1      34.398  18.058   6.772  0.00  0.00    -0.350 OA
BRANCH  11  12
HETATM   12  C   UNK N   1      34.061  18.122   8.098  0.00  0.00     0.171 C 
HETATM   13  C   UNK N   1      32.582  17.841   8.256  0.00  0.00     0.034 C 
ENDBRANCH  11  12
ENDBRANCH   6  11
BRANCH   8  14
HETATM   14  N   UNK N   1      31.627  17.216   3.015  0.00  0.00    -0.397 N 
HETATM   15  H   UNK N   1      30.710  16.859   3.024  0.00  0.00     0.156 HD
HETATM   16  H   UNK N   1      31.871  17.927   2.379  0.00  0.00     0.156 HD
ENDBRANCH   8  14
BRANCH   9  17
HETATM   17  N   UNK N   1      32.621  14.477   2.806  0.00  0.00    -0.113 N 
HETATM   18  O   UNK N   1      31.366  14.073   2.796  0.00  0.00    -0.532 OA
HETATM   19  O   UNK N   1      33.373  14.057   1.981  0.00  0.00    -0.532 OA
ENDBRANCH   9  17
ENDBRANCH   3   5
BRANCH   2  20
HETATM   20  C   UNK N   1      36.058  14.522   9.060  0.00  0.00     0.088 C 
HETATM   21  C   UNK N   1      35.988  13.019   9.367  0.00  0.00     0.055 C 
HETATM   22  C   UNK N   1      34.912  12.692  10.410  0.00  0.00     0.274 C 
HETATM   23  N   UNK N   1      35.056  13.517  11.615  0.00  0.00     0.088 N 
HETATM   24  C   UNK N   1      34.855  14.926  11.244  0.00  0.00     0.274 C 
HETATM   25  C   UNK N   1      35.937  15.416  10.283  0.00  0.00     0.055 C 
BRANCH  23  26
HETATM   26  C   UNK N   1      36.352  13.221  12.258  0.00  0.00     0.277 C 
BRANCH  26  27
HETATM   27  C   UNK N   1      36.268  13.000  13.769  0.00  0.00     0.017 C 
HETATM   28  C   UNK N   1      36.556  14.304  14.495  0.00  0.00     0.010 C 
HETATM   29  C   UNK N   1      36.533  14.085  16.011  0.00  0.00     0.027 C 
HETATM   30  C   UNK N   1      35.407  13.192  16.476  0.00  0.00    -0.031 C 
HETATM   31  C   UNK N   1      34.639  12.498  15.624  0.00  0.00    -0.030 C 
HETATM   32  C   UNK N   1      34.849  12.563  14.139  0.00  0.00     0.033 C 
ENDBRANCH  26  27
ENDBRANCH  23  26
ENDBRANCH   2  20
TORSDOF 8
ENDMDL
MODEL 2
REMARK VINA RESULT:      -7.1      7.936     10.879
REMARK  8 active torsions:
REMARK  status: ('A' for Active; 'I' for Inactive)
REMARK    1  A    between atoms: O_2  and  C_23 
REMARK    2  A    between atoms: O_2  and  C_28 
REMARK    3  A    between atoms: N_5  and  C_10 
REMARK    4  A    between atoms: N_6  and  C_11 
REMARK       I    between atoms: N_6  and  C_21 
REMARK    5  A    between atoms: N_7  and  C_25 
REMARK    6  A    between atoms: N_8  and  C_27 
REMARK    7  A    between atoms: C_9  and  C_10 
REMARK    8  A    between atoms: C_21  and  C_22 
ROOT
HETATM    1  O   UNK N   1      24.091  15.307   5.112  0.00  0.00    -0.268 OA
HETATM    2  N   UNK N   1      25.425  17.044   5.560  0.00  0.00    -0.352 N 
HETATM    3  C   UNK N   1      24.261  16.511   5.095  0.00  0.00     0.254 C 
HETATM    4  H   UNK N   1      25.458  18.028   5.584  0.00  0.00     0.163 HD
ENDROOT
BRANCH   3   5
HETATM    5  C   UNK N   1      23.230  17.461   4.572  0.00  0.00     0.067 A 
HETATM    6  C   UNK N   1      21.795  17.328   4.601  0.00  0.00     0.086 A 
HETATM    7  C   UNK N   1      21.022  18.353   4.039  0.00  0.00     0.069 A 
HETATM    8  C   UNK N   1      21.590  19.484   3.451  0.00  0.00     0.061 A 
HETATM    9  C   UNK N   1      22.990  19.627   3.427  0.00  0.00     0.130 A 
HETATM   10  C   UNK N   1      23.767  18.617   3.981  0.00  0.00     0.058 A 
BRANCH   6  11
HETATM   11  O   UNK N   1      21.088  16.282   5.110  0.00  0.00    -0.350 OA
BRANCH  11  12
HETATM   12  C   UNK N   1      20.235  16.267   6.182  0.00  0.00     0.171 C 
HETATM   13  C   UNK N   1      21.019  16.515   7.453  0.00  0.00     0.034 C 
ENDBRANCH  11  12
ENDBRANCH   6  11
BRANCH   8  14
HETATM   14  N   UNK N   1      20.740  20.461   2.892  0.00  0.00    -0.397 N 
HETATM   15  H   UNK N   1      21.020  21.404   2.864  0.00  0.00     0.156 HD
HETATM   16  H   UNK N   1      19.864  20.198   2.530  0.00  0.00     0.156 HD
ENDBRANCH   8  14
BRANCH   9  17
HETATM   17  N   UNK N   1      23.645  20.767   2.863  0.00  0.00    -0.113 N 
HETATM   18  O   UNK N   1      24.764  20.608   2.184  0.00  0.00    -0.532 OA
HETATM   19  O   UNK N   1      23.207  21.866   3.010  0.00  0.00    -0.532 OA
ENDBRANCH   9  17
ENDBRANCH   3   5
BRANCH   2  20
HETATM   20  C   UNK N   1      26.619  16.371   6.022  0.00  0.00     0.088 C 
HETATM   21  C   UNK N   1      27.345  16.962   7.239  0.00  0.00     0.055 C 
HETATM   22  C   UNK N   1      28.421  17.978   6.835  0.00  0.00     0.274 C 
HETATM   23  N   UNK N   1      29.340  17.425   5.833  0.00  0.00     0.088 N 
HETATM   24  C   UNK N   1      28.575  17.126   4.612  0.00  0.00     0.274 C 
HETATM   25  C   UNK N   1      27.532  16.036   4.853  0.00  0.00     0.055 C 
BRANCH  23  26
HETATM   26  C   UNK N   1      30.062  16.274   6.413  0.00  0.00     0.277 C 
BRANCH  26  27
HETATM   27  C   UNK N   1      31.540  16.540   6.698  0.00  0.00     0.017 C 
HETATM   28  C   UNK N   1      32.169  17.261   5.517  0.00  0.00     0.010 C 
HETATM   29  C   UNK N   1      33.665  17.482   5.763  0.00  0.00     0.027 C 
HETATM   30  C   UNK N   1      33.988  17.914   7.175  0.00  0.00    -0.031 C 
HETATM   31  C   UNK N   1      33.078  17.899   8.159  0.00  0.00    -0.030 C 
HETATM   32  C   UNK N   1      31.665  17.449   7.922  0.00  0.00     0.033 C 
ENDBRANCH  26  27
ENDBRANCH  23  26
ENDBRANCH   2  20
TORSDOF 8
ENDMDL
MODEL 3
REMARK VINA RESULT:      -7.1      7.385      9.880
REMARK  8 active torsions:
REMARK  status: ('A' for Active; 'I' for Inactive)
REMARK    1  A    between atoms: O_2  and  C_23 
REMARK    2  A    between atoms: O_2  and  C_28 
REMARK    3  A    between atoms: N_5  and  C_10 
REMARK    4  A    between atoms: N_6  and  C_11 
REMARK       I    between atoms: N_6  and  C_21 
REMARK    5  A    between atoms: N_7  and  C_25 
REMARK    6  A    between atoms: N_8  and  C_27 
REMARK    7  A    between atoms: C_9  and  C_10 
REMARK    8  A    between atoms: C_21  and  C_22 
ROOT
HETATM    1  O   UNK N   1      26.384  19.594   3.658  0.00  0.00    -0.268 OA
HETATM    2  N   UNK N   1      26.609  18.303   5.468  0.00  0.00    -0.352 N 
HETATM    3  C   UNK N   1      25.876  18.816   4.442  0.00  0.00     0.254 C 
HETATM    4  H   UNK N   1      26.152  17.623   6.014  0.00  0.00     0.163 HD
ENDROOT
BRANCH   3   5
HETATM    5  C   UNK N   1      24.447  18.384   4.335  0.00  0.00     0.067 A 
HETATM    6  C   UNK N   1      23.868  17.114   4.692  0.00  0.00     0.086 A 
HETATM    7  C   UNK N   1      22.491  16.934   4.495  0.00  0.00     0.069 A 
HETATM    8  C   UNK N   1      21.673  17.932   3.964  0.00  0.00     0.061 A 
HETATM    9  C   UNK N   1      22.229  19.178   3.622  0.00  0.00     0.130 A 
HETATM   10  C   UNK N   1      23.592  19.369   3.811  0.00  0.00     0.058 A 
BRANCH   6  11
HETATM   11  O   UNK N   1      24.527  16.034   5.194  0.00  0.00    -0.350 OA
BRANCH  11  12
HETATM   12  C   UNK N   1      24.368  15.425   6.411  0.00  0.00     0.171 C 
HETATM   13  C   UNK N   1      25.727  15.086   6.986  0.00  0.00     0.034 C 
ENDBRANCH  11  12
ENDBRANCH   6  11
BRANCH   8  14
HETATM   14  N   UNK N   1      20.301  17.662   3.782  0.00  0.00    -0.397 N 
HETATM   15  H   UNK N   1      20.015  16.865   3.280  0.00  0.00     0.156 HD
HETATM   16  H   UNK N   1      19.627  18.272   4.159  0.00  0.00     0.156 HD
ENDBRANCH   8  14
BRANCH   9  17
HETATM   17  N   UNK N   1      21.452  20.257   3.093  0.00  0.00    -0.113 N 
HETATM   18  O   UNK N   1      20.381  20.670   3.742  0.00  0.00    -0.532 OA
HETATM   19  O   UNK N   1      21.745  20.782   2.063  0.00  0.00    -0.532 OA
ENDBRANCH   9  17
ENDBRANCH   3   5
BRANCH   2  20
HETATM   20  C   UNK N   1      27.964  18.616   5.871  0.00  0.00     0.088 C 
HETATM   21  C   UNK N   1      29.105  17.843   5.194  0.00  0.00     0.055 C 
HETATM   22  C   UNK N   1      29.477  16.569   5.964  0.00  0.00     0.274 C 
HETATM   23  N   UNK N   1      29.735  16.847   7.382  0.00  0.00     0.088 N 
HETATM   24  C   UNK N   1      28.495  17.351   7.992  0.00  0.00     0.274 C 
HETATM   25  C   UNK N   1      28.069  18.687   7.386  0.00  0.00     0.055 C 
BRANCH  23  26
HETATM   26  C   UNK N   1      30.898  17.750   7.499  0.00  0.00     0.277 C 
BRANCH  26  27
HETATM   27  C   UNK N   1      31.961  17.277   8.491  0.00  0.00     0.017 C 
HETATM   28  C   UNK N   1      32.109  15.767   8.404  0.00  0.00     0.010 C 
HETATM   29  C   UNK N   1      33.130  15.272   9.434  0.00  0.00     0.027 C 
HETATM   30  C   UNK N   1      34.357  16.149   9.539  0.00  0.00    -0.031 C 
HETATM   31  C   UNK N   1      34.439  17.347   8.942  0.00  0.00    -0.030 C 
HETATM   32  C   UNK N   1      33.310  17.901   8.123  0.00  0.00     0.033 C 
ENDBRANCH  26  27
ENDBRANCH  23  26
ENDBRANCH   2  20
TORSDOF 8
ENDMDL
MODEL 4
REMARK VINA RESULT:      -7.1      4.107      9.541
REMARK  8 active torsions:
REMARK  status: ('A' for Active; 'I' for Inactive)
REMARK    1  A    between atoms: O_2  and  C_23 
REMARK    2  A    between atoms: O_2  and  C_28 
REMARK    3  A    between atoms: N_5  and  C_10 
REMARK    4  A    between atoms: N_6  and  C_11 
REMARK       I    between atoms: N_6  and  C_21 
REMARK    5  A    between atoms: N_7  and  C_25 
REMARK    6  A    between atoms: N_8  and  C_27 
REMARK    7  A    between atoms: C_9  and  C_10 
REMARK    8  A    between atoms: C_21  and  C_22 
ROOT
HETATM    1  O   UNK N   1      34.409  17.584   9.330  0.00  0.00    -0.268 OA
HETATM    2  N   UNK N   1      32.449  16.575   8.963  0.00  0.00    -0.352 N 
HETATM    3  C   UNK N   1      33.760  16.556   9.330  0.00  0.00     0.254 C 
HETATM    4  H   UNK N   1      31.971  15.720   9.062  0.00  0.00     0.163 HD
ENDROOT
BRANCH   3   5
HETATM    5  C   UNK N   1      34.346  15.236   9.721  0.00  0.00     0.067 A 
HETATM    6  C   UNK N   1      34.661  14.112   8.876  0.00  0.00     0.086 A 
HETATM    7  C   UNK N   1      35.202  12.965   9.472  0.00  0.00     0.069 A 
HETATM    8  C   UNK N   1      35.439  12.874  10.844  0.00  0.00     0.061 A 
HETATM    9  C   UNK N   1      35.144  13.970  11.676  0.00  0.00     0.130 A 
HETATM   10  C   UNK N   1      34.606  15.113  11.097  0.00  0.00     0.058 A 
BRANCH   6  11
HETATM   11  O   UNK N   1      34.468  14.029   7.531  0.00  0.00    -0.350 OA
BRANCH  11  12
HETATM   12  C   UNK N   1      35.253  14.523   6.522  0.00  0.00     0.171 C 
HETATM   13  C   UNK N   1      34.493  15.596   5.772  0.00  0.00     0.034 C 
ENDBRANCH  11  12
ENDBRANCH   6  11
BRANCH   8  14
HETATM   14  N   UNK N   1      35.971  11.676  11.366  0.00  0.00    -0.397 N 
HETATM   15  H   UNK N   1      36.914  11.443  11.209  0.00  0.00     0.156 HD
HETATM   16  H   UNK N   1      35.397  11.071  11.888  0.00  0.00     0.156 HD
ENDBRANCH   8  14
BRANCH   9  17
HETATM   17  N   UNK N   1      35.379  13.961  13.087  0.00  0.00    -0.113 N 
HETATM   18  O   UNK N   1      36.324  14.725  13.597  0.00  0.00    -0.532 OA
HETATM   19  O   UNK N   1      34.745  13.259  13.813  0.00  0.00    -0.532 OA
ENDBRANCH   9  17
ENDBRANCH   3   5
BRANCH   2  20
HETATM   20  C   UNK N   1      31.658  17.672   8.448  0.00  0.00     0.088 C 
HETATM   21  C   UNK N   1      30.526  18.213   9.334  0.00  0.00     0.055 C 
HETATM   22  C   UNK N   1      29.192  17.504   9.065  0.00  0.00     0.274 C 
HETATM   23  N   UNK N   1      28.854  17.507   7.637  0.00  0.00     0.088 N 
HETATM   24  C   UNK N   1      29.881  16.743   6.912  0.00  0.00     0.274 C 
HETATM   25  C   UNK N   1      31.252  17.410   7.007  0.00  0.00     0.055 C 
BRANCH  23  26
HETATM   26  C   UNK N   1      28.676  18.900   7.180  0.00  0.00     0.277 C 
BRANCH  26  27
HETATM   27  C   UNK N   1      27.570  19.083   6.141  0.00  0.00     0.017 C 
HETATM   28  C   UNK N   1      26.999  20.489   6.241  0.00  0.00     0.010 C 
HETATM   29  C   UNK N   1      25.849  20.668   5.244  0.00  0.00     0.027 C 
HETATM   30  C   UNK N   1      26.122  20.055   3.890  0.00  0.00    -0.031 C 
HETATM   31  C   UNK N   1      27.174  19.258   3.659  0.00  0.00    -0.030 C 
HETATM   32  C   UNK N   1      28.160  18.917   4.738  0.00  0.00     0.033 C 
ENDBRANCH  26  27
ENDBRANCH  23  26
ENDBRANCH   2  20
TORSDOF 8
ENDMDL
MODEL 5
REMARK VINA RESULT:      -7.0      7.757     10.700
REMARK  8 active torsions:
REMARK  status: ('A' for Active; 'I' for Inactive)
REMARK    1  A    between atoms: O_2  and  C_23 
REMARK    2  A    between atoms: O_2  and  C_28 
REMARK    3  A    between atoms: N_5  and  C_10 
REMARK    4  A    between atoms: N_6  and  C_11 
REMARK       I    between atoms: N_6  and  C_21 
REMARK    5  A    between atoms: N_7  and  C_25 
REMARK    6  A    between atoms: N_8  and  C_27 
REMARK    7  A    between atoms: C_9  and  C_10 
REMARK    8  A    between atoms: C_21  and  C_22 
ROOT
HETATM    1  O   UNK N   1      23.993  15.959   5.258  0.00  0.00    -0.268 OA
HETATM    2  N   UNK N   1      25.613  17.499   5.213  0.00  0.00    -0.352 N 
HETATM    3  C   UNK N   1      24.353  17.071   4.924  0.00  0.00     0.254 C 
HETATM    4  H   UNK N   1      25.804  18.435   4.979  0.00  0.00     0.163 HD
ENDROOT
BRANCH   3   5
HETATM    5  C   UNK N   1      23.457  18.019   4.189  0.00  0.00     0.067 A 
HETATM    6  C   UNK N   1      23.735  19.369   3.770  0.00  0.00     0.086 A 
HETATM    7  C   UNK N   1      22.730  20.075   3.094  0.00  0.00     0.069 A 
HETATM    8  C   UNK N   1      21.479  19.520   2.822  0.00  0.00     0.061 A 
HETATM    9  C   UNK N   1      21.202  18.199   3.219  0.00  0.00     0.130 A 
HETATM   10  C   UNK N   1      22.190  17.489   3.891  0.00  0.00     0.058 A 
BRANCH   6  11
HETATM   11  O   UNK N   1      24.888  20.062   3.979  0.00  0.00    -0.350 OA
BRANCH  11  12
HETATM   12  C   UNK N   1      25.871  20.379   3.078  0.00  0.00     0.171 C 
HETATM   13  C   UNK N   1      27.221  20.305   3.757  0.00  0.00     0.034 C 
ENDBRANCH  11  12
ENDBRANCH   6  11
BRANCH   8  14
HETATM   14  N   UNK N   1      20.517  20.305   2.152  0.00  0.00    -0.397 N 
HETATM   15  H   UNK N   1      20.530  20.373   1.171  0.00  0.00     0.156 HD
HETATM   16  H   UNK N   1      19.831  20.786   2.668  0.00  0.00     0.156 HD
ENDBRANCH   8  14
BRANCH   9  17
HETATM   17  N   UNK N   1      19.952  17.554   2.957  0.00  0.00    -0.113 N 
HETATM   18  O   UNK N   1      19.599  17.292   1.714  0.00  0.00    -0.532 OA
HETATM   19  O   UNK N   1      19.210  17.263   3.844  0.00  0.00    -0.532 OA
ENDBRANCH   9  17
ENDBRANCH   3   5
BRANCH   2  20
HETATM   20  C   UNK N   1      26.710  16.771   5.814  0.00  0.00     0.088 C 
HETATM   21  C   UNK N   1      27.450  17.436   6.985  0.00  0.00     0.055 C 
HETATM   22  C   UNK N   1      28.644  18.276   6.512  0.00  0.00     0.274 C 
HETATM   23  N   UNK N   1      29.533  17.509   5.634  0.00  0.00     0.088 N 
HETATM   24  C   UNK N   1      28.787  17.135   4.423  0.00  0.00     0.274 C 
HETATM   25  C   UNK N   1      27.623  16.198   4.743  0.00  0.00     0.055 C 
BRANCH  23  26
HETATM   26  C   UNK N   1      30.105  16.374   6.387  0.00  0.00     0.277 C 
BRANCH  26  27
HETATM   27  C   UNK N   1      31.576  16.548   6.764  0.00  0.00     0.017 C 
HETATM   28  C   UNK N   1      32.315  17.252   5.637  0.00  0.00     0.010 C 
HETATM   29  C   UNK N   1      33.804  17.382   5.976  0.00  0.00     0.027 C 
HETATM   30  C   UNK N   1      34.065  17.770   7.413  0.00  0.00    -0.031 C 
HETATM   31  C   UNK N   1      33.098  17.792   8.340  0.00  0.00    -0.030 C 
HETATM   32  C   UNK N   1      31.679  17.428   8.012  0.00  0.00     0.033 C 
ENDBRANCH  26  27
ENDBRANCH  23  26
ENDBRANCH   2  20
TORSDOF 8
ENDMDL
MODEL 6
REMARK VINA RESULT:      -7.0      5.938     11.153
REMARK  8 active torsions:
REMARK  status: ('A' for Active; 'I' for Inactive)
REMARK    1  A    between atoms: O_2  and  C_23 
REMARK    2  A    between atoms: O_2  and  C_28 
REMARK    3  A    between atoms: N_5  and  C_10 
REMARK    4  A    between atoms: N_6  and  C_11 
REMARK       I    between atoms: N_6  and  C_21 
REMARK    5  A    between atoms: N_7  and  C_25 
REMARK    6  A    between atoms: N_8  and  C_27 
REMARK    7  A    between atoms: C_9  and  C_10 
REMARK    8  A    between atoms: C_21  and  C_22 
ROOT
HETATM    1  O   UNK N   1      29.642  18.240   8.588  0.00  0.00    -0.268 OA
HETATM    2  N   UNK N   1      29.051  17.575   6.538  0.00  0.00    -0.352 N 
HETATM    3  C   UNK N   1      29.939  17.651   7.567  0.00  0.00     0.254 C 
HETATM    4  H   UNK N   1      29.335  17.018   5.777  0.00  0.00     0.163 HD
ENDROOT
BRANCH   3   5
HETATM    5  C   UNK N   1      31.269  16.991   7.378  0.00  0.00     0.067 A 
HETATM    6  C   UNK N   1      31.579  15.805   6.620  0.00  0.00     0.086 A 
HETATM    7  C   UNK N   1      32.909  15.364   6.592  0.00  0.00     0.069 A 
HETATM    8  C   UNK N   1      33.932  16.025   7.273  0.00  0.00     0.061 A 
HETATM    9  C   UNK N   1      33.641  17.189   8.007  0.00  0.00     0.130 A 
HETATM   10  C   UNK N   1      32.325  17.636   8.043  0.00  0.00     0.058 A 
BRANCH   6  11
HETATM   11  O   UNK N   1      30.698  15.033   5.925  0.00  0.00    -0.350 OA
BRANCH  11  12
HETATM   12  C   UNK N   1      30.951  13.922   5.164  0.00  0.00     0.171 C 
HETATM   13  C   UNK N   1      30.490  14.169   3.744  0.00  0.00     0.034 C 
ENDBRANCH  11  12
ENDBRANCH   6  11
BRANCH   8  14
HETATM   14  N   UNK N   1      35.242  15.504   7.206  0.00  0.00    -0.397 N 
HETATM   15  H   UNK N   1      35.507  14.756   7.787  0.00  0.00     0.156 HD
HETATM   16  H   UNK N   1      35.891  15.890   6.576  0.00  0.00     0.156 HD
ENDBRANCH   8  14
BRANCH   9  17
HETATM   17  N   UNK N   1      34.639  17.934   8.712  0.00  0.00    -0.113 N 
HETATM   18  O   UNK N   1      34.980  19.134   8.287  0.00  0.00    -0.532 OA
HETATM   19  O   UNK N   1      35.183  17.481   9.672  0.00  0.00    -0.532 OA
ENDBRANCH   9  17
ENDBRANCH   3   5
BRANCH   2  20
HETATM   20  C   UNK N   1      27.751  18.197   6.403  0.00  0.00     0.088 C 
HETATM   21  C   UNK N   1      26.683  17.446   5.595  0.00  0.00     0.055 C 
HETATM   22  C   UNK N   1      26.702  17.832   4.110  0.00  0.00     0.274 C 
HETATM   23  N   UNK N   1      26.642  19.286   3.927  0.00  0.00     0.088 N 
HETATM   24  C   UNK N   1      27.847  19.883   4.524  0.00  0.00     0.274 C 
HETATM   25  C   UNK N   1      27.895  19.665   6.035  0.00  0.00     0.055 C 
BRANCH  23  26
HETATM   26  C   UNK N   1      25.364  19.795   4.465  0.00  0.00     0.277 C 
BRANCH  26  27
HETATM   27  C   UNK N   1      24.133  19.369   3.665  0.00  0.00     0.017 C 
HETATM   28  C   UNK N   1      23.145  18.663   4.580  0.00  0.00     0.010 C 
HETATM   29  C   UNK N   1      21.932  18.178   3.780  0.00  0.00     0.027 C 
HETATM   30  C   UNK N   1      21.439  19.180   2.762  0.00  0.00    -0.031 C 
HETATM   31  C   UNK N   1      22.126  20.288   2.452  0.00  0.00    -0.030 C 
HETATM   32  C   UNK N   1      23.441  20.611   3.100  0.00  0.00     0.033 C 
ENDBRANCH  26  27
ENDBRANCH  23  26
ENDBRANCH   2  20
TORSDOF 8
ENDMDL
MODEL 7
REMARK VINA RESULT:      -7.0      3.037      4.420
REMARK  8 active torsions:
REMARK  status: ('A' for Active; 'I' for Inactive)
REMARK    1  A    between atoms: O_2  and  C_23 
REMARK    2  A    between atoms: O_2  and  C_28 
REMARK    3  A    between atoms: N_5  and  C_10 
REMARK    4  A    between atoms: N_6  and  C_11 
REMARK       I    between atoms: N_6  and  C_21 
REMARK    5  A    between atoms: N_7  and  C_25 
REMARK    6  A    between atoms: N_8  and  C_27 
REMARK    7  A    between atoms: C_9  and  C_10 
REMARK    8  A    between atoms: C_21  and  C_22 
ROOT
HETATM    1  O   UNK N   1      33.915  17.361   6.485  0.00  0.00    -0.268 OA
HETATM    2  N   UNK N   1      33.284  15.834   7.990  0.00  0.00    -0.352 N 
HETATM    3  C   UNK N   1      33.009  16.804   7.075  0.00  0.00     0.254 C 
HETATM    4  H   UNK N   1      32.498  15.378   8.369  0.00  0.00     0.163 HD
ENDROOT
BRANCH   3   5
HETATM    5  C   UNK N   1      31.570  17.143   6.842  0.00  0.00     0.067 A 
HETATM    6  C   UNK N   1      30.864  17.231   5.590  0.00  0.00     0.086 A 
HETATM    7  C   UNK N   1      29.505  17.575   5.616  0.00  0.00     0.069 A 
HETATM    8  C   UNK N   1      28.822  17.839   6.804  0.00  0.00     0.061 A 
HETATM    9  C   UNK N   1      29.501  17.745   8.033  0.00  0.00     0.130 A 
HETATM   10  C   UNK N   1      30.849  17.406   8.020  0.00  0.00     0.058 A 
BRANCH   6  11
HETATM   11  O   UNK N   1      31.386  17.032   4.348  0.00  0.00    -0.350 OA
BRANCH  11  12
HETATM   12  C   UNK N   1      31.722  15.850   3.741  0.00  0.00     0.171 C 
HETATM   13  C   UNK N   1      33.122  15.953   3.176  0.00  0.00     0.034 C 
ENDBRANCH  11  12
ENDBRANCH   6  11
BRANCH   8  14
HETATM   14  N   UNK N   1      27.459  18.195   6.741  0.00  0.00    -0.397 N 
HETATM   15  H   UNK N   1      26.808  17.590   6.318  0.00  0.00     0.156 HD
HETATM   16  H   UNK N   1      27.158  19.052   7.121  0.00  0.00     0.156 HD
ENDBRANCH   8  14
BRANCH   9  17
HETATM   17  N   UNK N   1      28.865  17.978   9.293  0.00  0.00    -0.113 N 
HETATM   18  O   UNK N   1      29.470  18.714  10.204  0.00  0.00    -0.532 OA
HETATM   19  O   UNK N   1      27.800  17.504   9.543  0.00  0.00    -0.532 OA
ENDBRANCH   9  17
ENDBRANCH   3   5
BRANCH   2  20
HETATM   20  C   UNK N   1      34.565  15.379   8.485  0.00  0.00     0.088 C 
HETATM   21  C   UNK N   1      34.814  13.864   8.531  0.00  0.00     0.055 C 
HETATM   22  C   UNK N   1      34.401  13.251   9.876  0.00  0.00     0.274 C 
HETATM   23  N   UNK N   1      35.004  13.966  11.006  0.00  0.00     0.088 N 
HETATM   24  C   UNK N   1      34.497  15.346  11.010  0.00  0.00     0.274 C 
HETATM   25  C   UNK N   1      34.937  16.112   9.763  0.00  0.00     0.055 C 
BRANCH  23  26
HETATM   26  C   UNK N   1      36.474  13.842  10.935  0.00  0.00     0.277 C 
BRANCH  26  27
HETATM   27  C   UNK N   1      37.110  13.201  12.169  0.00  0.00     0.017 C 
HETATM   28  C   UNK N   1      36.246  13.470  13.391  0.00  0.00     0.010 C 
HETATM   29  C   UNK N   1      36.902  12.883  14.645  0.00  0.00     0.027 C 
HETATM   30  C   UNK N   1      37.504  11.515  14.429  0.00  0.00    -0.031 C 
HETATM   31  C   UNK N   1      37.632  10.968  13.212  0.00  0.00    -0.030 C 
HETATM   32  C   UNK N   1      37.183  11.685  11.972  0.00  0.00     0.033 C 
ENDBRANCH  26  27
ENDBRANCH  23  26
ENDBRANCH   2  20
TORSDOF 8
ENDMDL
MODEL 8
REMARK VINA RESULT:      -6.9      4.099     10.053
REMARK  8 active torsions:
REMARK  status: ('A' for Active; 'I' for Inactive)
REMARK    1  A    between atoms: O_2  and  C_23 
REMARK    2  A    between atoms: O_2  and  C_28 
REMARK    3  A    between atoms: N_5  and  C_10 
REMARK    4  A    between atoms: N_6  and  C_11 
REMARK       I    between atoms: N_6  and  C_21 
REMARK    5  A    between atoms: N_7  and  C_25 
REMARK    6  A    between atoms: N_8  and  C_27 
REMARK    7  A    between atoms: C_9  and  C_10 
REMARK    8  A    between atoms: C_21  and  C_22 
ROOT
HETATM    1  O   UNK N   1      36.802  12.654  11.791  0.00  0.00    -0.268 OA
HETATM    2  N   UNK N   1      35.248  14.254  11.647  0.00  0.00    -0.352 N 
HETATM    3  C   UNK N   1      35.952  13.322  12.347  0.00  0.00     0.254 C 
HETATM    4  H   UNK N   1      34.632  14.806  12.181  0.00  0.00     0.163 HD
ENDROOT
BRANCH   3   5
HETATM    5  C   UNK N   1      35.630  13.166  13.800  0.00  0.00     0.067 A 
HETATM    6  C   UNK N   1      34.738  12.220  14.421  0.00  0.00     0.086 A 
HETATM    7  C   UNK N   1      34.588  12.266  15.815  0.00  0.00     0.069 A 
HETATM    8  C   UNK N   1      35.263  13.192  16.611  0.00  0.00     0.061 A 
HETATM    9  C   UNK N   1      36.143  14.113  16.014  0.00  0.00     0.130 A 
HETATM   10  C   UNK N   1      36.300  14.078  14.633  0.00  0.00     0.058 A 
BRANCH   6  11
HETATM   11  O   UNK N   1      33.990  11.274  13.789  0.00  0.00    -0.350 OA
BRANCH  11  12
HETATM   12  C   UNK N   1      34.389  10.065  13.283  0.00  0.00     0.171 C 
HETATM   13  C   UNK N   1      33.742   9.845  11.933  0.00  0.00     0.034 C 
ENDBRANCH  11  12
ENDBRANCH   6  11
BRANCH   8  14
HETATM   14  N   UNK N   1      35.042  13.180  18.004  0.00  0.00    -0.397 N 
HETATM   15  H   UNK N   1      34.776  12.348  18.456  0.00  0.00     0.156 HD
HETATM   16  H   UNK N   1      35.154  14.008  18.525  0.00  0.00     0.156 HD
ENDBRANCH   8  14
BRANCH   9  17
HETATM   17  N   UNK N   1      36.886  15.077  16.765  0.00  0.00    -0.113 N 
HETATM   18  O   UNK N   1      36.447  15.465  17.946  0.00  0.00    -0.532 OA
HETATM   19  O   UNK N   1      37.891  15.553  16.334  0.00  0.00    -0.532 OA
ENDBRANCH   9  17
ENDBRANCH   3   5
BRANCH   2  20
HETATM   20  C   UNK N   1      35.274  14.546  10.230  0.00  0.00     0.088 C 
HETATM   21  C   UNK N   1      35.511  16.004   9.807  0.00  0.00     0.055 C 
HETATM   22  C   UNK N   1      34.197  16.781   9.650  0.00  0.00     0.274 C 
HETATM   23  N   UNK N   1      33.251  16.077   8.776  0.00  0.00     0.088 N 
HETATM   24  C   UNK N   1      32.899  14.795   9.406  0.00  0.00     0.274 C 
HETATM   25  C   UNK N   1      34.111  13.872   9.522  0.00  0.00     0.055 C 
BRANCH  23  26
HETATM   26  C   UNK N   1      33.826  15.968   7.420  0.00  0.00     0.277 C 
BRANCH  26  27
HETATM   27  C   UNK N   1      32.832  16.248   6.293  0.00  0.00     0.017 C 
HETATM   28  C   UNK N   1      31.646  17.028   6.836  0.00  0.00     0.010 C 
HETATM   29  C   UNK N   1      30.613  17.265   5.729  0.00  0.00     0.027 C 
HETATM   30  C   UNK N   1      31.226  17.644   4.401  0.00  0.00    -0.031 C 
HETATM   31  C   UNK N   1      32.544  17.573   4.170  0.00  0.00    -0.030 C 
HETATM   32  C   UNK N   1      33.508  17.109   5.223  0.00  0.00     0.033 C 
ENDBRANCH  26  27
ENDBRANCH  23  26
ENDBRANCH   2  20
TORSDOF 8
ENDMDL
MODEL 9
REMARK VINA RESULT:      -6.9     11.150     12.942
REMARK  8 active torsions:
REMARK  status: ('A' for Active; 'I' for Inactive)
REMARK    1  A    between atoms: O_2  and  C_23 
REMARK    2  A    between atoms: O_2  and  C_28 
REMARK    3  A    between atoms: N_5  and  C_10 
REMARK    4  A    between atoms: N_6  and  C_11 
REMARK       I    between atoms: N_6  and  C_21 
REMARK    5  A    between atoms: N_7  and  C_25 
REMARK    6  A    between atoms: N_8  and  C_27 
REMARK    7  A    between atoms: C_9  and  C_10 
REMARK    8  A    between atoms: C_21  and  C_22 
ROOT
HETATM    1  O   UNK N   1      24.489  16.596   4.861  0.00  0.00    -0.268 OA
HETATM    2  N   UNK N   1      22.719  15.238   4.986  0.00  0.00    -0.352 N 
HETATM    3  C   UNK N   1      23.312  16.408   4.622  0.00  0.00     0.254 C 
HETATM    4  H   UNK N   1      21.786  15.129   4.691  0.00  0.00     0.163 HD
ENDROOT
BRANCH   3   5
HETATM    5  C   UNK N   1      22.459  17.427   3.933  0.00  0.00     0.067 A 
HETATM    6  C   UNK N   1      21.070  17.328   3.565  0.00  0.00     0.086 A 
HETATM    7  C   UNK N   1      20.476  18.419   2.914  0.00  0.00     0.069 A 
HETATM    8  C   UNK N   1      21.182  19.583   2.607  0.00  0.00     0.061 A 
HETATM    9  C   UNK N   1      22.537  19.692   2.971  0.00  0.00     0.130 A 
HETATM   10  C   UNK N   1      23.137  18.617   3.617  0.00  0.00     0.058 A 
BRANCH   6  11
HETATM   11  O   UNK N   1      20.251  16.259   3.767  0.00  0.00    -0.350 OA
BRANCH  11  12
HETATM   12  C   UNK N   1      19.190  16.145   4.626  0.00  0.00     0.171 C 
HETATM   13  C   UNK N   1      19.686  16.221   6.054  0.00  0.00     0.034 C 
ENDBRANCH  11  12
ENDBRANCH   6  11
BRANCH   8  14
HETATM   14  N   UNK N   1      20.513  20.627   1.935  0.00  0.00    -0.397 N 
HETATM   15  H   UNK N   1      20.082  20.460   1.066  0.00  0.00     0.156 HD
HETATM   16  H   UNK N   1      20.478  21.525   2.335  0.00  0.00     0.156 HD
ENDBRANCH   8  14
BRANCH   9  17
HETATM   17  N   UNK N   1      23.320  20.860   2.712  0.00  0.00    -0.113 N 
HETATM   18  O   UNK N   1      24.536  20.736   2.217  0.00  0.00    -0.532 OA
HETATM   19  O   UNK N   1      22.900  21.950   2.951  0.00  0.00    -0.532 OA
ENDBRANCH   9  17
ENDBRANCH   3   5
BRANCH   2  20
HETATM   20  C   UNK N   1      23.264  14.133   5.744  0.00  0.00     0.088 C 
HETATM   21  C   UNK N   1      22.647  12.744   5.523  0.00  0.00     0.055 C 
HETATM   22  C   UNK N   1      21.491  12.463   6.493  0.00  0.00     0.274 C 
HETATM   23  N   UNK N   1      21.882  12.702   7.887  0.00  0.00     0.088 N 
HETATM   24  C   UNK N   1      22.214  14.126   8.042  0.00  0.00     0.274 C 
HETATM   25  C   UNK N   1      23.432  14.516   7.205  0.00  0.00     0.055 C 
BRANCH  23  26
HETATM   26  C   UNK N   1      22.963  11.766   8.258  0.00  0.00     0.277 C 
BRANCH  26  27
HETATM   27  C   UNK N   1      23.081  11.509   9.761  0.00  0.00     0.017 C 
HETATM   28  C   UNK N   1      24.290  12.247  10.314  0.00  0.00     0.010 C 
HETATM   29  C   UNK N   1      24.455  11.950  11.808  0.00  0.00     0.027 C 
HETATM   30  C   UNK N   1      23.152  11.949  12.573  0.00  0.00    -0.031 C 
HETATM   31  C   UNK N   1      21.959  11.995  11.963  0.00  0.00    -0.030 C 
HETATM   32  C   UNK N   1      21.837  12.052  10.468  0.00  0.00     0.033 C 
ENDBRANCH  26  27
ENDBRANCH  23  26
ENDBRANCH   2  20
TORSDOF 8
ENDMDL
