MODEL 1
REMARK VINA RESULT:      -7.1      0.000      0.000
REMARK  25 active torsions:
REMARK  status: ('A' for Active; 'I' for Inactive)
REMARK    1  A    between atoms: C_1  and  O_7 
REMARK    2  A    between atoms: C_60  and  C_2 
REMARK    3  A    between atoms: C_4  and  C_12 
REMARK    4  A    between atoms: C_6  and  C_20 
REMARK    5  A    between atoms: O_7  and  C_8 
REMARK    6  A    between atoms: C_8  and  C_9 
REMARK    7  A    between atoms: C_9  and  O_10 
REMARK    8  A    between atoms: C_12  and  C_15 
REMARK    9  A    between atoms: C_15  and  C_16 
REMARK   10  A    between atoms: C_22  and  C_20 
REMARK   11  A    between atoms: C_21  and  O_27 
REMARK   12  A    between atoms: C_24  and  C_32 
REMARK   13  A    between atoms: O_27  and  C_28 
REMARK   14  A    between atoms: C_28  and  C_29 
REMARK   15  A    between atoms: C_29  and  O_30 
REMARK   16  A    between atoms: C_32  and  C_35 
REMARK   17  A    between atoms: C_35  and  C_36 
REMARK   18  A    between atoms: C_41  and  O_47 
REMARK   19  A    between atoms: C_44  and  C_52 
REMARK   20  A    between atoms: C_46  and  C_60 
REMARK   21  A    between atoms: O_47  and  C_48 
REMARK   22  A    between atoms: C_48  and  C_49 
REMARK   23  A    between atoms: C_49  and  O_50 
REMARK   24  A    between atoms: C_52  and  C_55 
REMARK   25  A    between atoms: C_55  and  C_56 
ROOT
HETATM    1  C   UNK N   1      22.515  16.102   5.762  0.00  0.00     0.082 A 
HETATM    2  C   UNK N   1      22.211  17.116   4.808  0.00  0.00    -0.019 A 
HETATM    3  C   UNK N   1      23.237  17.897   4.306  0.00  0.00     0.018 A 
HETATM    4  C   UNK N   1      24.560  17.677   4.631  0.00  0.00    -0.049 A 
HETATM    5  C   UNK N   1      24.881  16.621   5.464  0.00  0.00     0.018 A 
HETATM    6  C   UNK N   1      23.904  15.844   6.065  0.00  0.00    -0.019 A 
ENDROOT
BRANCH   6   7
HETATM    7  C   UNK N   1      24.393  14.771   7.015  0.00  0.00     0.083 C 
BRANCH   7   8
HETATM    8  C   UNK N   1      24.549  13.344   6.463  0.00  0.00    -0.019 A 
HETATM    9  C   UNK N   1      24.118  12.272   7.268  0.00  0.00     0.081 A 
HETATM   10  C   UNK N   1      24.228  10.945   6.775  0.00  0.00    -0.028 A 
HETATM   11  C   UNK N   1      24.816  10.698   5.541  0.00  0.00     0.017 A 
HETATM   12  C   UNK N   1      23.736   9.777   7.558  0.00  0.00     0.051 C 
HETATM   13  C   UNK N   1      25.279  11.738   4.735  0.00  0.00    -0.049 A 
HETATM   14  C   UNK N   1      25.128  13.065   5.202  0.00  0.00     0.018 A 
BRANCH   9  15
HETATM   15  O   UNK N   1      23.638  12.538   8.501  0.00  0.00    -0.348 OA
BRANCH  15  16
HETATM   16  C   UNK N   1      24.481  12.793   9.563  0.00  0.00     0.201 C 
BRANCH  16  17
HETATM   17  C   UNK N   1      24.019  12.069  10.808  0.00  0.00     0.190 C 
BRANCH  17  18
HETATM   18  O   UNK N   1      24.941  12.263  11.832  0.00  0.00    -0.399 OA
HETATM   19  H   UNK N   1      25.824  12.200  11.390  0.00  0.00     0.209 HD
ENDBRANCH  17  18
ENDBRANCH  16  17
ENDBRANCH  15  16
ENDBRANCH   9  15
BRANCH  13  20
HETATM   20  C   UNK N   1      26.122  11.396   3.505  0.00  0.00    -0.020 C 
HETATM   21  C   UNK N   1      25.399  10.266   2.798  0.00  0.00     0.020 C 
HETATM   22  C   UNK N   1      27.482  10.858   3.850  0.00  0.00     0.020 C 
BRANCH  20  23
HETATM   23  C   UNK N   1      26.252  12.522   2.454  0.00  0.00     0.022 C 
BRANCH  23  24
HETATM   24  C   UNK N   1      27.396  13.547   2.515  0.00  0.00    -0.050 C 
HETATM   25  C   UNK N   1      26.848  14.865   2.011  0.00  0.00     0.014 C 
HETATM   26  C   UNK N   1      28.555  13.180   1.603  0.00  0.00     0.014 C 
HETATM   27  C   UNK N   1      27.894  13.734   3.932  0.00  0.00     0.014 C 
ENDBRANCH  23  24
ENDBRANCH  20  23
ENDBRANCH  13  20
ENDBRANCH   7   8
ENDBRANCH   6   7
BRANCH   1  28
HETATM   28  O   UNK N   1      21.488  15.447   6.361  0.00  0.00    -0.348 OA
BRANCH  28  29
HETATM   29  C   UNK N   1      20.996  15.772   7.607  0.00  0.00     0.201 C 
BRANCH  29  30
HETATM   30  C   UNK N   1      20.746  14.526   8.429  0.00  0.00     0.190 C 
BRANCH  30  31
HETATM   31  O   UNK N   1      20.792  13.408   7.596  0.00  0.00    -0.399 OA
HETATM   32  H   UNK N   1      19.867  13.055   7.601  0.00  0.00     0.209 HD
ENDBRANCH  30  31
ENDBRANCH  29  30
ENDBRANCH  28  29
ENDBRANCH   1  28
BRANCH   4  33
HETATM   33  C   UNK N   1      25.616  18.673   4.267  0.00  0.00    -0.020 C 
HETATM   34  C   UNK N   1      25.592  19.719   5.354  0.00  0.00     0.020 C 
HETATM   35  C   UNK N   1      25.270  19.424   3.016  0.00  0.00     0.020 C 
BRANCH  33  36
HETATM   36  C   UNK N   1      26.978  17.983   4.070  0.00  0.00     0.022 C 
BRANCH  36  37
HETATM   37  C   UNK N   1      28.165  18.407   4.955  0.00  0.00    -0.050 C 
HETATM   38  C   UNK N   1      28.440  19.873   4.715  0.00  0.00     0.014 C 
HETATM   39  C   UNK N   1      27.946  18.219   6.450  0.00  0.00     0.014 C 
HETATM   40  C   UNK N   1      29.386  17.626   4.522  0.00  0.00     0.014 C 
ENDBRANCH  36  37
ENDBRANCH  33  36
ENDBRANCH   4  33
BRANCH   2  41
HETATM   41  C   UNK N   1      20.800  17.486   4.393  0.00  0.00     0.083 C 
BRANCH  41  42
HETATM   42  C   UNK N   1      20.424  17.003   2.989  0.00  0.00    -0.020 A 
HETATM   43  C   UNK N   1      20.411  15.612   2.727  0.00  0.00     0.018 A 
HETATM   44  C   UNK N   1      20.042  15.094   1.475  0.00  0.00    -0.050 A 
HETATM   45  C   UNK N   1      19.746  15.997   0.446  0.00  0.00     0.011 A 
HETATM   46  C   UNK N   1      19.789  17.372   0.668  0.00  0.00     0.038 A 
HETATM   47  C   UNK N   1      20.094  17.898   1.929  0.00  0.00     0.075 A 
BRANCH  44  48
HETATM   48  C   UNK N   1      19.866  13.595   1.229  0.00  0.00    -0.020 C 
HETATM   49  C   UNK N   1      19.752  12.926   2.594  0.00  0.00     0.020 C 
HETATM   50  C   UNK N   1      18.576  13.361   0.461  0.00  0.00     0.020 C 
BRANCH  48  51
HETATM   51  C   UNK N   1      21.028  12.970   0.414  0.00  0.00     0.022 C 
BRANCH  51  52
HETATM   52  C   UNK N   1      22.459  12.935   1.019  0.00  0.00    -0.050 C 
HETATM   53  C   UNK N   1      23.267  11.874   0.295  0.00  0.00     0.014 C 
HETATM   54  C   UNK N   1      22.469  12.580   2.492  0.00  0.00     0.014 C 
HETATM   55  C   UNK N   1      23.166  14.268   0.829  0.00  0.00     0.014 C 
ENDBRANCH  51  52
ENDBRANCH  48  51
ENDBRANCH  44  48
BRANCH  47  56
HETATM   56  O   UNK N   1      20.046  19.248   2.060  0.00  0.00    -0.348 OA
BRANCH  56  57
HETATM   57  C   UNK N   1      21.094  20.102   1.820  0.00  0.00     0.201 C 
BRANCH  57  58
HETATM   58  C   UNK N   1      20.855  20.881   0.545  0.00  0.00     0.190 C 
BRANCH  58  59
HETATM   59  O   UNK N   1      20.537  22.199   0.868  0.00  0.00    -0.399 OA
HETATM   60  H   UNK N   1      20.427  22.654  -0.005  0.00  0.00     0.209 HD
ENDBRANCH  58  59
ENDBRANCH  57  58
ENDBRANCH  56  57
ENDBRANCH  47  56
ENDBRANCH  41  42
ENDBRANCH   2  41
TORSDOF 25
ENDMDL
MODEL 2
REMARK VINA RESULT:      -6.9      3.019      8.807
REMARK  25 active torsions:
REMARK  status: ('A' for Active; 'I' for Inactive)
REMARK    1  A    between atoms: C_1  and  O_7 
REMARK    2  A    between atoms: C_60  and  C_2 
REMARK    3  A    between atoms: C_4  and  C_12 
REMARK    4  A    between atoms: C_6  and  C_20 
REMARK    5  A    between atoms: O_7  and  C_8 
REMARK    6  A    between atoms: C_8  and  C_9 
REMARK    7  A    between atoms: C_9  and  O_10 
REMARK    8  A    between atoms: C_12  and  C_15 
REMARK    9  A    between atoms: C_15  and  C_16 
REMARK   10  A    between atoms: C_22  and  C_20 
REMARK   11  A    between atoms: C_21  and  O_27 
REMARK   12  A    between atoms: C_24  and  C_32 
REMARK   13  A    between atoms: O_27  and  C_28 
REMARK   14  A    between atoms: C_28  and  C_29 
REMARK   15  A    between atoms: C_29  and  O_30 
REMARK   16  A    between atoms: C_32  and  C_35 
REMARK   17  A    between atoms: C_35  and  C_36 
REMARK   18  A    between atoms: C_41  and  O_47 
REMARK   19  A    between atoms: C_44  and  C_52 
REMARK   20  A    between atoms: C_46  and  C_60 
REMARK   21  A    between atoms: O_47  and  C_48 
REMARK   22  A    between atoms: C_48  and  C_49 
REMARK   23  A    between atoms: C_49  and  O_50 
REMARK   24  A    between atoms: C_52  and  C_55 
REMARK   25  A    between atoms: C_55  and  C_56 
ROOT
HETATM    1  C   UNK N   1      26.826  18.342   4.896  0.00  0.00     0.082 A 
HETATM    2  C   UNK N   1      28.014  17.857   4.275  0.00  0.00    -0.019 A 
HETATM    3  C   UNK N   1      27.936  16.758   3.438  0.00  0.00     0.018 A 
HETATM    4  C   UNK N   1      26.736  16.160   3.113  0.00  0.00    -0.049 A 
HETATM    5  C   UNK N   1      25.562  16.693   3.615  0.00  0.00     0.018 A 
HETATM    6  C   UNK N   1      25.567  17.743   4.518  0.00  0.00    -0.019 A 
ENDROOT
BRANCH   6   7
HETATM    7  C   UNK N   1      24.215  18.177   5.047  0.00  0.00     0.083 C 
BRANCH   7   8
HETATM    8  C   UNK N   1      23.109  17.112   5.141  0.00  0.00    -0.019 A 
HETATM    9  C   UNK N   1      21.974  17.263   4.321  0.00  0.00     0.081 A 
HETATM   10  C   UNK N   1      20.947  16.284   4.369  0.00  0.00    -0.028 A 
HETATM   11  C   UNK N   1      21.026  15.223   5.262  0.00  0.00     0.017 A 
HETATM   12  C   UNK N   1      19.752  16.361   3.483  0.00  0.00     0.051 C 
HETATM   13  C   UNK N   1      22.124  15.064   6.107  0.00  0.00    -0.049 A 
HETATM   14  C   UNK N   1      23.172  16.012   6.029  0.00  0.00     0.018 A 
BRANCH   9  15
HETATM   15  O   UNK N   1      21.884  18.355   3.532  0.00  0.00    -0.348 OA
BRANCH  15  16
HETATM   16  C   UNK N   1      21.076  19.421   3.868  0.00  0.00     0.201 C 
BRANCH  16  17
HETATM   17  C   UNK N   1      21.211  20.542   2.862  0.00  0.00     0.190 C 
BRANCH  17  18
HETATM   18  O   UNK N   1      22.524  21.006   2.851  0.00  0.00    -0.399 OA
HETATM   19  H   UNK N   1      23.048  20.286   3.283  0.00  0.00     0.209 HD
ENDBRANCH  17  18
ENDBRANCH  16  17
ENDBRANCH  15  16
ENDBRANCH   9  15
BRANCH  13  20
HETATM   20  C   UNK N   1      22.049  14.021   7.223  0.00  0.00    -0.020 C 
HETATM   21  C   UNK N   1      20.965  14.496   8.172  0.00  0.00     0.020 C 
HETATM   22  C   UNK N   1      23.304  13.941   8.045  0.00  0.00     0.020 C 
BRANCH  20  23
HETATM   23  C   UNK N   1      21.616  12.604   6.782  0.00  0.00     0.022 C 
BRANCH  23  24
HETATM   24  C   UNK N   1      22.445  11.792   5.773  0.00  0.00    -0.050 C 
HETATM   25  C   UNK N   1      22.606  10.399   6.341  0.00  0.00     0.014 C 
HETATM   26  C   UNK N   1      23.845  12.351   5.586  0.00  0.00     0.014 C 
HETATM   27  C   UNK N   1      21.744  11.697   4.434  0.00  0.00     0.014 C 
ENDBRANCH  23  24
ENDBRANCH  20  23
ENDBRANCH  13  20
ENDBRANCH   7   8
ENDBRANCH   6   7
BRANCH   1  28
HETATM   28  O   UNK N   1      26.936  19.319   5.831  0.00  0.00    -0.348 OA
BRANCH  28  29
HETATM   29  C   UNK N   1      26.728  20.656   5.569  0.00  0.00     0.201 C 
BRANCH  29  30
HETATM   30  C   UNK N   1      26.553  21.436   6.854  0.00  0.00     0.190 C 
BRANCH  30  31
HETATM   31  O   UNK N   1      26.306  20.548   7.901  0.00  0.00    -0.399 OA
HETATM   32  H   UNK N   1      25.396  20.780   8.216  0.00  0.00     0.209 HD
ENDBRANCH  30  31
ENDBRANCH  29  30
ENDBRANCH  28  29
ENDBRANCH   1  28
BRANCH   4  33
HETATM   33  C   UNK N   1      26.701  14.842   2.405  0.00  0.00    -0.020 C 
HETATM   34  C   UNK N   1      26.586  13.794   3.484  0.00  0.00     0.020 C 
HETATM   35  C   UNK N   1      28.001  14.539   1.723  0.00  0.00     0.020 C 
BRANCH  33  36
HETATM   36  C   UNK N   1      25.573  14.811   1.357  0.00  0.00     0.022 C 
BRANCH  36  37
HETATM   37  C   UNK N   1      24.448  13.768   1.501  0.00  0.00    -0.050 C 
HETATM   38  C   UNK N   1      23.759  13.622   0.164  0.00  0.00     0.014 C 
HETATM   39  C   UNK N   1      24.912  12.384   1.932  0.00  0.00     0.014 C 
HETATM   40  C   UNK N   1      23.436  14.292   2.493  0.00  0.00     0.014 C 
ENDBRANCH  36  37
ENDBRANCH  33  36
ENDBRANCH   4  33
BRANCH   2  41
HETATM   41  C   UNK N   1      29.400  18.397   4.573  0.00  0.00     0.083 C 
BRANCH  41  42
HETATM   42  C   UNK N   1      30.293  17.412   5.334  0.00  0.00    -0.020 A 
HETATM   43  C   UNK N   1      31.168  16.576   4.599  0.00  0.00     0.018 A 
HETATM   44  C   UNK N   1      32.041  15.675   5.230  0.00  0.00    -0.050 A 
HETATM   45  C   UNK N   1      31.985  15.565   6.625  0.00  0.00     0.011 A 
HETATM   46  C   UNK N   1      31.104  16.349   7.368  0.00  0.00     0.038 A 
HETATM   47  C   UNK N   1      30.274  17.295   6.755  0.00  0.00     0.075 A 
BRANCH  44  48
HETATM   48  C   UNK N   1      33.102  14.888   4.459  0.00  0.00    -0.020 C 
HETATM   49  C   UNK N   1      33.105  15.418   3.030  0.00  0.00     0.020 C 
HETATM   50  C   UNK N   1      34.466  15.147   5.078  0.00  0.00     0.020 C 
BRANCH  48  51
HETATM   51  C   UNK N   1      32.855  13.358   4.470  0.00  0.00     0.022 C 
BRANCH  51  52
HETATM   52  C   UNK N   1      31.571  12.783   3.809  0.00  0.00    -0.050 C 
HETATM   53  C   UNK N   1      31.462  13.332   2.399  0.00  0.00     0.014 C 
HETATM   54  C   UNK N   1      30.304  13.173   4.543  0.00  0.00     0.014 C 
HETATM   55  C   UNK N   1      31.638  11.266   3.715  0.00  0.00     0.014 C 
ENDBRANCH  51  52
ENDBRANCH  48  51
ENDBRANCH  44  48
BRANCH  47  56
HETATM   56  O   UNK N   1      29.501  18.055   7.571  0.00  0.00    -0.348 OA
BRANCH  56  57
HETATM   57  C   UNK N   1      29.668  18.177   8.928  0.00  0.00     0.201 C 
BRANCH  57  58
HETATM   58  C   UNK N   1      28.523  17.514   9.660  0.00  0.00     0.190 C 
BRANCH  58  59
HETATM   59  O   UNK N   1      27.337  18.177   9.350  0.00  0.00    -0.399 OA
HETATM   60  H   UNK N   1      27.372  18.314   8.369  0.00  0.00     0.209 HD
ENDBRANCH  58  59
ENDBRANCH  57  58
ENDBRANCH  56  57
ENDBRANCH  47  56
ENDBRANCH  41  42
ENDBRANCH   2  41
TORSDOF 25
ENDMDL
MODEL 3
REMARK VINA RESULT:      -6.9      3.167      6.425
REMARK  25 active torsions:
REMARK  status: ('A' for Active; 'I' for Inactive)
REMARK    1  A    between atoms: C_1  and  O_7 
REMARK    2  A    between atoms: C_60  and  C_2 
REMARK    3  A    between atoms: C_4  and  C_12 
REMARK    4  A    between atoms: C_6  and  C_20 
REMARK    5  A    between atoms: O_7  and  C_8 
REMARK    6  A    between atoms: C_8  and  C_9 
REMARK    7  A    between atoms: C_9  and  O_10 
REMARK    8  A    between atoms: C_12  and  C_15 
REMARK    9  A    between atoms: C_15  and  C_16 
REMARK   10  A    between atoms: C_22  and  C_20 
REMARK   11  A    between atoms: C_21  and  O_27 
REMARK   12  A    between atoms: C_24  and  C_32 
REMARK   13  A    between atoms: O_27  and  C_28 
REMARK   14  A    between atoms: C_28  and  C_29 
REMARK   15  A    between atoms: C_29  and  O_30 
REMARK   16  A    between atoms: C_32  and  C_35 
REMARK   17  A    between atoms: C_35  and  C_36 
REMARK   18  A    between atoms: C_41  and  O_47 
REMARK   19  A    between atoms: C_44  and  C_52 
REMARK   20  A    between atoms: C_46  and  C_60 
REMARK   21  A    between atoms: O_47  and  C_48 
REMARK   22  A    between atoms: C_48  and  C_49 
REMARK   23  A    between atoms: C_49  and  O_50 
REMARK   24  A    between atoms: C_52  and  C_55 
REMARK   25  A    between atoms: C_55  and  C_56 
ROOT
HETATM    1  C   UNK N   1      27.230  18.637   4.659  0.00  0.00     0.082 A 
HETATM    2  C   UNK N   1      25.922  18.130   4.408  0.00  0.00    -0.019 A 
HETATM    3  C   UNK N   1      25.784  16.885   3.819  0.00  0.00     0.018 A 
HETATM    4  C   UNK N   1      26.866  16.076   3.542  0.00  0.00    -0.049 A 
HETATM    5  C   UNK N   1      28.134  16.505   3.889  0.00  0.00     0.018 A 
HETATM    6  C   UNK N   1      28.358  17.769   4.410  0.00  0.00    -0.019 A 
ENDROOT
BRANCH   6   7
HETATM    7  C   UNK N   1      29.802  18.138   4.673  0.00  0.00     0.083 C 
BRANCH   7   8
HETATM    8  C   UNK N   1      30.731  17.044   5.225  0.00  0.00    -0.019 A 
HETATM    9  C   UNK N   1      30.817  16.892   6.623  0.00  0.00     0.081 A 
HETATM   10  C   UNK N   1      31.649  15.875   7.162  0.00  0.00    -0.028 A 
HETATM   11  C   UNK N   1      32.422  15.080   6.325  0.00  0.00     0.017 A 
HETATM   12  C   UNK N   1      31.734  15.631   8.629  0.00  0.00     0.051 C 
HETATM   13  C   UNK N   1      32.380  15.228   4.938  0.00  0.00    -0.049 A 
HETATM   14  C   UNK N   1      31.516  16.209   4.396  0.00  0.00     0.018 A 
BRANCH   9  15
HETATM   15  O   UNK N   1      30.126  17.742   7.412  0.00  0.00    -0.348 OA
BRANCH  15  16
HETATM   16  C   UNK N   1      28.943  17.366   8.013  0.00  0.00     0.201 C 
BRANCH  16  17
HETATM   17  C   UNK N   1      28.685  18.183   9.259  0.00  0.00     0.190 C 
BRANCH  17  18
HETATM   18  O   UNK N   1      27.318  18.412   9.395  0.00  0.00    -0.399 OA
HETATM   19  H   UNK N   1      27.079  18.971   8.614  0.00  0.00     0.209 HD
ENDBRANCH  17  18
ENDBRANCH  16  17
ENDBRANCH  15  16
ENDBRANCH   9  15
BRANCH  13  20
HETATM   20  C   UNK N   1      33.418  14.493   4.088  0.00  0.00    -0.020 C 
HETATM   21  C   UNK N   1      34.732  14.604   4.837  0.00  0.00     0.020 C 
HETATM   22  C   UNK N   1      33.654  15.139   2.753  0.00  0.00     0.020 C 
BRANCH  20  23
HETATM   23  C   UNK N   1      33.176  12.978   3.906  0.00  0.00     0.022 C 
BRANCH  23  24
HETATM   24  C   UNK N   1      31.821  12.435   3.422  0.00  0.00    -0.050 C 
HETATM   25  C   UNK N   1      32.029  10.988   3.030  0.00  0.00     0.014 C 
HETATM   26  C   UNK N   1      31.316  13.153   2.181  0.00  0.00     0.014 C 
HETATM   27  C   UNK N   1      30.777  12.501   4.516  0.00  0.00     0.014 C 
ENDBRANCH  23  24
ENDBRANCH  20  23
ENDBRANCH  13  20
ENDBRANCH   7   8
ENDBRANCH   6   7
BRANCH   1  28
HETATM   28  O   UNK N   1      27.356  19.917   5.092  0.00  0.00    -0.348 OA
BRANCH  28  29
HETATM   29  C   UNK N   1      27.547  20.264   6.412  0.00  0.00     0.201 C 
BRANCH  29  30
HETATM   30  C   UNK N   1      26.466  21.213   6.882  0.00  0.00     0.190 C 
BRANCH  30  31
HETATM   31  O   UNK N   1      25.979  20.781   8.115  0.00  0.00    -0.399 OA
HETATM   32  H   UNK N   1      25.460  21.549   8.462  0.00  0.00     0.209 HD
ENDBRANCH  30  31
ENDBRANCH  29  30
ENDBRANCH  28  29
ENDBRANCH   1  28
BRANCH   4  33
HETATM   33  C   UNK N   1      26.712  14.849   2.698  0.00  0.00    -0.020 C 
HETATM   34  C   UNK N   1      26.659  13.688   3.659  0.00  0.00     0.020 C 
HETATM   35  C   UNK N   1      27.929  14.589   1.861  0.00  0.00     0.020 C 
BRANCH  33  36
HETATM   36  C   UNK N   1      25.490  14.970   1.770  0.00  0.00     0.022 C 
BRANCH  36  37
HETATM   37  C   UNK N   1      24.418  13.864   1.797  0.00  0.00    -0.050 C 
HETATM   38  C   UNK N   1      23.417  14.143   0.700  0.00  0.00     0.014 C 
HETATM   39  C   UNK N   1      24.951  12.454   1.583  0.00  0.00     0.014 C 
HETATM   40  C   UNK N   1      23.692  13.934   3.121  0.00  0.00     0.014 C 
ENDBRANCH  36  37
ENDBRANCH  33  36
ENDBRANCH   4  33
BRANCH   2  41
HETATM   41  C   UNK N   1      24.652  18.930   4.629  0.00  0.00     0.083 C 
BRANCH  41  42
HETATM   42  C   UNK N   1      23.376  18.083   4.584  0.00  0.00    -0.020 A 
HETATM   43  C   UNK N   1      23.230  17.021   5.507  0.00  0.00     0.018 A 
HETATM   44  C   UNK N   1      22.073  16.225   5.550  0.00  0.00    -0.050 A 
HETATM   45  C   UNK N   1      21.073  16.461   4.599  0.00  0.00     0.011 A 
HETATM   46  C   UNK N   1      21.210  17.476   3.655  0.00  0.00     0.038 A 
HETATM   47  C   UNK N   1      22.330  18.315   3.644  0.00  0.00     0.075 A 
BRANCH  44  48
HETATM   48  C   UNK N   1      21.836  15.184   6.645  0.00  0.00    -0.020 C 
HETATM   49  C   UNK N   1      21.153  15.900   7.805  0.00  0.00     0.020 C 
HETATM   50  C   UNK N   1      20.902  14.107   6.118  0.00  0.00     0.020 C 
BRANCH  48  51
HETATM   51  C   UNK N   1      23.139  14.495   7.124  0.00  0.00     0.022 C 
BRANCH  51  52
HETATM   52  C   UNK N   1      23.071  13.420   8.246  0.00  0.00    -0.050 C 
HETATM   53  C   UNK N   1      22.566  12.122   7.645  0.00  0.00     0.014 C 
HETATM   54  C   UNK N   1      22.125  13.795   9.367  0.00  0.00     0.014 C 
HETATM   55  C   UNK N   1      24.450  13.156   8.832  0.00  0.00     0.014 C 
ENDBRANCH  51  52
ENDBRANCH  48  51
ENDBRANCH  44  48
BRANCH  47  56
HETATM   56  O   UNK N   1      22.340  19.316   2.726  0.00  0.00    -0.348 OA
BRANCH  56  57
HETATM   57  C   UNK N   1      21.563  20.447   2.785  0.00  0.00     0.201 C 
BRANCH  57  58
HETATM   58  C   UNK N   1      20.704  20.559   1.545  0.00  0.00     0.190 C 
BRANCH  58  59
HETATM   59  O   UNK N   1      21.527  20.743   0.434  0.00  0.00    -0.399 OA
HETATM   60  H   UNK N   1      21.305  21.650   0.103  0.00  0.00     0.209 HD
ENDBRANCH  58  59
ENDBRANCH  57  58
ENDBRANCH  56  57
ENDBRANCH  47  56
ENDBRANCH  41  42
ENDBRANCH   2  41
TORSDOF 25
ENDMDL
MODEL 4
REMARK VINA RESULT:      -6.8      1.869      5.579
REMARK  25 active torsions:
REMARK  status: ('A' for Active; 'I' for Inactive)
REMARK    1  A    between atoms: C_1  and  O_7 
REMARK    2  A    between atoms: C_60  and  C_2 
REMARK    3  A    between atoms: C_4  and  C_12 
REMARK    4  A    between atoms: C_6  and  C_20 
REMARK    5  A    between atoms: O_7  and  C_8 
REMARK    6  A    between atoms: C_8  and  C_9 
REMARK    7  A    between atoms: C_9  and  O_10 
REMARK    8  A    between atoms: C_12  and  C_15 
REMARK    9  A    between atoms: C_15  and  C_16 
REMARK   10  A    between atoms: C_22  and  C_20 
REMARK   11  A    between atoms: C_21  and  O_27 
REMARK   12  A    between atoms: C_24  and  C_32 
REMARK   13  A    between atoms: O_27  and  C_28 
REMARK   14  A    between atoms: C_28  and  C_29 
REMARK   15  A    between atoms: C_29  and  O_30 
REMARK   16  A    between atoms: C_32  and  C_35 
REMARK   17  A    between atoms: C_35  and  C_36 
REMARK   18  A    between atoms: C_41  and  O_47 
REMARK   19  A    between atoms: C_44  and  C_52 
REMARK   20  A    between atoms: C_46  and  C_60 
REMARK   21  A    between atoms: O_47  and  C_48 
REMARK   22  A    between atoms: C_48  and  C_49 
REMARK   23  A    between atoms: C_49  and  O_50 
REMARK   24  A    between atoms: C_52  and  C_55 
REMARK   25  A    between atoms: C_55  and  C_56 
ROOT
HETATM    1  C   UNK N   1      20.798  15.608   5.572  0.00  0.00     0.082 A 
HETATM    2  C   UNK N   1      20.859  16.369   4.369  0.00  0.00    -0.019 A 
HETATM    3  C   UNK N   1      20.997  15.709   3.161  0.00  0.00     0.018 A 
HETATM    4  C   UNK N   1      20.993  14.332   3.068  0.00  0.00    -0.049 A 
HETATM    5  C   UNK N   1      20.815  13.581   4.215  0.00  0.00     0.018 A 
HETATM    6  C   UNK N   1      20.747  14.169   5.468  0.00  0.00    -0.019 A 
ENDROOT
BRANCH   6   7
HETATM    7  C   UNK N   1      20.630  13.223   6.645  0.00  0.00     0.083 C 
BRANCH   7   8
HETATM    8  C   UNK N   1      21.843  12.336   6.974  0.00  0.00    -0.019 A 
HETATM    9  C   UNK N   1      22.514  12.559   8.191  0.00  0.00     0.081 A 
HETATM   10  C   UNK N   1      23.624  11.741   8.533  0.00  0.00    -0.028 A 
HETATM   11  C   UNK N   1      24.086  10.774   7.648  0.00  0.00     0.017 A 
HETATM   12  C   UNK N   1      24.336  11.892   9.832  0.00  0.00     0.051 C 
HETATM   13  C   UNK N   1      23.458  10.552   6.422  0.00  0.00    -0.049 A 
HETATM   14  C   UNK N   1      22.324  11.333   6.099  0.00  0.00     0.018 A 
BRANCH   9  15
HETATM   15  O   UNK N   1      22.100  13.567   8.987  0.00  0.00    -0.348 OA
BRANCH  15  16
HETATM   16  C   UNK N   1      21.764  13.352  10.307  0.00  0.00     0.201 C 
BRANCH  16  17
HETATM   17  C   UNK N   1      20.307  12.969  10.440  0.00  0.00     0.190 C 
BRANCH  17  18
HETATM   18  O   UNK N   1      19.507  13.973   9.903  0.00  0.00    -0.399 OA
HETATM   19  H   UNK N   1      18.675  13.943  10.438  0.00  0.00     0.209 HD
ENDBRANCH  17  18
ENDBRANCH  16  17
ENDBRANCH  15  16
ENDBRANCH   9  15
BRANCH  13  20
HETATM   20  C   UNK N   1      24.145   9.648   5.397  0.00  0.00    -0.020 C 
HETATM   21  C   UNK N   1      25.390  10.388   4.947  0.00  0.00     0.020 C 
HETATM   22  C   UNK N   1      23.328   9.432   4.155  0.00  0.00     0.020 C 
BRANCH  20  23
HETATM   23  C   UNK N   1      24.649   8.291   5.940  0.00  0.00     0.022 C 
BRANCH  23  24
HETATM   24  C   UNK N   1      23.669   7.189   6.378  0.00  0.00    -0.050 C 
HETATM   25  C   UNK N   1      23.902   5.995   5.479  0.00  0.00     0.014 C 
HETATM   26  C   UNK N   1      22.216   7.596   6.193  0.00  0.00     0.014 C 
HETATM   27  C   UNK N   1      23.910   6.776   7.814  0.00  0.00     0.014 C 
ENDBRANCH  23  24
ENDBRANCH  20  23
ENDBRANCH  13  20
ENDBRANCH   7   8
ENDBRANCH   6   7
BRANCH   1  28
HETATM   28  O   UNK N   1      20.818  16.269   6.758  0.00  0.00    -0.348 OA
BRANCH  28  29
HETATM   29  C   UNK N   1      19.687  16.588   7.477  0.00  0.00     0.201 C 
BRANCH  29  30
HETATM   30  C   UNK N   1      20.049  17.251   8.787  0.00  0.00     0.190 C 
BRANCH  30  31
HETATM   31  O   UNK N   1      19.141  18.276   9.050  0.00  0.00    -0.399 OA
HETATM   32  H   UNK N   1      18.681  18.430   8.187  0.00  0.00     0.209 HD
ENDBRANCH  30  31
ENDBRANCH  29  30
ENDBRANCH  28  29
ENDBRANCH   1  28
BRANCH   4  33
HETATM   33  C   UNK N   1      21.377  13.647   1.793  0.00  0.00    -0.020 C 
HETATM   34  C   UNK N   1      21.596  14.745   0.782  0.00  0.00     0.020 C 
HETATM   35  C   UNK N   1      20.247  12.838   1.230  0.00  0.00     0.020 C 
BRANCH  33  36
HETATM   36  C   UNK N   1      22.589  12.723   2.010  0.00  0.00     0.022 C 
BRANCH  36  37
HETATM   37  C   UNK N   1      23.720  12.716   0.964  0.00  0.00    -0.050 C 
HETATM   38  C   UNK N   1      24.920  12.020   1.564  0.00  0.00     0.014 C 
HETATM   39  C   UNK N   1      23.381  12.005  -0.338  0.00  0.00     0.014 C 
HETATM   40  C   UNK N   1      24.108  14.147   0.672  0.00  0.00     0.014 C 
ENDBRANCH  36  37
ENDBRANCH  33  36
ENDBRANCH   4  33
BRANCH   2  41
HETATM   41  C   UNK N   1      20.912  17.885   4.333  0.00  0.00     0.083 C 
BRANCH  41  42
HETATM   42  C   UNK N   1      22.301  18.445   4.016  0.00  0.00    -0.020 A 
HETATM   43  C   UNK N   1      23.437  17.644   4.285  0.00  0.00     0.018 A 
HETATM   44  C   UNK N   1      24.740  18.076   3.988  0.00  0.00    -0.050 A 
HETATM   45  C   UNK N   1      24.908  19.366   3.471  0.00  0.00     0.011 A 
HETATM   46  C   UNK N   1      23.809  20.189   3.233  0.00  0.00     0.038 A 
HETATM   47  C   UNK N   1      22.502  19.745   3.467  0.00  0.00     0.075 A 
BRANCH  44  48
HETATM   48  C   UNK N   1      25.957  17.159   4.122  0.00  0.00    -0.020 C 
HETATM   49  C   UNK N   1      25.906  16.171   2.962  0.00  0.00     0.020 C 
HETATM   50  C   UNK N   1      27.225  17.988   4.001  0.00  0.00     0.020 C 
BRANCH  48  51
HETATM   51  C   UNK N   1      26.006  16.404   5.476  0.00  0.00     0.022 C 
BRANCH  51  52
HETATM   52  C   UNK N   1      25.310  15.021   5.609  0.00  0.00    -0.050 C 
HETATM   53  C   UNK N   1      24.316  15.086   6.754  0.00  0.00     0.014 C 
HETATM   54  C   UNK N   1      26.280  13.900   5.919  0.00  0.00     0.014 C 
HETATM   55  C   UNK N   1      24.541  14.672   4.344  0.00  0.00     0.014 C 
ENDBRANCH  51  52
ENDBRANCH  48  51
ENDBRANCH  44  48
BRANCH  47  56
HETATM   56  O   UNK N   1      21.496  20.597   3.140  0.00  0.00    -0.348 OA
BRANCH  56  57
HETATM   57  C   UNK N   1      20.598  20.403   2.120  0.00  0.00     0.201 C 
BRANCH  57  58
HETATM   58  C   UNK N   1      21.124  21.005   0.836  0.00  0.00     0.190 C 
BRANCH  58  59
HETATM   59  O   UNK N   1      20.481  20.405  -0.246  0.00  0.00    -0.399 OA
HETATM   60  H   UNK N   1      19.538  20.699  -0.175  0.00  0.00     0.209 HD
ENDBRANCH  58  59
ENDBRANCH  57  58
ENDBRANCH  56  57
ENDBRANCH  47  56
ENDBRANCH  41  42
ENDBRANCH   2  41
TORSDOF 25
ENDMDL
MODEL 5
REMARK VINA RESULT:      -6.8      1.682      5.722
REMARK  25 active torsions:
REMARK  status: ('A' for Active; 'I' for Inactive)
REMARK    1  A    between atoms: C_1  and  O_7 
REMARK    2  A    between atoms: C_60  and  C_2 
REMARK    3  A    between atoms: C_4  and  C_12 
REMARK    4  A    between atoms: C_6  and  C_20 
REMARK    5  A    between atoms: O_7  and  C_8 
REMARK    6  A    between atoms: C_8  and  C_9 
REMARK    7  A    between atoms: C_9  and  O_10 
REMARK    8  A    between atoms: C_12  and  C_15 
REMARK    9  A    between atoms: C_15  and  C_16 
REMARK   10  A    between atoms: C_22  and  C_20 
REMARK   11  A    between atoms: C_21  and  O_27 
REMARK   12  A    between atoms: C_24  and  C_32 
REMARK   13  A    between atoms: O_27  and  C_28 
REMARK   14  A    between atoms: C_28  and  C_29 
REMARK   15  A    between atoms: C_29  and  O_30 
REMARK   16  A    between atoms: C_32  and  C_35 
REMARK   17  A    between atoms: C_35  and  C_36 
REMARK   18  A    between atoms: C_41  and  O_47 
REMARK   19  A    between atoms: C_44  and  C_52 
REMARK   20  A    between atoms: C_46  and  C_60 
REMARK   21  A    between atoms: O_47  and  C_48 
REMARK   22  A    between atoms: C_48  and  C_49 
REMARK   23  A    between atoms: C_49  and  O_50 
REMARK   24  A    between atoms: C_52  and  C_55 
REMARK   25  A    between atoms: C_55  and  C_56 
ROOT
HETATM    1  C   UNK N   1      20.862  16.437   5.463  0.00  0.00     0.082 A 
HETATM    2  C   UNK N   1      20.885  17.347   4.366  0.00  0.00    -0.019 A 
HETATM    3  C   UNK N   1      20.604  16.878   3.096  0.00  0.00     0.018 A 
HETATM    4  C   UNK N   1      20.218  15.574   2.859  0.00  0.00    -0.049 A 
HETATM    5  C   UNK N   1      20.077  14.710   3.929  0.00  0.00     0.018 A 
HETATM    6  C   UNK N   1      20.414  15.086   5.219  0.00  0.00    -0.019 A 
ENDROOT
BRANCH   6   7
HETATM    7  C   UNK N   1      20.284  14.017   6.283  0.00  0.00     0.083 C 
BRANCH   7   8
HETATM    8  C   UNK N   1      21.441  13.015   6.436  0.00  0.00    -0.019 A 
HETATM    9  C   UNK N   1      22.193  13.049   7.626  0.00  0.00     0.081 A 
HETATM   10  C   UNK N   1      23.253  12.121   7.805  0.00  0.00    -0.028 A 
HETATM   11  C   UNK N   1      23.590  11.232   6.792  0.00  0.00     0.017 A 
HETATM   12  C   UNK N   1      24.044  12.072   9.066  0.00  0.00     0.051 C 
HETATM   13  C   UNK N   1      22.882  11.196   5.591  0.00  0.00    -0.049 A 
HETATM   14  C   UNK N   1      21.795  12.088   5.427  0.00  0.00     0.018 A 
BRANCH   9  15
HETATM   15  O   UNK N   1      21.900  13.987   8.552  0.00  0.00    -0.348 OA
BRANCH  15  16
HETATM   16  C   UNK N   1      21.895  13.692   9.899  0.00  0.00     0.201 C 
BRANCH  16  17
HETATM   17  C   UNK N   1      20.575  13.084  10.316  0.00  0.00     0.190 C 
BRANCH  17  18
HETATM   18  O   UNK N   1      19.526  13.852   9.817  0.00  0.00    -0.399 OA
HETATM   19  H   UNK N   1      18.911  13.197   9.403  0.00  0.00     0.209 HD
ENDBRANCH  17  18
ENDBRANCH  16  17
ENDBRANCH  15  16
ENDBRANCH   9  15
BRANCH  13  20
HETATM   20  C   UNK N   1      23.441  10.370   4.432  0.00  0.00    -0.020 C 
HETATM   21  C   UNK N   1      22.400   9.309   4.128  0.00  0.00     0.020 C 
HETATM   22  C   UNK N   1      24.693   9.620   4.789  0.00  0.00     0.020 C 
BRANCH  20  23
HETATM   23  C   UNK N   1      23.645  11.136   3.105  0.00  0.00     0.022 C 
BRANCH  23  24
HETATM   24  C   UNK N   1      24.542  12.383   3.030  0.00  0.00    -0.050 C 
HETATM   25  C   UNK N   1      23.692  13.573   3.419  0.00  0.00     0.014 C 
HETATM   26  C   UNK N   1      25.048  12.651   1.622  0.00  0.00     0.014 C 
HETATM   27  C   UNK N   1      25.710  12.280   3.987  0.00  0.00     0.014 C 
ENDBRANCH  23  24
ENDBRANCH  20  23
ENDBRANCH  13  20
ENDBRANCH   7   8
ENDBRANCH   6   7
BRANCH   1  28
HETATM   28  O   UNK N   1      21.288  16.873   6.675  0.00  0.00    -0.348 OA
BRANCH  28  29
HETATM   29  C   UNK N   1      20.533  17.664   7.514  0.00  0.00     0.201 C 
BRANCH  29  30
HETATM   30  C   UNK N   1      20.008  16.861   8.684  0.00  0.00     0.190 C 
BRANCH  30  31
HETATM   31  O   UNK N   1      18.761  16.330   8.355  0.00  0.00    -0.399 OA
HETATM   32  H   UNK N   1      18.951  15.673   7.638  0.00  0.00     0.209 HD
ENDBRANCH  30  31
ENDBRANCH  29  30
ENDBRANCH  28  29
ENDBRANCH   1  28
BRANCH   4  33
HETATM   33  C   UNK N   1      20.151  15.034   1.464  0.00  0.00    -0.020 C 
HETATM   34  C   UNK N   1      21.580  14.834   1.027  0.00  0.00     0.020 C 
HETATM   35  C   UNK N   1      19.602  16.043   0.499  0.00  0.00     0.020 C 
BRANCH  33  36
HETATM   36  C   UNK N   1      19.278  13.768   1.406  0.00  0.00     0.022 C 
BRANCH  36  37
HETATM   37  C   UNK N   1      19.946  12.413   1.106  0.00  0.00    -0.050 C 
HETATM   38  C   UNK N   1      19.093  11.672   0.102  0.00  0.00     0.014 C 
HETATM   39  C   UNK N   1      21.352  12.508   0.531  0.00  0.00     0.014 C 
HETATM   40  C   UNK N   1      19.976  11.602   2.381  0.00  0.00     0.014 C 
ENDBRANCH  36  37
ENDBRANCH  33  36
ENDBRANCH   4  33
BRANCH   2  41
HETATM   41  C   UNK N   1      21.329  18.794   4.481  0.00  0.00     0.083 C 
BRANCH  41  42
HETATM   42  C   UNK N   1      22.720  19.059   3.900  0.00  0.00    -0.020 A 
HETATM   43  C   UNK N   1      23.757  18.132   4.163  0.00  0.00     0.018 A 
HETATM   44  C   UNK N   1      25.049  18.290   3.634  0.00  0.00    -0.050 A 
HETATM   45  C   UNK N   1      25.320  19.438   2.881  0.00  0.00     0.011 A 
HETATM   46  C   UNK N   1      24.327  20.385   2.640  0.00  0.00     0.038 A 
HETATM   47  C   UNK N   1      23.020  20.207   3.109  0.00  0.00     0.075 A 
BRANCH  44  48
HETATM   48  C   UNK N   1      26.128  17.215   3.776  0.00  0.00    -0.020 C 
HETATM   49  C   UNK N   1      25.882  16.502   5.101  0.00  0.00     0.020 C 
HETATM   50  C   UNK N   1      25.985  16.209   2.646  0.00  0.00     0.020 C 
BRANCH  48  51
HETATM   51  C   UNK N   1      27.568  17.787   3.728  0.00  0.00     0.022 C 
BRANCH  51  52
HETATM   52  C   UNK N   1      28.179  18.440   4.999  0.00  0.00    -0.050 C 
HETATM   53  C   UNK N   1      29.620  17.986   5.135  0.00  0.00     0.014 C 
HETATM   54  C   UNK N   1      27.460  18.042   6.271  0.00  0.00     0.014 C 
HETATM   55  C   UNK N   1      28.178  19.957   4.888  0.00  0.00     0.014 C 
ENDBRANCH  51  52
ENDBRANCH  48  51
ENDBRANCH  44  48
BRANCH  47  56
HETATM   56  O   UNK N   1      22.108  21.152   2.766  0.00  0.00    -0.348 OA
BRANCH  56  57
HETATM   57  C   UNK N   1      20.881  20.899   2.205  0.00  0.00     0.201 C 
BRANCH  57  58
HETATM   58  C   UNK N   1      20.977  20.924   0.696  0.00  0.00     0.190 C 
BRANCH  58  59
HETATM   59  O   UNK N   1      20.560  19.694   0.191  0.00  0.00    -0.399 OA
HETATM   60  H   UNK N   1      20.560  19.811  -0.793  0.00  0.00     0.209 HD
ENDBRANCH  58  59
ENDBRANCH  57  58
ENDBRANCH  56  57
ENDBRANCH  47  56
ENDBRANCH  41  42
ENDBRANCH   2  41
TORSDOF 25
ENDMDL
MODEL 6
REMARK VINA RESULT:      -6.8      1.910      5.404
REMARK  25 active torsions:
REMARK  status: ('A' for Active; 'I' for Inactive)
REMARK    1  A    between atoms: C_1  and  O_7 
REMARK    2  A    between atoms: C_60  and  C_2 
REMARK    3  A    between atoms: C_4  and  C_12 
REMARK    4  A    between atoms: C_6  and  C_20 
REMARK    5  A    between atoms: O_7  and  C_8 
REMARK    6  A    between atoms: C_8  and  C_9 
REMARK    7  A    between atoms: C_9  and  O_10 
REMARK    8  A    between atoms: C_12  and  C_15 
REMARK    9  A    between atoms: C_15  and  C_16 
REMARK   10  A    between atoms: C_22  and  C_20 
REMARK   11  A    between atoms: C_21  and  O_27 
REMARK   12  A    between atoms: C_24  and  C_32 
REMARK   13  A    between atoms: O_27  and  C_28 
REMARK   14  A    between atoms: C_28  and  C_29 
REMARK   15  A    between atoms: C_29  and  O_30 
REMARK   16  A    between atoms: C_32  and  C_35 
REMARK   17  A    between atoms: C_35  and  C_36 
REMARK   18  A    between atoms: C_41  and  O_47 
REMARK   19  A    between atoms: C_44  and  C_52 
REMARK   20  A    between atoms: C_46  and  C_60 
REMARK   21  A    between atoms: O_47  and  C_48 
REMARK   22  A    between atoms: C_48  and  C_49 
REMARK   23  A    between atoms: C_49  and  O_50 
REMARK   24  A    between atoms: C_52  and  C_55 
REMARK   25  A    between atoms: C_55  and  C_56 
ROOT
HETATM    1  C   UNK N   1      21.291  15.948   5.936  0.00  0.00     0.082 A 
HETATM    2  C   UNK N   1      21.698  16.839   4.901  0.00  0.00    -0.019 A 
HETATM    3  C   UNK N   1      22.204  16.318   3.724  0.00  0.00     0.018 A 
HETATM    4  C   UNK N   1      22.254  14.961   3.478  0.00  0.00    -0.049 A 
HETATM    5  C   UNK N   1      21.754  14.087   4.427  0.00  0.00     0.018 A 
HETATM    6  C   UNK N   1      21.302  14.530   5.659  0.00  0.00    -0.019 A 
ENDROOT
BRANCH   6   7
HETATM    7  C   UNK N   1      20.853  13.460   6.632  0.00  0.00     0.083 C 
BRANCH   7   8
HETATM    8  C   UNK N   1      21.893  12.419   7.079  0.00  0.00    -0.019 A 
HETATM    9  C   UNK N   1      22.688  12.717   8.203  0.00  0.00     0.081 A 
HETATM   10  C   UNK N   1      23.641  11.766   8.653  0.00  0.00    -0.028 A 
HETATM   11  C   UNK N   1      23.837  10.580   7.955  0.00  0.00     0.017 A 
HETATM   12  C   UNK N   1      24.467  12.002   9.870  0.00  0.00     0.051 C 
HETATM   13  C   UNK N   1      23.085  10.271   6.822  0.00  0.00    -0.049 A 
HETATM   14  C   UNK N   1      22.102  11.196   6.397  0.00  0.00     0.018 A 
BRANCH   9  15
HETATM   15  O   UNK N   1      22.539  13.918   8.803  0.00  0.00    -0.348 OA
BRANCH  15  16
HETATM   16  C   UNK N   1      21.458  14.187   9.616  0.00  0.00     0.201 C 
BRANCH  16  17
HETATM   17  C   UNK N   1      21.105  12.987  10.465  0.00  0.00     0.190 C 
BRANCH  17  18
HETATM   18  O   UNK N   1      19.723  12.906  10.612  0.00  0.00    -0.399 OA
HETATM   19  H   UNK N   1      19.463  13.773  11.014  0.00  0.00     0.209 HD
ENDBRANCH  17  18
ENDBRANCH  16  17
ENDBRANCH  15  16
ENDBRANCH   9  15
BRANCH  13  20
HETATM   20  C   UNK N   1      23.503   9.074   5.966  0.00  0.00    -0.020 C 
HETATM   21  C   UNK N   1      22.252   8.239   5.768  0.00  0.00     0.020 C 
HETATM   22  C   UNK N   1      24.490   8.172   6.651  0.00  0.00     0.020 C 
BRANCH  20  23
HETATM   23  C   UNK N   1      23.999   9.415   4.542  0.00  0.00     0.022 C 
BRANCH  23  24
HETATM   24  C   UNK N   1      25.431   9.916   4.291  0.00  0.00    -0.050 C 
HETATM   25  C   UNK N   1      25.597  10.075   2.795  0.00  0.00     0.014 C 
HETATM   26  C   UNK N   1      26.484   8.918   4.743  0.00  0.00     0.014 C 
HETATM   27  C   UNK N   1      25.671  11.255   4.956  0.00  0.00     0.014 C 
ENDBRANCH  23  24
ENDBRANCH  20  23
ENDBRANCH  13  20
ENDBRANCH   7   8
ENDBRANCH   6   7
BRANCH   1  28
HETATM   28  O   UNK N   1      20.943  16.470   7.140  0.00  0.00    -0.348 OA
BRANCH  28  29
HETATM   29  C   UNK N   1      19.639  16.682   7.533  0.00  0.00     0.201 C 
BRANCH  29  30
HETATM   30  C   UNK N   1      19.566  17.752   8.601  0.00  0.00     0.190 C 
BRANCH  30  31
HETATM   31  O   UNK N   1      20.346  18.842   8.214  0.00  0.00    -0.399 OA
HETATM   32  H   UNK N   1      19.708  19.466   7.785  0.00  0.00     0.209 HD
ENDBRANCH  30  31
ENDBRANCH  29  30
ENDBRANCH  28  29
ENDBRANCH   1  28
BRANCH   4  33
HETATM   33  C   UNK N   1      23.017  14.418   2.310  0.00  0.00    -0.020 C 
HETATM   34  C   UNK N   1      22.036  14.361   1.165  0.00  0.00     0.020 C 
HETATM   35  C   UNK N   1      23.428  12.992   2.524  0.00  0.00     0.020 C 
BRANCH  33  36
HETATM   36  C   UNK N   1      24.275  15.261   2.035  0.00  0.00     0.022 C 
BRANCH  36  37
HETATM   37  C   UNK N   1      25.535  15.021   2.887  0.00  0.00    -0.050 C 
HETATM   38  C   UNK N   1      26.451  16.213   2.732  0.00  0.00     0.014 C 
HETATM   39  C   UNK N   1      25.274  14.833   4.375  0.00  0.00     0.014 C 
HETATM   40  C   UNK N   1      26.255  13.807   2.344  0.00  0.00     0.014 C 
ENDBRANCH  36  37
ENDBRANCH  33  36
ENDBRANCH   4  33
BRANCH   2  41
HETATM   41  C   UNK N   1      21.731  18.348   5.053  0.00  0.00     0.083 C 
BRANCH  41  42
HETATM   42  C   UNK N   1      22.954  19.005   4.407  0.00  0.00    -0.020 A 
HETATM   43  C   UNK N   1      24.193  18.959   5.090  0.00  0.00     0.018 A 
HETATM   44  C   UNK N   1      25.365  19.508   4.544  0.00  0.00    -0.050 A 
HETATM   45  C   UNK N   1      25.274  20.175   3.316  0.00  0.00     0.011 A 
HETATM   46  C   UNK N   1      24.058  20.267   2.642  0.00  0.00     0.038 A 
HETATM   47  C   UNK N   1      22.897  19.670   3.147  0.00  0.00     0.075 A 
BRANCH  44  48
HETATM   48  C   UNK N   1      26.737  19.322   5.195  0.00  0.00    -0.020 C 
HETATM   49  C   UNK N   1      27.783  19.525   4.104  0.00  0.00     0.020 C 
HETATM   50  C   UNK N   1      26.932  20.384   6.263  0.00  0.00     0.020 C 
BRANCH  48  51
HETATM   51  C   UNK N   1      26.912  17.934   5.862  0.00  0.00     0.022 C 
BRANCH  51  52
HETATM   52  C   UNK N   1      28.085  17.701   6.855  0.00  0.00    -0.050 C 
HETATM   53  C   UNK N   1      27.674  16.634   7.851  0.00  0.00     0.014 C 
HETATM   54  C   UNK N   1      28.444  18.941   7.646  0.00  0.00     0.014 C 
HETATM   55  C   UNK N   1      29.326  17.205   6.127  0.00  0.00     0.014 C 
ENDBRANCH  51  52
ENDBRANCH  48  51
ENDBRANCH  44  48
BRANCH  47  56
HETATM   56  O   UNK N   1      21.777  19.759   2.385  0.00  0.00    -0.348 OA
BRANCH  56  57
HETATM   57  C   UNK N   1      20.938  20.844   2.339  0.00  0.00     0.201 C 
BRANCH  57  58
HETATM   58  C   UNK N   1      20.608  21.195   0.905  0.00  0.00     0.190 C 
BRANCH  58  59
HETATM   59  O   UNK N   1      20.700  20.045   0.122  0.00  0.00    -0.399 OA
HETATM   60  H   UNK N   1      21.669  19.939  -0.060  0.00  0.00     0.209 HD
ENDBRANCH  58  59
ENDBRANCH  57  58
ENDBRANCH  56  57
ENDBRANCH  47  56
ENDBRANCH  41  42
ENDBRANCH   2  41
TORSDOF 25
ENDMDL
MODEL 7
REMARK VINA RESULT:      -6.7      2.712      6.412
REMARK  25 active torsions:
REMARK  status: ('A' for Active; 'I' for Inactive)
REMARK    1  A    between atoms: C_1  and  O_7 
REMARK    2  A    between atoms: C_60  and  C_2 
REMARK    3  A    between atoms: C_4  and  C_12 
REMARK    4  A    between atoms: C_6  and  C_20 
REMARK    5  A    between atoms: O_7  and  C_8 
REMARK    6  A    between atoms: C_8  and  C_9 
REMARK    7  A    between atoms: C_9  and  O_10 
REMARK    8  A    between atoms: C_12  and  C_15 
REMARK    9  A    between atoms: C_15  and  C_16 
REMARK   10  A    between atoms: C_22  and  C_20 
REMARK   11  A    between atoms: C_21  and  O_27 
REMARK   12  A    between atoms: C_24  and  C_32 
REMARK   13  A    between atoms: O_27  and  C_28 
REMARK   14  A    between atoms: C_28  and  C_29 
REMARK   15  A    between atoms: C_29  and  O_30 
REMARK   16  A    between atoms: C_32  and  C_35 
REMARK   17  A    between atoms: C_35  and  C_36 
REMARK   18  A    between atoms: C_41  and  O_47 
REMARK   19  A    between atoms: C_44  and  C_52 
REMARK   20  A    between atoms: C_46  and  C_60 
REMARK   21  A    between atoms: O_47  and  C_48 
REMARK   22  A    between atoms: C_48  and  C_49 
REMARK   23  A    between atoms: C_49  and  O_50 
REMARK   24  A    between atoms: C_52  and  C_55 
REMARK   25  A    between atoms: C_55  and  C_56 
ROOT
HETATM    1  C   UNK N   1      24.666  17.730   5.167  0.00  0.00     0.082 A 
HETATM    2  C   UNK N   1      23.515  16.995   5.574  0.00  0.00    -0.019 A 
HETATM    3  C   UNK N   1      23.663  15.676   5.967  0.00  0.00     0.018 A 
HETATM    4  C   UNK N   1      24.898  15.068   6.061  0.00  0.00    -0.049 A 
HETATM    5  C   UNK N   1      26.034  15.806   5.782  0.00  0.00     0.018 A 
HETATM    6  C   UNK N   1      25.961  17.106   5.310  0.00  0.00    -0.019 A 
ENDROOT
BRANCH   6   7
HETATM    7  C   UNK N   1      27.279  17.771   4.971  0.00  0.00     0.083 C 
BRANCH   7   8
HETATM    8  C   UNK N   1      28.458  17.551   5.934  0.00  0.00    -0.019 A 
HETATM    9  C   UNK N   1      28.492  18.306   7.122  0.00  0.00     0.081 A 
HETATM   10  C   UNK N   1      29.557  18.109   8.041  0.00  0.00    -0.028 A 
HETATM   11  C   UNK N   1      30.591  17.229   7.743  0.00  0.00     0.017 A 
HETATM   12  C   UNK N   1      29.614  18.837   9.339  0.00  0.00     0.051 C 
HETATM   13  C   UNK N   1      30.598  16.490   6.560  0.00  0.00    -0.049 A 
HETATM   14  C   UNK N   1      29.515  16.649   5.664  0.00  0.00     0.018 A 
BRANCH   9  15
HETATM   15  O   UNK N   1      27.523  19.221   7.338  0.00  0.00    -0.348 OA
BRANCH  15  16
HETATM   16  C   UNK N   1      27.604  20.494   6.813  0.00  0.00     0.201 C 
BRANCH  16  17
HETATM   17  C   UNK N   1      26.287  21.223   6.954  0.00  0.00     0.190 C 
BRANCH  17  18
HETATM   18  O   UNK N   1      25.792  21.052   8.244  0.00  0.00    -0.399 OA
HETATM   19  H   UNK N   1      25.606  21.969   8.565  0.00  0.00     0.209 HD
ENDBRANCH  17  18
ENDBRANCH  16  17
ENDBRANCH  15  16
ENDBRANCH   9  15
BRANCH  13  20
HETATM   20  C   UNK N   1      31.866  15.722   6.181  0.00  0.00    -0.020 C 
HETATM   21  C   UNK N   1      31.810  14.412   6.942  0.00  0.00     0.020 C 
HETATM   22  C   UNK N   1      33.127  16.402   6.632  0.00  0.00     0.020 C 
BRANCH  20  23
HETATM   23  C   UNK N   1      31.983  15.327   4.691  0.00  0.00     0.022 C 
BRANCH  23  24
HETATM   24  C   UNK N   1      32.421  16.344   3.624  0.00  0.00    -0.050 C 
HETATM   25  C   UNK N   1      31.250  16.548   2.688  0.00  0.00     0.014 C 
HETATM   26  C   UNK N   1      33.574  15.836   2.775  0.00  0.00     0.014 C 
HETATM   27  C   UNK N   1      32.787  17.674   4.248  0.00  0.00     0.014 C 
ENDBRANCH  23  24
ENDBRANCH  20  23
ENDBRANCH  13  20
ENDBRANCH   7   8
ENDBRANCH   6   7
BRANCH   1  28
HETATM   28  O   UNK N   1      24.490  18.968   4.639  0.00  0.00    -0.348 OA
BRANCH  28  29
HETATM   29  C   UNK N   1      24.090  19.197   3.340  0.00  0.00     0.201 C 
BRANCH  29  30
HETATM   30  C   UNK N   1      24.093  20.677   3.028  0.00  0.00     0.190 C 
BRANCH  30  31
HETATM   31  O   UNK N   1      25.052  20.939   2.049  0.00  0.00    -0.399 OA
HETATM   32  H   UNK N   1      24.602  20.720   1.195  0.00  0.00     0.209 HD
ENDBRANCH  30  31
ENDBRANCH  29  30
ENDBRANCH  28  29
ENDBRANCH   1  28
BRANCH   4  33
HETATM   33  C   UNK N   1      25.013  13.588   6.257  0.00  0.00    -0.020 C 
HETATM   34  C   UNK N   1      25.272  13.383   7.728  0.00  0.00     0.020 C 
HETATM   35  C   UNK N   1      26.228  13.027   5.580  0.00  0.00     0.020 C 
BRANCH  33  36
HETATM   36  C   UNK N   1      23.767  12.864   5.717  0.00  0.00     0.022 C 
BRANCH  36  37
HETATM   37  C   UNK N   1      22.764  12.257   6.716  0.00  0.00    -0.050 C 
HETATM   38  C   UNK N   1      23.273  10.897   7.136  0.00  0.00     0.014 C 
HETATM   39  C   UNK N   1      22.548  13.076   7.981  0.00  0.00     0.014 C 
HETATM   40  C   UNK N   1      21.443  12.062   6.009  0.00  0.00     0.014 C 
ENDBRANCH  36  37
ENDBRANCH  33  36
ENDBRANCH   4  33
BRANCH   2  41
HETATM   41  C   UNK N   1      22.098  17.529   5.484  0.00  0.00     0.083 C 
BRANCH  41  42
HETATM   42  C   UNK N   1      21.101  16.532   4.888  0.00  0.00    -0.020 A 
HETATM   43  C   UNK N   1      21.142  16.275   3.497  0.00  0.00     0.018 A 
HETATM   44  C   UNK N   1      20.284  15.347   2.885  0.00  0.00    -0.050 A 
HETATM   45  C   UNK N   1      19.320  14.714   3.679  0.00  0.00     0.011 A 
HETATM   46  C   UNK N   1      19.234  14.978   5.045  0.00  0.00     0.038 A 
HETATM   47  C   UNK N   1      20.125  15.854   5.676  0.00  0.00     0.075 A 
BRANCH  44  48
HETATM   48  C   UNK N   1      20.428  14.942   1.417  0.00  0.00    -0.020 C 
HETATM   49  C   UNK N   1      19.747  13.588   1.256  0.00  0.00     0.020 C 
HETATM   50  C   UNK N   1      19.708  15.958   0.545  0.00  0.00     0.020 C 
BRANCH  48  51
HETATM   51  C   UNK N   1      21.903  14.868   0.947  0.00  0.00     0.022 C 
BRANCH  51  52
HETATM   52  C   UNK N   1      22.816  13.718   1.459  0.00  0.00    -0.050 C 
HETATM   53  C   UNK N   1      23.951  14.322   2.264  0.00  0.00     0.014 C 
HETATM   54  C   UNK N   1      23.438  12.914   0.337  0.00  0.00     0.014 C 
HETATM   55  C   UNK N   1      22.046  12.776   2.372  0.00  0.00     0.014 C 
ENDBRANCH  51  52
ENDBRANCH  48  51
ENDBRANCH  44  48
BRANCH  47  56
HETATM   56  O   UNK N   1      20.001  15.994   7.021  0.00  0.00    -0.348 OA
BRANCH  56  57
HETATM   57  C   UNK N   1      18.973  16.647   7.654  0.00  0.00     0.201 C 
BRANCH  57  58
HETATM   58  C   UNK N   1      19.434  17.177   8.994  0.00  0.00     0.190 C 
BRANCH  58  59
HETATM   59  O   UNK N   1      18.754  18.360   9.276  0.00  0.00    -0.399 OA
HETATM   60  H   UNK N   1      19.466  19.028   9.445  0.00  0.00     0.209 HD
ENDBRANCH  58  59
ENDBRANCH  57  58
ENDBRANCH  56  57
ENDBRANCH  47  56
ENDBRANCH  41  42
ENDBRANCH   2  41
TORSDOF 25
ENDMDL
MODEL 8
REMARK VINA RESULT:      -6.7      2.093      5.248
REMARK  25 active torsions:
REMARK  status: ('A' for Active; 'I' for Inactive)
REMARK    1  A    between atoms: C_1  and  O_7 
REMARK    2  A    between atoms: C_60  and  C_2 
REMARK    3  A    between atoms: C_4  and  C_12 
REMARK    4  A    between atoms: C_6  and  C_20 
REMARK    5  A    between atoms: O_7  and  C_8 
REMARK    6  A    between atoms: C_8  and  C_9 
REMARK    7  A    between atoms: C_9  and  O_10 
REMARK    8  A    between atoms: C_12  and  C_15 
REMARK    9  A    between atoms: C_15  and  C_16 
REMARK   10  A    between atoms: C_22  and  C_20 
REMARK   11  A    between atoms: C_21  and  O_27 
REMARK   12  A    between atoms: C_24  and  C_32 
REMARK   13  A    between atoms: O_27  and  C_28 
REMARK   14  A    between atoms: C_28  and  C_29 
REMARK   15  A    between atoms: C_29  and  O_30 
REMARK   16  A    between atoms: C_32  and  C_35 
REMARK   17  A    between atoms: C_35  and  C_36 
REMARK   18  A    between atoms: C_41  and  O_47 
REMARK   19  A    between atoms: C_44  and  C_52 
REMARK   20  A    between atoms: C_46  and  C_60 
REMARK   21  A    between atoms: O_47  and  C_48 
REMARK   22  A    between atoms: C_48  and  C_49 
REMARK   23  A    between atoms: C_49  and  O_50 
REMARK   24  A    between atoms: C_52  and  C_55 
REMARK   25  A    between atoms: C_55  and  C_56 
ROOT
HETATM    1  C   UNK N   1      23.350  16.130   5.912  0.00  0.00     0.082 A 
HETATM    2  C   UNK N   1      22.039  15.584   5.802  0.00  0.00    -0.019 A 
HETATM    3  C   UNK N   1      21.820  14.274   6.190  0.00  0.00     0.018 A 
HETATM    4  C   UNK N   1      22.808  13.498   6.762  0.00  0.00    -0.049 A 
HETATM    5  C   UNK N   1      24.055  14.054   6.984  0.00  0.00     0.018 A 
HETATM    6  C   UNK N   1      24.370  15.332   6.552  0.00  0.00    -0.019 A 
ENDROOT
BRANCH   6   7
HETATM    7  C   UNK N   1      25.795  15.787   6.792  0.00  0.00     0.083 C 
BRANCH   7   8
HETATM    8  C   UNK N   1      26.821  15.542   5.672  0.00  0.00    -0.019 A 
HETATM    9  C   UNK N   1      27.885  16.456   5.539  0.00  0.00     0.081 A 
HETATM   10  C   UNK N   1      28.860  16.244   4.530  0.00  0.00    -0.028 A 
HETATM   11  C   UNK N   1      28.734  15.185   3.638  0.00  0.00     0.017 A 
HETATM   12  C   UNK N   1      30.038  17.144   4.379  0.00  0.00     0.051 C 
HETATM   13  C   UNK N   1      27.675  14.282   3.728  0.00  0.00    -0.049 A 
HETATM   14  C   UNK N   1      26.726  14.463   4.763  0.00  0.00     0.018 A 
BRANCH   9  15
HETATM   15  O   UNK N   1      27.928  17.527   6.360  0.00  0.00    -0.348 OA
BRANCH  15  16
HETATM   16  C   UNK N   1      28.734  17.545   7.479  0.00  0.00     0.201 C 
BRANCH  16  17
HETATM   17  C   UNK N   1      28.326  18.654   8.423  0.00  0.00     0.190 C 
BRANCH  17  18
HETATM   18  O   UNK N   1      27.424  18.162   9.362  0.00  0.00    -0.399 OA
HETATM   19  H   UNK N   1      27.841  18.360  10.237  0.00  0.00     0.209 HD
ENDBRANCH  17  18
ENDBRANCH  16  17
ENDBRANCH  15  16
ENDBRANCH   9  15
BRANCH  13  20
HETATM   20  C   UNK N   1      27.459  13.286   2.588  0.00  0.00    -0.020 C 
HETATM   21  C   UNK N   1      27.962  11.947   3.095  0.00  0.00     0.020 C 
HETATM   22  C   UNK N   1      28.281  13.594   1.369  0.00  0.00     0.020 C 
BRANCH  20  23
HETATM   23  C   UNK N   1      25.987  13.044   2.185  0.00  0.00     0.022 C 
BRANCH  23  24
HETATM   24  C   UNK N   1      25.093  14.194   1.688  0.00  0.00    -0.050 C 
HETATM   25  C   UNK N   1      24.087  14.485   2.780  0.00  0.00     0.014 C 
HETATM   26  C   UNK N   1      24.297  13.818   0.450  0.00  0.00     0.014 C 
HETATM   27  C   UNK N   1      25.902  15.445   1.421  0.00  0.00     0.014 C 
ENDBRANCH  23  24
ENDBRANCH  20  23
ENDBRANCH  13  20
ENDBRANCH   7   8
ENDBRANCH   6   7
BRANCH   1  28
HETATM   28  O   UNK N   1      23.586  17.359   5.387  0.00  0.00    -0.348 OA
BRANCH  28  29
HETATM   29  C   UNK N   1      24.208  17.567   4.175  0.00  0.00     0.201 C 
BRANCH  29  30
HETATM   30  C   UNK N   1      25.197  18.709   4.266  0.00  0.00     0.190 C 
BRANCH  30  31
HETATM   31  O   UNK N   1      25.406  19.031   5.607  0.00  0.00    -0.399 OA
HETATM   32  H   UNK N   1      26.381  18.917   5.742  0.00  0.00     0.209 HD
ENDBRANCH  30  31
ENDBRANCH  29  30
ENDBRANCH  28  29
ENDBRANCH   1  28
BRANCH   4  33
HETATM   33  C   UNK N   1      22.615  12.026   6.953  0.00  0.00    -0.020 C 
HETATM   34  C   UNK N   1      21.171  11.750   6.615  0.00  0.00     0.020 C 
HETATM   35  C   UNK N   1      22.748  11.627   8.392  0.00  0.00     0.020 C 
BRANCH  33  36
HETATM   36  C   UNK N   1      23.633  11.226   6.121  0.00  0.00     0.022 C 
BRANCH  36  37
HETATM   37  C   UNK N   1      23.492   9.694   6.039  0.00  0.00    -0.050 C 
HETATM   38  C   UNK N   1      24.444   9.183   4.983  0.00  0.00     0.014 C 
HETATM   39  C   UNK N   1      23.800   8.954   7.333  0.00  0.00     0.014 C 
HETATM   40  C   UNK N   1      22.084   9.368   5.594  0.00  0.00     0.014 C 
ENDBRANCH  36  37
ENDBRANCH  33  36
ENDBRANCH   4  33
BRANCH   2  41
HETATM   41  C   UNK N   1      20.874  16.313   5.158  0.00  0.00     0.083 C 
BRANCH  41  42
HETATM   42  C   UNK N   1      20.716  16.021   3.663  0.00  0.00    -0.020 A 
HETATM   43  C   UNK N   1      20.441  14.694   3.253  0.00  0.00     0.018 A 
HETATM   44  C   UNK N   1      20.248  14.358   1.903  0.00  0.00    -0.050 A 
HETATM   45  C   UNK N   1      20.401  15.364   0.941  0.00  0.00     0.011 A 
HETATM   46  C   UNK N   1      20.709  16.670   1.317  0.00  0.00     0.038 A 
HETATM   47  C   UNK N   1      20.841  17.030   2.664  0.00  0.00     0.075 A 
BRANCH  44  48
HETATM   48  C   UNK N   1      19.792  12.966   1.463  0.00  0.00    -0.020 C 
HETATM   49  C   UNK N   1      19.328  12.229   2.715  0.00  0.00     0.020 C 
HETATM   50  C   UNK N   1      18.614  13.102   0.513  0.00  0.00     0.020 C 
BRANCH  48  51
HETATM   51  C   UNK N   1      20.901  12.160   0.739  0.00  0.00     0.022 C 
BRANCH  51  52
HETATM   52  C   UNK N   1      21.651  11.031   1.500  0.00  0.00    -0.050 C 
HETATM   53  C   UNK N   1      22.760  10.500   0.611  0.00  0.00     0.014 C 
HETATM   54  C   UNK N   1      20.757   9.861   1.851  0.00  0.00     0.014 C 
HETATM   55  C   UNK N   1      22.290  11.562   2.774  0.00  0.00     0.014 C 
ENDBRANCH  51  52
ENDBRANCH  48  51
ENDBRANCH  44  48
BRANCH  47  56
HETATM   56  O   UNK N   1      21.077  18.340   2.930  0.00  0.00    -0.348 OA
BRANCH  56  57
HETATM   57  C   UNK N   1      20.325  19.388   2.460  0.00  0.00     0.201 C 
BRANCH  57  58
HETATM   58  C   UNK N   1      20.564  20.624   3.299  0.00  0.00     0.190 C 
BRANCH  58  59
HETATM   59  O   UNK N   1      21.554  21.400   2.698  0.00  0.00    -0.399 OA
HETATM   60  H   UNK N   1      22.244  20.750   2.409  0.00  0.00     0.209 HD
ENDBRANCH  58  59
ENDBRANCH  57  58
ENDBRANCH  56  57
ENDBRANCH  47  56
ENDBRANCH  41  42
ENDBRANCH   2  41
TORSDOF 25
ENDMDL
MODEL 9
REMARK VINA RESULT:      -6.7      2.691      6.074
REMARK  25 active torsions:
REMARK  status: ('A' for Active; 'I' for Inactive)
REMARK    1  A    between atoms: C_1  and  O_7 
REMARK    2  A    between atoms: C_60  and  C_2 
REMARK    3  A    between atoms: C_4  and  C_12 
REMARK    4  A    between atoms: C_6  and  C_20 
REMARK    5  A    between atoms: O_7  and  C_8 
REMARK    6  A    between atoms: C_8  and  C_9 
REMARK    7  A    between atoms: C_9  and  O_10 
REMARK    8  A    between atoms: C_12  and  C_15 
REMARK    9  A    between atoms: C_15  and  C_16 
REMARK   10  A    between atoms: C_22  and  C_20 
REMARK   11  A    between atoms: C_21  and  O_27 
REMARK   12  A    between atoms: C_24  and  C_32 
REMARK   13  A    between atoms: O_27  and  C_28 
REMARK   14  A    between atoms: C_28  and  C_29 
REMARK   15  A    between atoms: C_29  and  O_30 
REMARK   16  A    between atoms: C_32  and  C_35 
REMARK   17  A    between atoms: C_35  and  C_36 
REMARK   18  A    between atoms: C_41  and  O_47 
REMARK   19  A    between atoms: C_44  and  C_52 
REMARK   20  A    between atoms: C_46  and  C_60 
REMARK   21  A    between atoms: O_47  and  C_48 
REMARK   22  A    between atoms: C_48  and  C_49 
REMARK   23  A    between atoms: C_49  and  O_50 
REMARK   24  A    between atoms: C_52  and  C_55 
REMARK   25  A    between atoms: C_55  and  C_56 
ROOT
HETATM    1  C   UNK N   1      24.868  17.729   5.044  0.00  0.00     0.082 A 
HETATM    2  C   UNK N   1      23.674  17.052   5.426  0.00  0.00    -0.019 A 
HETATM    3  C   UNK N   1      23.763  15.774   5.950  0.00  0.00     0.018 A 
HETATM    4  C   UNK N   1      24.973  15.159   6.195  0.00  0.00    -0.049 A 
HETATM    5  C   UNK N   1      26.143  15.850   5.939  0.00  0.00     0.018 A 
HETATM    6  C   UNK N   1      26.134  17.101   5.344  0.00  0.00    -0.019 A 
ENDROOT
BRANCH   6   7
HETATM    7  C   UNK N   1      27.489  17.712   5.049  0.00  0.00     0.083 C 
BRANCH   7   8
HETATM    8  C   UNK N   1      28.618  17.470   6.064  0.00  0.00    -0.019 A 
HETATM    9  C   UNK N   1      28.564  18.160   7.290  0.00  0.00     0.081 A 
HETATM   10  C   UNK N   1      29.581  17.940   8.257  0.00  0.00    -0.028 A 
HETATM   11  C   UNK N   1      30.655  17.105   7.973  0.00  0.00     0.017 A 
HETATM   12  C   UNK N   1      29.545  18.597   9.593  0.00  0.00     0.051 C 
HETATM   13  C   UNK N   1      30.750  16.432   6.755  0.00  0.00    -0.049 A 
HETATM   14  C   UNK N   1      29.714  16.612   5.808  0.00  0.00     0.018 A 
BRANCH   9  15
HETATM   15  O   UNK N   1      27.559  19.036   7.499  0.00  0.00    -0.348 OA
BRANCH  15  16
HETATM   16  C   UNK N   1      27.717  20.385   7.257  0.00  0.00     0.201 C 
BRANCH  16  17
HETATM   17  C   UNK N   1      26.504  20.956   6.558  0.00  0.00     0.190 C 
BRANCH  17  18
HETATM   18  O   UNK N   1      26.782  21.133   5.205  0.00  0.00    -0.399 OA
HETATM   19  H   UNK N   1      27.724  20.846   5.104  0.00  0.00     0.209 HD
ENDBRANCH  17  18
ENDBRANCH  16  17
ENDBRANCH  15  16
ENDBRANCH   9  15
BRANCH  13  20
HETATM   20  C   UNK N   1      32.058  15.719   6.408  0.00  0.00    -0.020 C 
HETATM   21  C   UNK N   1      32.075  14.444   7.229  0.00  0.00     0.020 C 
HETATM   22  C   UNK N   1      33.280  16.488   6.825  0.00  0.00     0.020 C 
BRANCH  20  23
HETATM   23  C   UNK N   1      32.198  15.263   4.938  0.00  0.00     0.022 C 
BRANCH  23  24
HETATM   24  C   UNK N   1      32.550  16.259   3.820  0.00  0.00    -0.050 C 
HETATM   25  C   UNK N   1      31.310  16.441   2.972  0.00  0.00     0.014 C 
HETATM   26  C   UNK N   1      33.637  15.734   2.896  0.00  0.00     0.014 C 
HETATM   27  C   UNK N   1      32.959  17.602   4.387  0.00  0.00     0.014 C 
ENDBRANCH  23  24
ENDBRANCH  20  23
ENDBRANCH  13  20
ENDBRANCH   7   8
ENDBRANCH   6   7
BRANCH   1  28
HETATM   28  O   UNK N   1      24.760  18.914   4.391  0.00  0.00    -0.348 OA
BRANCH  28  29
HETATM   29  C   UNK N   1      24.988  19.068   3.041  0.00  0.00     0.201 C 
BRANCH  29  30
HETATM   30  C   UNK N   1      24.754  20.501   2.615  0.00  0.00     0.190 C 
BRANCH  30  31
HETATM   31  O   UNK N   1      25.977  21.092   2.297  0.00  0.00    -0.399 OA
HETATM   32  H   UNK N   1      26.394  20.469   1.650  0.00  0.00     0.209 HD
ENDBRANCH  30  31
ENDBRANCH  29  30
ENDBRANCH  28  29
ENDBRANCH   1  28
BRANCH   4  33
HETATM   33  C   UNK N   1      25.041  13.702   6.535  0.00  0.00    -0.020 C 
HETATM   34  C   UNK N   1      25.299  13.635   8.020  0.00  0.00     0.020 C 
HETATM   35  C   UNK N   1      26.234  13.038   5.916  0.00  0.00     0.020 C 
BRANCH  33  36
HETATM   36  C   UNK N   1      23.769  12.970   6.071  0.00  0.00     0.022 C 
BRANCH  36  37
HETATM   37  C   UNK N   1      22.883  12.272   7.121  0.00  0.00    -0.050 C 
HETATM   38  C   UNK N   1      22.570  13.265   8.216  0.00  0.00     0.014 C 
HETATM   39  C   UNK N   1      21.559  11.744   6.588  0.00  0.00     0.014 C 
HETATM   40  C   UNK N   1      23.671  11.136   7.732  0.00  0.00     0.014 C 
ENDBRANCH  36  37
ENDBRANCH  33  36
ENDBRANCH   4  33
BRANCH   2  41
HETATM   41  C   UNK N   1      22.280  17.596   5.177  0.00  0.00     0.083 C 
BRANCH  41  42
HETATM   42  C   UNK N   1      21.603  17.009   3.936  0.00  0.00    -0.020 A 
HETATM   43  C   UNK N   1      21.836  15.651   3.610  0.00  0.00     0.018 A 
HETATM   44  C   UNK N   1      21.221  15.034   2.508  0.00  0.00    -0.050 A 
HETATM   45  C   UNK N   1      20.409  15.817   1.679  0.00  0.00     0.011 A 
HETATM   46  C   UNK N   1      20.194  17.166   1.956  0.00  0.00     0.038 A 
HETATM   47  C   UNK N   1      20.752  17.775   3.087  0.00  0.00     0.075 A 
BRANCH  44  48
HETATM   48  C   UNK N   1      21.336  13.532   2.242  0.00  0.00    -0.020 C 
HETATM   49  C   UNK N   1      20.243  12.847   3.055  0.00  0.00     0.020 C 
HETATM   50  C   UNK N   1      21.087  13.265   0.767  0.00  0.00     0.020 C 
BRANCH  48  51
HETATM   51  C   UNK N   1      22.727  12.953   2.605  0.00  0.00     0.022 C 
BRANCH  51  52
HETATM   52  C   UNK N   1      23.983  13.419   1.818  0.00  0.00    -0.050 C 
HETATM   53  C   UNK N   1      24.873  12.216   1.566  0.00  0.00     0.014 C 
HETATM   54  C   UNK N   1      24.809  14.439   2.573  0.00  0.00     0.014 C 
HETATM   55  C   UNK N   1      23.596  14.001   0.467  0.00  0.00     0.014 C 
ENDBRANCH  51  52
ENDBRANCH  48  51
ENDBRANCH  44  48
BRANCH  47  56
HETATM   56  O   UNK N   1      20.430  19.076   3.306  0.00  0.00    -0.348 OA
BRANCH  56  57
HETATM   57  C   UNK N   1      19.870  19.917   2.377  0.00  0.00     0.201 C 
BRANCH  57  58
HETATM   58  C   UNK N   1      20.932  20.800   1.760  0.00  0.00     0.190 C 
BRANCH  58  59
HETATM   59  O   UNK N   1      21.469  21.625   2.746  0.00  0.00    -0.399 OA
HETATM   60  H   UNK N   1      22.335  21.205   2.983  0.00  0.00     0.209 HD
ENDBRANCH  58  59
ENDBRANCH  57  58
ENDBRANCH  56  57
ENDBRANCH  47  56
ENDBRANCH  41  42
ENDBRANCH   2  41
TORSDOF 25
ENDMDL
