MODEL 1
REMARK VINA RESULT:      -6.8      0.000      0.000
REMARK  10 active torsions:
REMARK  status: ('A' for Active; 'I' for Inactive)
REMARK    1  A    between atoms: C_9  and  O_1 
REMARK    2  A    between atoms: O_1  and  C_22 
REMARK    3  A    between atoms: C_22  and  C_23 
REMARK    4  A    between atoms: C_23  and  C_24 
REMARK    5  A    between atoms: C_24  and  C_25 
REMARK    6  A    between atoms: C_25  and  C_26 
REMARK    7  A    between atoms: C_26  and  C_27 
REMARK    8  A    between atoms: C_27  and  C_28 
REMARK    9  A    between atoms: C_28  and  C_29 
REMARK   10  A    between atoms: C_29  and  C_30 
ROOT
HETATM    1  O   UNK N   1      30.484  31.013  -1.244  0.00  0.00    -0.293 OA
HETATM    2  C   UNK N   1      26.030  26.256  -5.625  0.00  0.00     0.001 C 
HETATM    3  C   UNK N   1      26.858  25.025  -6.014  0.00  0.00    -0.013 C 
HETATM    4  C   UNK N   1      26.637  27.091  -4.464  0.00  0.00    -0.005 C 
HETATM    5  C   UNK N   1      28.150  27.320  -4.629  0.00  0.00    -0.002 C 
HETATM    6  C   UNK N   1      28.348  25.363  -6.122  0.00  0.00     0.012 C 
HETATM    7  C   UNK N   1      26.384  24.712  -7.426  0.00  0.00     0.140 C 
HETATM    8  C   UNK N   1      25.862  27.044  -6.920  0.00  0.00     0.008 C 
HETATM    9  C   UNK N   1      28.858  25.987  -4.840  0.00  0.00     0.006 C 
HETATM   10  C   UNK N   1      28.703  27.998  -3.377  0.00  0.00     0.019 C 
HETATM   11  C   UNK N   1      26.100  26.064  -8.061  0.00  0.00     0.034 C 
HETATM   12  C   UNK N   1      25.927  28.448  -4.380  0.00  0.00     0.010 C 
HETATM   13  C   UNK N   1      26.676  23.859  -5.047  0.00  0.00     0.018 C 
HETATM   14  C   UNK N   1      26.500  29.435  -3.357  0.00  0.00     0.035 C 
HETATM   15  C   UNK N   1      27.970  29.290  -3.069  0.00  0.00    -0.072 C 
HETATM   16  C   UNK N   1      30.217  28.224  -3.483  0.00  0.00     0.017 C 
HETATM   17  C   UNK N   1      30.757  28.884  -2.219  0.00  0.00     0.084 C 
HETATM   18  C   UNK N   1      28.568  30.254  -2.349  0.00  0.00     0.053 C 
HETATM   19  C   UNK N   1      29.973  30.124  -1.906  0.00  0.00     0.149 C 
ENDROOT
BRANCH   7  20
HETATM   20  O   UNK N   1      25.244  23.944  -7.469  0.00  0.00    -0.315 OA
BRANCH  20  21
HETATM   21  C   UNK N   1      25.209  22.806  -8.207  0.00  0.00     0.259 C 
HETATM   22  O   UNK N   1      24.150  22.231  -8.384  0.00  0.00    -0.265 OA
BRANCH  21  23
HETATM   23  C   UNK N   1      26.466  22.241  -8.808  0.00  0.00     0.111 C 
BRANCH  23  24
HETATM   24  C   UNK N   1      27.138  21.316  -7.806  0.00  0.00     0.010 C 
BRANCH  24  25
HETATM   25  C   UNK N   1      28.617  21.634  -7.712  0.00  0.00     0.000 C 
BRANCH  25  26
HETATM   26  C   UNK N   1      29.359  20.406  -7.229  0.00  0.00     0.000 C 
BRANCH  26  27
HETATM   27  C   UNK N   1      30.449  20.804  -6.264  0.00  0.00     0.000 C 
BRANCH  27  28
HETATM   28  C   UNK N   1      29.890  21.859  -5.338  0.00  0.00     0.000 C 
BRANCH  28  29
HETATM   29  C   UNK N   1      30.292  21.558  -3.914  0.00  0.00    -0.000 C 
BRANCH  29  30
HETATM   30  C   UNK N   1      30.393  22.858  -3.148  0.00  0.00    -0.005 C 
HETATM   31  C   UNK N   1      29.104  23.100  -2.393  0.00  0.00     0.005 C 
ENDBRANCH  29  30
ENDBRANCH  28  29
ENDBRANCH  27  28
ENDBRANCH  26  27
ENDBRANCH  25  26
ENDBRANCH  24  25
ENDBRANCH  23  24
ENDBRANCH  21  23
ENDBRANCH  20  21
ENDBRANCH   7  20
TORSDOF 10
ENDMDL
MODEL 2
REMARK VINA RESULT:      -6.6     21.406     25.126
REMARK  10 active torsions:
REMARK  status: ('A' for Active; 'I' for Inactive)
REMARK    1  A    between atoms: C_9  and  O_1 
REMARK    2  A    between atoms: O_1  and  C_22 
REMARK    3  A    between atoms: C_22  and  C_23 
REMARK    4  A    between atoms: C_23  and  C_24 
REMARK    5  A    between atoms: C_24  and  C_25 
REMARK    6  A    between atoms: C_25  and  C_26 
REMARK    7  A    between atoms: C_26  and  C_27 
REMARK    8  A    between atoms: C_27  and  C_28 
REMARK    9  A    between atoms: C_28  and  C_29 
REMARK   10  A    between atoms: C_29  and  C_30 
ROOT
HETATM    1  O   UNK N   1      36.901   8.827  22.241  0.00  0.00    -0.293 OA
HETATM    2  C   UNK N   1      35.033  12.788  15.722  0.00  0.00     0.001 C 
HETATM    3  C   UNK N   1      35.189  11.853  14.516  0.00  0.00    -0.013 C 
HETATM    4  C   UNK N   1      34.998  12.056  17.093  0.00  0.00    -0.005 C 
HETATM    5  C   UNK N   1      36.085  10.975  17.214  0.00  0.00    -0.002 C 
HETATM    6  C   UNK N   1      36.277  10.802  14.758  0.00  0.00     0.012 C 
HETATM    7  C   UNK N   1      35.715  12.773  13.423  0.00  0.00     0.140 C 
HETATM    8  C   UNK N   1      36.174  13.791  15.595  0.00  0.00     0.008 C 
HETATM    9  C   UNK N   1      36.006  10.022  16.028  0.00  0.00     0.006 C 
HETATM   10  C   UNK N   1      35.885  10.192  18.510  0.00  0.00     0.019 C 
HETATM   11  C   UNK N   1      36.614  13.770  14.138  0.00  0.00     0.034 C 
HETATM   12  C   UNK N   1      35.173  13.077  18.225  0.00  0.00     0.010 C 
HETATM   13  C   UNK N   1      33.888  11.152  14.137  0.00  0.00     0.018 C 
HETATM   14  C   UNK N   1      35.282  12.491  19.637  0.00  0.00     0.035 C 
HETATM   15  C   UNK N   1      35.866  11.107  19.721  0.00  0.00    -0.072 C 
HETATM   16  C   UNK N   1      36.932   9.081  18.663  0.00  0.00     0.017 C 
HETATM   17  C   UNK N   1      36.707   8.298  19.952  0.00  0.00     0.084 C 
HETATM   18  C   UNK N   1      36.182  10.629  20.936  0.00  0.00     0.053 C 
HETATM   19  C   UNK N   1      36.631   9.233  21.122  0.00  0.00     0.149 C 
ENDROOT
BRANCH   7  20
HETATM   20  O   UNK N   1      34.727  13.455  12.752  0.00  0.00    -0.315 OA
BRANCH  20  21
HETATM   21  C   UNK N   1      34.995  14.071  11.573  0.00  0.00     0.259 C 
HETATM   22  O   UNK N   1      35.256  13.405  10.588  0.00  0.00    -0.265 OA
BRANCH  21  23
HETATM   23  C   UNK N   1      34.977  15.571  11.468  0.00  0.00     0.111 C 
BRANCH  23  24
HETATM   24  C   UNK N   1      35.411  15.989  10.072  0.00  0.00     0.010 C 
BRANCH  24  25
HETATM   25  C   UNK N   1      34.203  16.369   9.241  0.00  0.00     0.000 C 
BRANCH  25  26
HETATM   26  C   UNK N   1      34.489  17.666   8.513  0.00  0.00     0.000 C 
BRANCH  26  27
HETATM   27  C   UNK N   1      33.354  17.996   7.576  0.00  0.00     0.000 C 
BRANCH  27  28
HETATM   28  C   UNK N   1      33.617  17.301   6.260  0.00  0.00     0.000 C 
BRANCH  28  29
HETATM   29  C   UNK N   1      32.380  17.353   5.395  0.00  0.00    -0.000 C 
BRANCH  29  30
HETATM   30  C   UNK N   1      32.783  17.727   3.986  0.00  0.00    -0.005 C 
HETATM   31  C   UNK N   1      32.527  16.557   3.061  0.00  0.00     0.005 C 
ENDBRANCH  29  30
ENDBRANCH  28  29
ENDBRANCH  27  28
ENDBRANCH  26  27
ENDBRANCH  25  26
ENDBRANCH  24  25
ENDBRANCH  23  24
ENDBRANCH  21  23
ENDBRANCH  20  21
ENDBRANCH   7  20
TORSDOF 10
ENDMDL
MODEL 3
REMARK VINA RESULT:      -6.5     15.017     18.757
REMARK  10 active torsions:
REMARK  status: ('A' for Active; 'I' for Inactive)
REMARK    1  A    between atoms: C_9  and  O_1 
REMARK    2  A    between atoms: O_1  and  C_22 
REMARK    3  A    between atoms: C_22  and  C_23 
REMARK    4  A    between atoms: C_23  and  C_24 
REMARK    5  A    between atoms: C_24  and  C_25 
REMARK    6  A    between atoms: C_25  and  C_26 
REMARK    7  A    between atoms: C_26  and  C_27 
REMARK    8  A    between atoms: C_27  and  C_28 
REMARK    9  A    between atoms: C_28  and  C_29 
REMARK   10  A    between atoms: C_29  and  C_30 
ROOT
HETATM    1  O   UNK N   1      25.849  18.152   3.247  0.00  0.00    -0.293 OA
HETATM    2  C   UNK N   1      32.582  16.401   6.889  0.00  0.00     0.001 C 
HETATM    3  C   UNK N   1      32.409  16.652   8.392  0.00  0.00    -0.013 C 
HETATM    4  C   UNK N   1      31.246  16.338   6.096  0.00  0.00    -0.005 C 
HETATM    5  C   UNK N   1      30.275  17.466   6.484  0.00  0.00    -0.002 C 
HETATM    6  C   UNK N   1      31.401  17.774   8.660  0.00  0.00     0.012 C 
HETATM    7  C   UNK N   1      33.769  17.185   8.820  0.00  0.00     0.140 C 
HETATM    8  C   UNK N   1      33.524  17.501   6.410  0.00  0.00     0.008 C 
HETATM    9  C   UNK N   1      30.073  17.481   7.994  0.00  0.00     0.006 C 
HETATM   10  C   UNK N   1      28.932  17.243   5.793  0.00  0.00     0.019 C 
HETATM   11  C   UNK N   1      34.266  18.006   7.640  0.00  0.00     0.034 C 
HETATM   12  C   UNK N   1      31.537  16.417   4.592  0.00  0.00     0.010 C 
HETATM   13  C   UNK N   1      31.986  15.402   9.157  0.00  0.00     0.018 C 
HETATM   14  C   UNK N   1      30.306  16.489   3.681  0.00  0.00     0.035 C 
HETATM   15  C   UNK N   1      29.087  17.130   4.287  0.00  0.00    -0.072 C 
HETATM   16  C   UNK N   1      27.917  18.331   6.171  0.00  0.00     0.017 C 
HETATM   17  C   UNK N   1      26.577  18.084   5.488  0.00  0.00     0.084 C 
HETATM   18  C   UNK N   1      28.055  17.412   3.476  0.00  0.00     0.053 C 
HETATM   19  C   UNK N   1      26.771  17.914   4.010  0.00  0.00     0.149 C 
ENDROOT
BRANCH   7  20
HETATM   20  O   UNK N   1      34.685  16.198   9.102  0.00  0.00    -0.315 OA
BRANCH  20  21
HETATM   21  C   UNK N   1      35.391  16.225  10.261  0.00  0.00     0.259 C 
HETATM   22  O   UNK N   1      35.369  17.222  10.959  0.00  0.00    -0.265 OA
BRANCH  21  23
HETATM   23  C   UNK N   1      36.204  15.037  10.693  0.00  0.00     0.111 C 
BRANCH  23  24
HETATM   24  C   UNK N   1      35.476  14.297  11.803  0.00  0.00     0.010 C 
BRANCH  24  25
HETATM   25  C   UNK N   1      36.472  13.624  12.725  0.00  0.00     0.000 C 
BRANCH  25  26
HETATM   26  C   UNK N   1      36.222  14.082  14.146  0.00  0.00     0.000 C 
BRANCH  26  27
HETATM   27  C   UNK N   1      35.303  13.113  14.849  0.00  0.00     0.000 C 
BRANCH  27  28
HETATM   28  C   UNK N   1      36.108  11.887  15.213  0.00  0.00     0.000 C 
BRANCH  28  29
HETATM   29  C   UNK N   1      35.227  10.661  15.168  0.00  0.00    -0.000 C 
BRANCH  29  30
HETATM   30  C   UNK N   1      33.907  11.031  14.526  0.00  0.00    -0.005 C 
HETATM   31  C   UNK N   1      33.823  10.403  13.152  0.00  0.00     0.005 C 
ENDBRANCH  29  30
ENDBRANCH  28  29
ENDBRANCH  27  28
ENDBRANCH  26  27
ENDBRANCH  25  26
ENDBRANCH  24  25
ENDBRANCH  23  24
ENDBRANCH  21  23
ENDBRANCH  20  21
ENDBRANCH   7  20
TORSDOF 10
ENDMDL
MODEL 4
REMARK VINA RESULT:      -6.4     21.670     25.369
REMARK  10 active torsions:
REMARK  status: ('A' for Active; 'I' for Inactive)
REMARK    1  A    between atoms: C_9  and  O_1 
REMARK    2  A    between atoms: O_1  and  C_22 
REMARK    3  A    between atoms: C_22  and  C_23 
REMARK    4  A    between atoms: C_23  and  C_24 
REMARK    5  A    between atoms: C_24  and  C_25 
REMARK    6  A    between atoms: C_25  and  C_26 
REMARK    7  A    between atoms: C_26  and  C_27 
REMARK    8  A    between atoms: C_27  and  C_28 
REMARK    9  A    between atoms: C_28  and  C_29 
REMARK   10  A    between atoms: C_29  and  C_30 
ROOT
HETATM    1  O   UNK N   1      36.862   8.640  22.260  0.00  0.00    -0.293 OA
HETATM    2  C   UNK N   1      35.019  12.807  15.864  0.00  0.00     0.001 C 
HETATM    3  C   UNK N   1      35.137  11.899  14.634  0.00  0.00    -0.013 C 
HETATM    4  C   UNK N   1      34.981  12.043  17.218  0.00  0.00    -0.005 C 
HETATM    5  C   UNK N   1      36.043  10.932  17.298  0.00  0.00    -0.002 C 
HETATM    6  C   UNK N   1      36.202  10.816  14.837  0.00  0.00     0.012 C 
HETATM    7  C   UNK N   1      35.673  12.832  13.557  0.00  0.00     0.140 C 
HETATM    8  C   UNK N   1      36.183  13.784  15.748  0.00  0.00     0.008 C 
HETATM    9  C   UNK N   1      35.925  10.011  16.090  0.00  0.00     0.006 C 
HETATM   10  C   UNK N   1      35.838  10.122  18.577  0.00  0.00     0.019 C 
HETATM   11  C   UNK N   1      36.605  13.788  14.285  0.00  0.00     0.034 C 
HETATM   12  C   UNK N   1      35.195  13.031  18.372  0.00  0.00     0.010 C 
HETATM   13  C   UNK N   1      33.815  11.240  14.254  0.00  0.00     0.018 C 
HETATM   14  C   UNK N   1      35.306  12.407  19.767  0.00  0.00     0.035 C 
HETATM   15  C   UNK N   1      35.856  11.007  19.810  0.00  0.00    -0.072 C 
HETATM   16  C   UNK N   1      36.858   8.982  18.690  0.00  0.00     0.017 C 
HETATM   17  C   UNK N   1      36.629   8.173  19.962  0.00  0.00     0.084 C 
HETATM   18  C   UNK N   1      36.174  10.492  21.009  0.00  0.00     0.053 C 
HETATM   19  C   UNK N   1      36.590   9.081  21.155  0.00  0.00     0.149 C 
ENDROOT
BRANCH   7  20
HETATM   20  O   UNK N   1      34.695  13.555  12.915  0.00  0.00    -0.315 OA
BRANCH  20  21
HETATM   21  C   UNK N   1      34.910  14.049  11.670  0.00  0.00     0.259 C 
HETATM   22  O   UNK N   1      34.964  13.290  10.719  0.00  0.00    -0.265 OA
BRANCH  21  23
HETATM   23  C   UNK N   1      35.087  15.525  11.449  0.00  0.00     0.111 C 
BRANCH  23  24
HETATM   24  C   UNK N   1      35.506  15.779  10.010  0.00  0.00     0.010 C 
BRANCH  24  25
HETATM   25  C   UNK N   1      34.488  16.661   9.316  0.00  0.00     0.000 C 
BRANCH  25  26
HETATM   26  C   UNK N   1      34.454  16.316   7.842  0.00  0.00     0.000 C 
BRANCH  26  27
HETATM   27  C   UNK N   1      33.036  16.041   7.406  0.00  0.00     0.000 C 
BRANCH  27  28
HETATM   28  C   UNK N   1      32.114  16.448   8.532  0.00  0.00     0.000 C 
BRANCH  28  29
HETATM   29  C   UNK N   1      30.987  17.296   7.992  0.00  0.00    -0.000 C 
BRANCH  29  30
HETATM   30  C   UNK N   1      30.716  18.425   8.961  0.00  0.00    -0.005 C 
HETATM   31  C   UNK N   1      29.247  18.437   9.324  0.00  0.00     0.005 C 
ENDBRANCH  29  30
ENDBRANCH  28  29
ENDBRANCH  27  28
ENDBRANCH  26  27
ENDBRANCH  25  26
ENDBRANCH  24  25
ENDBRANCH  23  24
ENDBRANCH  21  23
ENDBRANCH  20  21
ENDBRANCH   7  20
TORSDOF 10
ENDMDL
MODEL 5
REMARK VINA RESULT:      -6.3     10.816     14.202
REMARK  10 active torsions:
REMARK  status: ('A' for Active; 'I' for Inactive)
REMARK    1  A    between atoms: C_9  and  O_1 
REMARK    2  A    between atoms: O_1  and  C_22 
REMARK    3  A    between atoms: C_22  and  C_23 
REMARK    4  A    between atoms: C_23  and  C_24 
REMARK    5  A    between atoms: C_24  and  C_25 
REMARK    6  A    between atoms: C_25  and  C_26 
REMARK    7  A    between atoms: C_26  and  C_27 
REMARK    8  A    between atoms: C_27  and  C_28 
REMARK    9  A    between atoms: C_28  and  C_29 
REMARK   10  A    between atoms: C_29  and  C_30 
ROOT
HETATM    1  O   UNK N   1      21.278  20.415   2.502  0.00  0.00    -0.293 OA
HETATM    2  C   UNK N   1      28.258  18.021   5.187  0.00  0.00     0.001 C 
HETATM    3  C   UNK N   1      28.094  16.632   5.816  0.00  0.00    -0.013 C 
HETATM    4  C   UNK N   1      27.068  18.457   4.288  0.00  0.00    -0.005 C 
HETATM    5  C   UNK N   1      25.702  18.166   4.934  0.00  0.00    -0.002 C 
HETATM    6  C   UNK N   1      26.691  16.444   6.401  0.00  0.00     0.012 C 
HETATM    7  C   UNK N   1      29.052  16.664   6.998  0.00  0.00     0.140 C 
HETATM    8  C   UNK N   1      28.511  18.959   6.362  0.00  0.00     0.008 C 
HETATM    9  C   UNK N   1      25.627  16.703   5.355  0.00  0.00     0.006 C 
HETATM   10  C   UNK N   1      24.589  18.464   3.931  0.00  0.00     0.019 C 
HETATM   11  C   UNK N   1      29.002  18.094   7.514  0.00  0.00     0.034 C 
HETATM   12  C   UNK N   1      27.174  19.958   3.986  0.00  0.00     0.010 C 
HETATM   13  C   UNK N   1      28.387  15.499   4.837  0.00  0.00     0.018 C 
HETATM   14  C   UNK N   1      26.001  20.563   3.207  0.00  0.00     0.035 C 
HETATM   15  C   UNK N   1      24.671  19.887   3.408  0.00  0.00    -0.072 C 
HETATM   16  C   UNK N   1      23.205  18.163   4.520  0.00  0.00     0.017 C 
HETATM   17  C   UNK N   1      22.108  18.448   3.502  0.00  0.00     0.084 C 
HETATM   18  C   UNK N   1      23.576  20.496   2.925  0.00  0.00     0.053 C 
HETATM   19  C   UNK N   1      22.252  19.839   2.958  0.00  0.00     0.149 C 
ENDROOT
BRANCH   7  20
HETATM   20  O   UNK N   1      30.350  16.348   6.667  0.00  0.00    -0.315 OA
BRANCH  20  21
HETATM   21  C   UNK N   1      31.362  16.604   7.533  0.00  0.00     0.259 C 
HETATM   22  O   UNK N   1      31.369  16.076   8.630  0.00  0.00    -0.265 OA
BRANCH  21  23
HETATM   23  C   UNK N   1      32.479  17.539   7.156  0.00  0.00     0.111 C 
BRANCH  23  24
HETATM   24  C   UNK N   1      33.419  16.842   6.186  0.00  0.00     0.010 C 
BRANCH  24  25
HETATM   25  C   UNK N   1      33.482  17.606   4.878  0.00  0.00     0.000 C 
BRANCH  25  26
HETATM   26  C   UNK N   1      32.099  17.653   4.264  0.00  0.00     0.000 C 
BRANCH  26  27
HETATM   27  C   UNK N   1      32.101  16.951   2.928  0.00  0.00     0.000 C 
BRANCH  27  28
HETATM   28  C   UNK N   1      33.167  15.881   2.965  0.00  0.00     0.000 C 
BRANCH  28  29
HETATM   29  C   UNK N   1      32.531  14.517   2.847  0.00  0.00    -0.000 C 
BRANCH  29  30
HETATM   30  C   UNK N   1      31.933  14.139   4.185  0.00  0.00    -0.005 C 
HETATM   31  C   UNK N   1      32.778  13.060   4.826  0.00  0.00     0.005 C 
ENDBRANCH  29  30
ENDBRANCH  28  29
ENDBRANCH  27  28
ENDBRANCH  26  27
ENDBRANCH  25  26
ENDBRANCH  24  25
ENDBRANCH  23  24
ENDBRANCH  21  23
ENDBRANCH  20  21
ENDBRANCH   7  20
TORSDOF 10
ENDMDL
MODEL 6
REMARK VINA RESULT:      -6.2     21.406     25.045
REMARK  10 active torsions:
REMARK  status: ('A' for Active; 'I' for Inactive)
REMARK    1  A    between atoms: C_9  and  O_1 
REMARK    2  A    between atoms: O_1  and  C_22 
REMARK    3  A    between atoms: C_22  and  C_23 
REMARK    4  A    between atoms: C_23  and  C_24 
REMARK    5  A    between atoms: C_24  and  C_25 
REMARK    6  A    between atoms: C_25  and  C_26 
REMARK    7  A    between atoms: C_26  and  C_27 
REMARK    8  A    between atoms: C_27  and  C_28 
REMARK    9  A    between atoms: C_28  and  C_29 
REMARK   10  A    between atoms: C_29  and  C_30 
ROOT
HETATM    1  O   UNK N   1      36.667   9.339  22.299  0.00  0.00    -0.293 OA
HETATM    2  C   UNK N   1      34.953  12.892  15.509  0.00  0.00     0.001 C 
HETATM    3  C   UNK N   1      35.083  11.870  14.372  0.00  0.00    -0.013 C 
HETATM    4  C   UNK N   1      34.889  12.260  16.928  0.00  0.00    -0.005 C 
HETATM    5  C   UNK N   1      35.940  11.155  17.130  0.00  0.00    -0.002 C 
HETATM    6  C   UNK N   1      36.135  10.804  14.694  0.00  0.00     0.012 C 
HETATM    7  C   UNK N   1      35.642  12.693  13.220  0.00  0.00     0.140 C 
HETATM    8  C   UNK N   1      36.127  13.846  15.319  0.00  0.00     0.008 C 
HETATM    9  C   UNK N   1      35.834  10.124  16.013  0.00  0.00     0.006 C 
HETATM   10  C   UNK N   1      35.710  10.472  18.477  0.00  0.00     0.019 C 
HETATM   11  C   UNK N   1      36.571  13.709  13.869  0.00  0.00     0.034 C 
HETATM   12  C   UNK N   1      35.094  13.351  17.987  0.00  0.00     0.010 C 
HETATM   13  C   UNK N   1      33.761  11.187  14.035  0.00  0.00     0.018 C 
HETATM   14  C   UNK N   1      35.178  12.862  19.436  0.00  0.00     0.035 C 
HETATM   15  C   UNK N   1      35.716  11.469  19.621  0.00  0.00    -0.072 C 
HETATM   16  C   UNK N   1      36.719   9.341  18.713  0.00  0.00     0.017 C 
HETATM   17  C   UNK N   1      36.464   8.657  20.052  0.00  0.00     0.084 C 
HETATM   18  C   UNK N   1      36.012  11.068  20.868  0.00  0.00     0.053 C 
HETATM   19  C   UNK N   1      36.415   9.674  21.153  0.00  0.00     0.149 C 
ENDROOT
BRANCH   7  20
HETATM   20  O   UNK N   1      34.679  13.359  12.498  0.00  0.00    -0.315 OA
BRANCH  20  21
HETATM   21  C   UNK N   1      35.006  14.011  11.354  0.00  0.00     0.259 C 
HETATM   22  O   UNK N   1      34.988  15.228  11.324  0.00  0.00    -0.265 OA
BRANCH  21  23
HETATM   23  C   UNK N   1      35.390  13.247  10.117  0.00  0.00     0.111 C 
BRANCH  23  24
HETATM   24  C   UNK N   1      35.281  14.155   8.903  0.00  0.00     0.010 C 
BRANCH  24  25
HETATM   25  C   UNK N   1      34.100  13.744   8.046  0.00  0.00     0.000 C 
BRANCH  25  26
HETATM   26  C   UNK N   1      34.309  14.252   6.635  0.00  0.00     0.000 C 
BRANCH  26  27
HETATM   27  C   UNK N   1      34.913  15.635   6.666  0.00  0.00     0.000 C 
BRANCH  27  28
HETATM   28  C   UNK N   1      33.817  16.629   6.358  0.00  0.00     0.000 C 
BRANCH  28  29
HETATM   29  C   UNK N   1      33.985  17.861   7.216  0.00  0.00    -0.000 C 
BRANCH  29  30
HETATM   30  C   UNK N   1      33.390  17.590   8.581  0.00  0.00    -0.005 C 
HETATM   31  C   UNK N   1      31.916  17.280   8.435  0.00  0.00     0.005 C 
ENDBRANCH  29  30
ENDBRANCH  28  29
ENDBRANCH  27  28
ENDBRANCH  26  27
ENDBRANCH  25  26
ENDBRANCH  24  25
ENDBRANCH  23  24
ENDBRANCH  21  23
ENDBRANCH  20  21
ENDBRANCH   7  20
TORSDOF 10
ENDMDL
MODEL 7
REMARK VINA RESULT:      -6.1     23.201     26.739
REMARK  10 active torsions:
REMARK  status: ('A' for Active; 'I' for Inactive)
REMARK    1  A    between atoms: C_9  and  O_1 
REMARK    2  A    between atoms: O_1  and  C_22 
REMARK    3  A    between atoms: C_22  and  C_23 
REMARK    4  A    between atoms: C_23  and  C_24 
REMARK    5  A    between atoms: C_24  and  C_25 
REMARK    6  A    between atoms: C_25  and  C_26 
REMARK    7  A    between atoms: C_26  and  C_27 
REMARK    8  A    between atoms: C_27  and  C_28 
REMARK    9  A    between atoms: C_28  and  C_29 
REMARK   10  A    between atoms: C_29  and  C_30 
ROOT
HETATM    1  O   UNK N   1      37.099   8.278  22.057  0.00  0.00    -0.293 OA
HETATM    2  C   UNK N   1      35.050  12.742  15.930  0.00  0.00     0.001 C 
HETATM    3  C   UNK N   1      35.152  11.901  14.651  0.00  0.00    -0.013 C 
HETATM    4  C   UNK N   1      35.055  11.908  17.242  0.00  0.00    -0.005 C 
HETATM    5  C   UNK N   1      36.133  10.811  17.240  0.00  0.00    -0.002 C 
HETATM    6  C   UNK N   1      36.235  10.824  14.773  0.00  0.00     0.012 C 
HETATM    7  C   UNK N   1      35.650  12.896  13.613  0.00  0.00     0.140 C 
HETATM    8  C   UNK N   1      36.198  13.741  15.838  0.00  0.00     0.008 C 
HETATM    9  C   UNK N   1      35.999   9.952  15.989  0.00  0.00     0.006 C 
HETATM   10  C   UNK N   1      35.969   9.933  18.480  0.00  0.00     0.019 C 
HETATM   11  C   UNK N   1      36.585  13.827  14.368  0.00  0.00     0.034 C 
HETATM   12  C   UNK N   1      35.282  12.838  18.441  0.00  0.00     0.010 C 
HETATM   13  C   UNK N   1      33.831  11.243  14.267  0.00  0.00     0.018 C 
HETATM   14  C   UNK N   1      35.434  12.145  19.799  0.00  0.00     0.035 C 
HETATM   15  C   UNK N   1      36.004  10.753  19.757  0.00  0.00    -0.072 C 
HETATM   16  C   UNK N   1      37.007   8.804  18.510  0.00  0.00     0.017 C 
HETATM   17  C   UNK N   1      36.818   7.927  19.743  0.00  0.00     0.084 C 
HETATM   18  C   UNK N   1      36.356  10.181  20.919  0.00  0.00     0.053 C 
HETATM   19  C   UNK N   1      36.795   8.771  20.983  0.00  0.00     0.149 C 
ENDROOT
BRANCH   7  20
HETATM   20  O   UNK N   1      34.647  13.637  13.031  0.00  0.00    -0.315 OA
BRANCH  20  21
HETATM   21  C   UNK N   1      34.734  14.010  11.730  0.00  0.00     0.259 C 
HETATM   22  O   UNK N   1      34.200  15.039  11.358  0.00  0.00    -0.265 OA
BRANCH  21  23
HETATM   23  C   UNK N   1      35.480  13.163  10.736  0.00  0.00     0.111 C 
BRANCH  23  24
HETATM   24  C   UNK N   1      36.822  13.806  10.426  0.00  0.00     0.010 C 
BRANCH  24  25
HETATM   25  C   UNK N   1      37.952  12.878  10.825  0.00  0.00     0.000 C 
BRANCH  25  26
HETATM   26  C   UNK N   1      37.526  11.445  10.585  0.00  0.00     0.000 C 
BRANCH  26  27
HETATM   27  C   UNK N   1      37.916  10.584  11.761  0.00  0.00     0.000 C 
BRANCH  27  28
HETATM   28  C   UNK N   1      37.330   9.207  11.547  0.00  0.00     0.000 C 
BRANCH  28  29
HETATM   29  C   UNK N   1      38.332   8.154  11.956  0.00  0.00    -0.000 C 
BRANCH  29  30
HETATM   30  C   UNK N   1      38.944   8.549  13.282  0.00  0.00    -0.005 C 
HETATM   31  C   UNK N   1      38.396   7.658  14.375  0.00  0.00     0.005 C 
ENDBRANCH  29  30
ENDBRANCH  28  29
ENDBRANCH  27  28
ENDBRANCH  26  27
ENDBRANCH  25  26
ENDBRANCH  24  25
ENDBRANCH  23  24
ENDBRANCH  21  23
ENDBRANCH  20  21
ENDBRANCH   7  20
TORSDOF 10
ENDMDL
MODEL 8
REMARK VINA RESULT:      -6.1     13.724     17.629
REMARK  10 active torsions:
REMARK  status: ('A' for Active; 'I' for Inactive)
REMARK    1  A    between atoms: C_9  and  O_1 
REMARK    2  A    between atoms: O_1  and  C_22 
REMARK    3  A    between atoms: C_22  and  C_23 
REMARK    4  A    between atoms: C_23  and  C_24 
REMARK    5  A    between atoms: C_24  and  C_25 
REMARK    6  A    between atoms: C_25  and  C_26 
REMARK    7  A    between atoms: C_26  and  C_27 
REMARK    8  A    between atoms: C_27  and  C_28 
REMARK    9  A    between atoms: C_28  and  C_29 
REMARK   10  A    between atoms: C_29  and  C_30 
ROOT
HETATM    1  O   UNK N   1      25.239  14.869   1.310  0.00  0.00    -0.293 OA
HETATM    2  C   UNK N   1      30.586  17.923   6.182  0.00  0.00     0.001 C 
HETATM    3  C   UNK N   1      31.846  17.049   6.142  0.00  0.00    -0.013 C 
HETATM    4  C   UNK N   1      29.599  17.671   5.009  0.00  0.00    -0.005 C 
HETATM    5  C   UNK N   1      29.373  16.174   4.739  0.00  0.00    -0.002 C 
HETATM    6  C   UNK N   1      31.504  15.587   5.839  0.00  0.00     0.012 C 
HETATM    7  C   UNK N   1      32.346  17.084   7.579  0.00  0.00     0.140 C 
HETATM    8  C   UNK N   1      29.976  17.674   7.557  0.00  0.00     0.008 C 
HETATM    9  C   UNK N   1      30.712  15.470   4.553  0.00  0.00     0.006 C 
HETATM   10  C   UNK N   1      28.530  16.005   3.476  0.00  0.00     0.019 C 
HETATM   11  C   UNK N   1      31.092  17.129   8.438  0.00  0.00     0.034 C 
HETATM   12  C   UNK N   1      28.252  18.338   5.318  0.00  0.00     0.010 C 
HETATM   13  C   UNK N   1      32.879  17.544   5.134  0.00  0.00     0.018 C 
HETATM   14  C   UNK N   1      27.133  18.074   4.304  0.00  0.00     0.035 C 
HETATM   15  C   UNK N   1      27.218  16.762   3.571  0.00  0.00    -0.072 C 
HETATM   16  C   UNK N   1      28.299  14.524   3.148  0.00  0.00     0.017 C 
HETATM   17  C   UNK N   1      27.472  14.372   1.876  0.00  0.00     0.084 C 
HETATM   18  C   UNK N   1      26.161  16.383   2.834  0.00  0.00     0.053 C 
HETATM   19  C   UNK N   1      26.213  15.181   1.975  0.00  0.00     0.149 C 
ENDROOT
BRANCH   7  20
HETATM   20  O   UNK N   1      33.129  18.179   7.865  0.00  0.00    -0.315 OA
BRANCH  20  21
HETATM   21  C   UNK N   1      34.383  18.018   8.358  0.00  0.00     0.259 C 
HETATM   22  O   UNK N   1      35.131  18.976   8.434  0.00  0.00    -0.265 OA
BRANCH  21  23
HETATM   23  C   UNK N   1      34.864  16.666   8.809  0.00  0.00     0.111 C 
BRANCH  23  24
HETATM   24  C   UNK N   1      34.992  16.650  10.323  0.00  0.00     0.010 C 
BRANCH  24  25
HETATM   25  C   UNK N   1      34.579  15.299  10.869  0.00  0.00     0.000 C 
BRANCH  25  26
HETATM   26  C   UNK N   1      35.643  14.802  11.824  0.00  0.00     0.000 C 
BRANCH  26  27
HETATM   27  C   UNK N   1      35.176  13.543  12.513  0.00  0.00     0.000 C 
BRANCH  27  28
HETATM   28  C   UNK N   1      35.854  13.471  13.862  0.00  0.00     0.000 C 
BRANCH  28  29
HETATM   29  C   UNK N   1      34.950  12.778  14.854  0.00  0.00    -0.000 C 
BRANCH  29  30
HETATM   30  C   UNK N   1      35.026  11.284  14.625  0.00  0.00    -0.005 C 
HETATM   31  C   UNK N   1      33.636  10.691  14.710  0.00  0.00     0.005 C 
ENDBRANCH  29  30
ENDBRANCH  28  29
ENDBRANCH  27  28
ENDBRANCH  26  27
ENDBRANCH  25  26
ENDBRANCH  24  25
ENDBRANCH  23  24
ENDBRANCH  21  23
ENDBRANCH  20  21
ENDBRANCH   7  20
TORSDOF 10
ENDMDL
MODEL 9
REMARK VINA RESULT:      -6.0     12.700     15.073
REMARK  10 active torsions:
REMARK  status: ('A' for Active; 'I' for Inactive)
REMARK    1  A    between atoms: C_9  and  O_1 
REMARK    2  A    between atoms: O_1  and  C_22 
REMARK    3  A    between atoms: C_22  and  C_23 
REMARK    4  A    between atoms: C_23  and  C_24 
REMARK    5  A    between atoms: C_24  and  C_25 
REMARK    6  A    between atoms: C_25  and  C_26 
REMARK    7  A    between atoms: C_26  and  C_27 
REMARK    8  A    between atoms: C_27  and  C_28 
REMARK    9  A    between atoms: C_28  and  C_29 
REMARK   10  A    between atoms: C_29  and  C_30 
ROOT
HETATM    1  O   UNK N   1      34.695  18.028   7.399  0.00  0.00    -0.293 OA
HETATM    2  C   UNK N   1      28.639  15.985   2.836  0.00  0.00     0.001 C 
HETATM    3  C   UNK N   1      27.401  15.788   3.720  0.00  0.00    -0.013 C 
HETATM    4  C   UNK N   1      29.802  16.747   3.531  0.00  0.00    -0.005 C 
HETATM    5  C   UNK N   1      30.066  16.246   4.961  0.00  0.00    -0.002 C 
HETATM    6  C   UNK N   1      27.785  15.316   5.126  0.00  0.00     0.012 C 
HETATM    7  C   UNK N   1      26.676  14.624   3.058  0.00  0.00     0.140 C 
HETATM    8  C   UNK N   1      29.020  14.583   2.373  0.00  0.00     0.008 C 
HETATM    9  C   UNK N   1      28.773  16.267   5.767  0.00  0.00     0.006 C 
HETATM   10  C   UNK N   1      31.101  17.145   5.634  0.00  0.00     0.019 C 
HETATM   11  C   UNK N   1      27.776  13.719   2.527  0.00  0.00     0.034 C 
HETATM   12  C   UNK N   1      31.083  16.600   2.699  0.00  0.00     0.010 C 
HETATM   13  C   UNK N   1      26.544  17.046   3.828  0.00  0.00     0.018 C 
HETATM   14  C   UNK N   1      32.350  17.198   3.320  0.00  0.00     0.035 C 
HETATM   15  C   UNK N   1      32.381  17.232   4.824  0.00  0.00    -0.072 C 
HETATM   16  C   UNK N   1      31.379  16.701   7.076  0.00  0.00     0.017 C 
HETATM   17  C   UNK N   1      32.399  17.620   7.740  0.00  0.00     0.084 C 
HETATM   18  C   UNK N   1      33.542  17.544   5.423  0.00  0.00     0.053 C 
HETATM   19  C   UNK N   1      33.627  17.734   6.887  0.00  0.00     0.149 C 
ENDROOT
BRANCH   7  20
HETATM   20  O   UNK N   1      25.860  15.002   2.017  0.00  0.00    -0.315 OA
BRANCH  20  21
HETATM   21  C   UNK N   1      24.641  14.428   1.857  0.00  0.00     0.259 C 
HETATM   22  O   UNK N   1      24.128  14.394   0.753  0.00  0.00    -0.265 OA
BRANCH  21  23
HETATM   23  C   UNK N   1      23.910  13.835   3.030  0.00  0.00     0.111 C 
BRANCH  23  24
HETATM   24  C   UNK N   1      23.192  14.936   3.793  0.00  0.00     0.010 C 
BRANCH  24  25
HETATM   25  C   UNK N   1      23.731  15.031   5.206  0.00  0.00     0.000 C 
BRANCH  25  26
HETATM   26  C   UNK N   1      23.181  13.883   6.025  0.00  0.00     0.000 C 
BRANCH  26  27
HETATM   27  C   UNK N   1      23.494  14.092   7.487  0.00  0.00     0.000 C 
BRANCH  27  28
HETATM   28  C   UNK N   1      24.607  13.142   7.866  0.00  0.00     0.000 C 
BRANCH  28  29
HETATM   29  C   UNK N   1      24.750  13.092   9.369  0.00  0.00    -0.000 C 
BRANCH  29  30
HETATM   30  C   UNK N   1      23.378  12.931   9.986  0.00  0.00    -0.005 C 
HETATM   31  C   UNK N   1      23.471  12.022  11.192  0.00  0.00     0.005 C 
ENDBRANCH  29  30
ENDBRANCH  28  29
ENDBRANCH  27  28
ENDBRANCH  26  27
ENDBRANCH  25  26
ENDBRANCH  24  25
ENDBRANCH  23  24
ENDBRANCH  21  23
ENDBRANCH  20  21
ENDBRANCH   7  20
TORSDOF 10
ENDMDL
