REMARK  10 active torsions:
REMARK  status: ('A' for Active; 'I' for Inactive)
REMARK    1  A    between atoms: C_9  and  O_1 
REMARK    2  A    between atoms: O_1  and  C_22 
REMARK    3  A    between atoms: C_22  and  C_23 
REMARK    4  A    between atoms: C_23  and  C_24 
REMARK    5  A    between atoms: C_24  and  C_25 
REMARK    6  A    between atoms: C_25  and  C_26 
REMARK    7  A    between atoms: C_26  and  C_27 
REMARK    8  A    between atoms: C_27  and  C_28 
REMARK    9  A    between atoms: C_28  and  C_29 
REMARK   10  A    between atoms: C_29  and  C_30 
ROOT
HETATM    1  O   UNK N   1      -1.201  -5.435  -0.099  0.00  0.00    -0.293 OA
HETATM    2  C   UNK N   1       6.281  -3.097   0.368  0.00  0.00     0.001 C 
HETATM    3  C   UNK N   1       6.339  -1.582   0.137  0.00  0.00    -0.013 C 
HETATM    4  C   UNK N   1       4.858  -3.639   0.680  0.00  0.00    -0.005 C 
HETATM    5  C   UNK N   1       3.786  -3.058  -0.258  0.00  0.00    -0.002 C 
HETATM    6  C   UNK N   1       5.211  -1.112  -0.787  0.00  0.00     0.012 C 
HETATM    7  C   UNK N   1       7.636  -1.392  -0.637  0.00  0.00     0.140 C 
HETATM    8  C   UNK N   1       6.908  -3.711  -0.879  0.00  0.00     0.008 C 
HETATM    9  C   UNK N   1       3.859  -1.536  -0.252  0.00  0.00     0.006 C 
HETATM   10  C   UNK N   1       2.402  -3.503   0.211  0.00  0.00     0.019 C 
HETATM   11  C   UNK N   1       7.757  -2.623  -1.522  0.00  0.00     0.034 C 
HETATM   12  C   UNK N   1       4.854  -5.169   0.565  0.00  0.00     0.010 C 
HETATM   13  C   UNK N   1       6.292  -0.782   1.435  0.00  0.00     0.018 C 
HETATM   14  C   UNK N   1       3.487  -5.843   0.726  0.00  0.00     0.035 C 
HETATM   15  C   UNK N   1       2.302  -5.014   0.310  0.00  0.00    -0.072 C 
HETATM   16  C   UNK N   1       1.294  -2.925  -0.679  0.00  0.00     0.017 C 
HETATM   17  C   UNK N   1      -0.081  -3.363  -0.187  0.00  0.00     0.084 C 
HETATM   18  C   UNK N   1       1.107  -5.621   0.227  0.00  0.00     0.053 C 
HETATM   19  C   UNK N   1      -0.129  -4.855  -0.040  0.00  0.00     0.149 C 
ENDROOT
BRANCH   7  20
HETATM   20  O   UNK N   1       8.750  -1.301   0.165  0.00  0.00    -0.315 OA
BRANCH  20  21
HETATM   21  C   UNK N   1       9.543  -0.201   0.118  0.00  0.00     0.259 C 
HETATM   22  O   UNK N   1      10.564  -0.162   0.780  0.00  0.00    -0.265 OA
BRANCH  21  23
HETATM   23  C   UNK N   1       9.174   0.976  -0.742  0.00  0.00     0.111 C 
BRANCH  23  24
HETATM   24  C   UNK N   1       8.512   2.044   0.113  0.00  0.00     0.010 C 
BRANCH  24  25
HETATM   25  C   UNK N   1       9.184   3.384  -0.110  0.00  0.00     0.000 C 
BRANCH  25  26
HETATM   26  C   UNK N   1      10.595   3.329   0.436  0.00  0.00     0.000 C 
BRANCH  26  27
HETATM   27  C   UNK N   1      11.384   4.522  -0.045  0.00  0.00     0.000 C 
BRANCH  27  28
HETATM   28  C   UNK N   1      12.853   4.209   0.124  0.00  0.00     0.000 C 
BRANCH  28  29
HETATM   29  C   UNK N   1      13.676   5.447  -0.143  0.00  0.00    -0.000 C 
BRANCH  29  30
HETATM   30  C   UNK N   1      15.140   5.109   0.034  0.00  0.00    -0.005 C 
HETATM   31  C   UNK N   1      15.963   6.376  -0.050  0.00  0.00     0.005 C 
ENDBRANCH  29  30
ENDBRANCH  28  29
ENDBRANCH  27  28
ENDBRANCH  26  27
ENDBRANCH  25  26
ENDBRANCH  24  25
ENDBRANCH  23  24
ENDBRANCH  21  23
ENDBRANCH  20  21
ENDBRANCH   7  20
TORSDOF 10
