MODEL 1
REMARK VINA RESULT:      -6.1      0.000      0.000
REMARK  4 active torsions:
REMARK  status: ('A' for Active; 'I' for Inactive)
REMARK    1  A    between atoms: S_1  and  O_2 
REMARK    2  A    between atoms: S_1  and  O_5 
REMARK    3  A    between atoms: O_2  and  N_9 
REMARK       I    between atoms: N_10  and  C_17 
REMARK    4  A    between atoms: C_14  and  C_17 
ROOT
HETATM    1  O   UNK N   1      26.750  23.933  -2.614  0.00  0.00    -0.251 OA
HETATM    2  N   UNK N   1      27.270  25.093  -4.495  0.00  0.00    -0.217 NA
HETATM    3  N   UNK N   1      28.764  23.762  -3.585  0.00  0.00    -0.187 N 
HETATM    4  C   UNK N   1      29.185  24.016  -4.953  0.00  0.00     0.134 C 
HETATM    5  C   UNK N   1      28.537  25.388  -5.152  0.00  0.00     0.129 C 
HETATM    6  C   UNK N   1      28.407  23.035  -5.912  0.00  0.00     0.031 C 
HETATM    7  C   UNK N   1      26.227  24.566  -5.356  0.00  0.00     0.159 C 
HETATM    8  C   UNK N   1      26.907  23.453  -6.260  0.00  0.00     0.032 C 
HETATM    9  C   UNK N   1      27.569  24.321  -3.437  0.00  0.00     0.325 C 
ENDROOT
BRANCH   3  10
HETATM   10  O   UNK N   1      29.189  22.727  -2.840  0.00  0.00    -0.132 OA
BRANCH  10  11
HETATM   11  S   UNK N   1      30.905  22.724  -3.021  0.00  0.00     0.263 S 
HETATM   12  O   UNK N   1      30.410  21.297  -3.307  0.00  0.00    -0.578 OA
HETATM   13  O   UNK N   1      30.635  22.956  -1.525  0.00  0.00    -0.578 OA
BRANCH  11  14
HETATM   14  O   UNK N   1      31.928  21.646  -2.162  0.00  0.00    -0.272 OA
HETATM   15  H   UNK N   1      32.122  20.920  -2.812  0.00  0.00     0.234 HD
ENDBRANCH  11  14
ENDBRANCH  10  11
ENDBRANCH   3  10
BRANCH   7  16
HETATM   16  C   UNK N   1      25.601  25.658  -6.210  0.00  0.00     0.233 C 
HETATM   17  O   UNK N   1      25.720  25.634  -7.426  0.00  0.00    -0.272 OA
HETATM   18  N   UNK N   1      24.898  26.658  -5.629  0.00  0.00    -0.369 N 
HETATM   19  H   UNK N   1      24.779  26.690  -4.606  0.00  0.00     0.159 HD
HETATM   20  H   UNK N   1      24.460  27.392  -6.207  0.00  0.00     0.159 HD
ENDBRANCH   7  16
TORSDOF 4
ENDMDL
MODEL 2
REMARK VINA RESULT:      -5.8     16.300     18.420
REMARK  4 active torsions:
REMARK  status: ('A' for Active; 'I' for Inactive)
REMARK    1  A    between atoms: S_1  and  O_2 
REMARK    2  A    between atoms: S_1  and  O_5 
REMARK    3  A    between atoms: O_2  and  N_9 
REMARK       I    between atoms: N_10  and  C_17 
REMARK    4  A    between atoms: C_14  and  C_17 
ROOT
HETATM    1  O   UNK N   1      35.603  17.595  10.197  0.00  0.00    -0.251 OA
HETATM    2  N   UNK N   1      34.897  15.569  10.936  0.00  0.00    -0.217 NA
HETATM    3  N   UNK N   1      34.844  16.026   8.787  0.00  0.00    -0.187 N 
HETATM    4  C   UNK N   1      34.765  14.581   8.925  0.00  0.00     0.134 C 
HETATM    5  C   UNK N   1      34.117  14.508  10.310  0.00  0.00     0.129 C 
HETATM    6  C   UNK N   1      36.224  14.009   9.107  0.00  0.00     0.031 C 
HETATM    7  C   UNK N   1      36.126  15.144  11.579  0.00  0.00     0.159 C 
HETATM    8  C   UNK N   1      36.843  14.150  10.571  0.00  0.00     0.032 C 
HETATM    9  C   UNK N   1      35.050  16.521  10.001  0.00  0.00     0.325 C 
ENDROOT
BRANCH   3  10
HETATM   10  O   UNK N   1      35.213  16.661   7.661  0.00  0.00    -0.132 OA
BRANCH  10  11
HETATM   11  S   UNK N   1      33.735  17.005   6.840  0.00  0.00     0.263 S 
HETATM   12  O   UNK N   1      34.663  16.297   5.839  0.00  0.00    -0.578 OA
HETATM   13  O   UNK N   1      34.396  18.366   7.115  0.00  0.00    -0.578 OA
BRANCH  11  14
HETATM   14  O   UNK N   1      33.673  17.891   5.370  0.00  0.00    -0.272 OA
HETATM   15  H   UNK N   1      33.122  18.688   5.587  0.00  0.00     0.234 HD
ENDBRANCH  11  14
ENDBRANCH  10  11
ENDBRANCH   3  10
BRANCH   7  16
HETATM   16  C   UNK N   1      35.856  14.469  12.915  0.00  0.00     0.233 C 
HETATM   17  O   UNK N   1      34.874  13.757  13.058  0.00  0.00    -0.272 OA
HETATM   18  N   UNK N   1      36.707  14.646  13.953  0.00  0.00    -0.369 N 
HETATM   19  H   UNK N   1      37.545  15.236  13.848  0.00  0.00     0.159 HD
HETATM   20  H   UNK N   1      36.534  14.177  14.855  0.00  0.00     0.159 HD
ENDBRANCH   7  16
TORSDOF 4
ENDMDL
MODEL 3
REMARK VINA RESULT:      -5.7      1.761      2.275
REMARK  4 active torsions:
REMARK  status: ('A' for Active; 'I' for Inactive)
REMARK    1  A    between atoms: S_1  and  O_2 
REMARK    2  A    between atoms: S_1  and  O_5 
REMARK    3  A    between atoms: O_2  and  N_9 
REMARK       I    between atoms: N_10  and  C_17 
REMARK    4  A    between atoms: C_14  and  C_17 
ROOT
HETATM    1  O   UNK N   1      29.967  26.877  -3.698  0.00  0.00    -0.251 OA
HETATM    2  N   UNK N   1      28.398  26.040  -5.109  0.00  0.00    -0.217 NA
HETATM    3  N   UNK N   1      29.551  24.678  -3.826  0.00  0.00    -0.187 N 
HETATM    4  C   UNK N   1      28.370  23.957  -4.272  0.00  0.00     0.134 C 
HETATM    5  C   UNK N   1      28.127  24.693  -5.593  0.00  0.00     0.129 C 
HETATM    6  C   UNK N   1      27.158  24.345  -3.341  0.00  0.00     0.031 C 
HETATM    7  C   UNK N   1      27.250  26.761  -4.590  0.00  0.00     0.159 C 
HETATM    8  C   UNK N   1      26.465  25.747  -3.656  0.00  0.00     0.032 C 
HETATM    9  C   UNK N   1      29.427  25.929  -4.252  0.00  0.00     0.325 C 
ENDROOT
BRANCH   3  10
HETATM   10  O   UNK N   1      30.289  24.335  -2.755  0.00  0.00    -0.132 OA
BRANCH  10  11
HETATM   11  S   UNK N   1      30.501  22.628  -2.890  0.00  0.00     0.263 S 
HETATM   12  O   UNK N   1      30.551  22.981  -1.395  0.00  0.00    -0.578 OA
HETATM   13  O   UNK N   1      31.761  23.264  -3.500  0.00  0.00    -0.578 OA
BRANCH  11  14
HETATM   14  O   UNK N   1      31.847  21.803  -2.215  0.00  0.00    -0.272 OA
HETATM   15  H   UNK N   1      32.075  22.328  -1.402  0.00  0.00     0.234 HD
ENDBRANCH  11  14
ENDBRANCH  10  11
ENDBRANCH   3  10
BRANCH   7  16
HETATM   16  C   UNK N   1      26.360  27.276  -5.711  0.00  0.00     0.233 C 
HETATM   17  O   UNK N   1      26.843  27.905  -6.642  0.00  0.00    -0.272 OA
HETATM   18  N   UNK N   1      25.029  27.035  -5.690  0.00  0.00    -0.369 N 
HETATM   19  H   UNK N   1      24.605  26.499  -4.918  0.00  0.00     0.159 HD
HETATM   20  H   UNK N   1      24.426  27.371  -6.456  0.00  0.00     0.159 HD
ENDBRANCH   7  16
TORSDOF 4
ENDMDL
MODEL 4
REMARK VINA RESULT:      -5.7     15.831     17.579
REMARK  4 active torsions:
REMARK  status: ('A' for Active; 'I' for Inactive)
REMARK    1  A    between atoms: S_1  and  O_2 
REMARK    2  A    between atoms: S_1  and  O_5 
REMARK    3  A    between atoms: O_2  and  N_9 
REMARK       I    between atoms: N_10  and  C_17 
REMARK    4  A    between atoms: C_14  and  C_17 
ROOT
HETATM    1  O   UNK N   1      35.140  17.337  10.536  0.00  0.00    -0.251 OA
HETATM    2  N   UNK N   1      34.555  16.322   8.592  0.00  0.00    -0.217 NA
HETATM    3  N   UNK N   1      34.608  15.161  10.457  0.00  0.00    -0.187 N 
HETATM    4  C   UNK N   1      33.809  14.410   9.502  0.00  0.00     0.134 C 
HETATM    5  C   UNK N   1      34.445  14.921   8.206  0.00  0.00     0.129 C 
HETATM    6  C   UNK N   1      32.340  14.984   9.509  0.00  0.00     0.031 C 
HETATM    7  C   UNK N   1      33.411  17.152   8.262  0.00  0.00     0.159 C 
HETATM    8  C   UNK N   1      32.121  16.333   8.686  0.00  0.00     0.032 C 
HETATM    9  C   UNK N   1      34.897  16.326   9.890  0.00  0.00     0.325 C 
ENDROOT
BRANCH   3  10
HETATM   10  O   UNK N   1      34.565  14.981  11.789  0.00  0.00    -0.132 OA
BRANCH  10  11
HETATM   11  S   UNK N   1      35.873  13.910  12.135  0.00  0.00     0.263 S 
HETATM   12  O   UNK N   1      34.614  13.329  12.800  0.00  0.00    -0.578 OA
HETATM   13  O   UNK N   1      36.172  15.211  12.900  0.00  0.00    -0.578 OA
BRANCH  11  14
HETATM   14  O   UNK N   1      36.302  13.455  13.734  0.00  0.00    -0.272 OA
HETATM   15  H   UNK N   1      36.748  14.261  14.108  0.00  0.00     0.234 HD
ENDBRANCH  11  14
ENDBRANCH  10  11
ENDBRANCH   3  10
BRANCH   7  16
HETATM   16  C   UNK N   1      33.379  17.498   6.781  0.00  0.00     0.233 C 
HETATM   17  O   UNK N   1      34.366  17.972   6.237  0.00  0.00    -0.272 OA
HETATM   18  N   UNK N   1      32.261  17.275   6.053  0.00  0.00    -0.369 N 
HETATM   19  H   UNK N   1      31.422  16.869   6.492  0.00  0.00     0.159 HD
HETATM   20  H   UNK N   1      32.242  17.496   5.045  0.00  0.00     0.159 HD
ENDBRANCH   7  16
TORSDOF 4
ENDMDL
MODEL 5
REMARK VINA RESULT:      -5.5     12.717     14.287
REMARK  4 active torsions:
REMARK  status: ('A' for Active; 'I' for Inactive)
REMARK    1  A    between atoms: S_1  and  O_2 
REMARK    2  A    between atoms: S_1  and  O_5 
REMARK    3  A    between atoms: O_2  and  N_9 
REMARK       I    between atoms: N_10  and  C_17 
REMARK    4  A    between atoms: C_14  and  C_17 
ROOT
HETATM    1  O   UNK N   1      21.034  18.800   6.980  0.00  0.00    -0.251 OA
HETATM    2  N   UNK N   1      20.755  16.718   6.120  0.00  0.00    -0.217 NA
HETATM    3  N   UNK N   1      21.323  18.378   4.797  0.00  0.00    -0.187 N 
HETATM    4  C   UNK N   1      21.637  17.141   4.100  0.00  0.00     0.134 C 
HETATM    5  C   UNK N   1      20.599  16.228   4.757  0.00  0.00     0.129 C 
HETATM    6  C   UNK N   1      23.039  16.620   4.601  0.00  0.00     0.031 C 
HETATM    7  C   UNK N   1      21.749  16.029   6.923  0.00  0.00     0.159 C 
HETATM    8  C   UNK N   1      23.035  15.868   6.007  0.00  0.00     0.032 C 
HETATM    9  C   UNK N   1      20.933  18.046   6.022  0.00  0.00     0.325 C 
ENDROOT
BRANCH   3  10
HETATM   10  O   UNK N   1      21.855  19.575   4.493  0.00  0.00    -0.132 OA
BRANCH  10  11
HETATM   11  S   UNK N   1      21.309  19.911   2.891  0.00  0.00     0.263 S 
HETATM   12  O   UNK N   1      22.674  20.596   3.065  0.00  0.00    -0.578 OA
HETATM   13  O   UNK N   1      20.354  20.663   3.834  0.00  0.00    -0.578 OA
BRANCH  11  14
HETATM   14  O   UNK N   1      21.162  21.507   2.275  0.00  0.00    -0.272 OA
HETATM   15  H   UNK N   1      21.726  22.057   2.881  0.00  0.00     0.234 HD
ENDBRANCH  11  14
ENDBRANCH  10  11
ENDBRANCH   3  10
BRANCH   7  16
HETATM   16  C   UNK N   1      21.243  14.677   7.402  0.00  0.00     0.233 C 
HETATM   17  O   UNK N   1      20.115  14.568   7.860  0.00  0.00    -0.272 OA
HETATM   18  N   UNK N   1      22.035  13.583   7.314  0.00  0.00    -0.369 N 
HETATM   19  H   UNK N   1      22.985  13.654   6.922  0.00  0.00     0.159 HD
HETATM   20  H   UNK N   1      21.688  12.662   7.625  0.00  0.00     0.159 HD
ENDBRANCH   7  16
TORSDOF 4
ENDMDL
MODEL 6
REMARK VINA RESULT:      -5.5     13.171     15.386
REMARK  4 active torsions:
REMARK  status: ('A' for Active; 'I' for Inactive)
REMARK    1  A    between atoms: S_1  and  O_2 
REMARK    2  A    between atoms: S_1  and  O_5 
REMARK    3  A    between atoms: O_2  and  N_9 
REMARK       I    between atoms: N_10  and  C_17 
REMARK    4  A    between atoms: C_14  and  C_17 
ROOT
HETATM    1  O   UNK N   1      35.077  16.091   6.064  0.00  0.00    -0.251 OA
HETATM    2  N   UNK N   1      34.284  17.169   7.897  0.00  0.00    -0.217 NA
HETATM    3  N   UNK N   1      32.972  16.855   6.163  0.00  0.00    -0.187 N 
HETATM    4  C   UNK N   1      32.120  17.153   7.302  0.00  0.00     0.134 C 
HETATM    5  C   UNK N   1      33.103  17.992   8.122  0.00  0.00     0.129 C 
HETATM    6  C   UNK N   1      31.900  15.828   8.129  0.00  0.00     0.031 C 
HETATM    7  C   UNK N   1      34.503  16.112   8.868  0.00  0.00     0.159 C 
HETATM    8  C   UNK N   1      33.100  15.406   9.092  0.00  0.00     0.032 C 
HETATM    9  C   UNK N   1      34.213  16.755   6.621  0.00  0.00     0.325 C 
ENDROOT
BRANCH   3  10
HETATM   10  O   UNK N   1      32.551  16.247   5.039  0.00  0.00    -0.132 OA
BRANCH  10  11
HETATM   11  S   UNK N   1      32.111  17.533   3.976  0.00  0.00     0.263 S 
HETATM   12  O   UNK N   1      30.908  16.580   4.069  0.00  0.00    -0.578 OA
HETATM   13  O   UNK N   1      33.206  16.735   3.250  0.00  0.00    -0.578 OA
BRANCH  11  14
HETATM   14  O   UNK N   1      31.547  17.264   2.377  0.00  0.00    -0.272 OA
HETATM   15  H   UNK N   1      31.388  18.175   2.015  0.00  0.00     0.234 HD
ENDBRANCH  11  14
ENDBRANCH  10  11
ENDBRANCH   3  10
BRANCH   7  16
HETATM   16  C   UNK N   1      35.057  16.658  10.175  0.00  0.00     0.233 C 
HETATM   17  O   UNK N   1      35.696  17.700  10.186  0.00  0.00    -0.272 OA
HETATM   18  N   UNK N   1      34.839  15.999  11.336  0.00  0.00    -0.369 N 
HETATM   19  H   UNK N   1      34.295  15.124  11.348  0.00  0.00     0.159 HD
HETATM   20  H   UNK N   1      35.201  16.375  12.226  0.00  0.00     0.159 HD
ENDBRANCH   7  16
TORSDOF 4
ENDMDL
MODEL 7
REMARK VINA RESULT:      -5.4     12.574     13.567
REMARK  4 active torsions:
REMARK  status: ('A' for Active; 'I' for Inactive)
REMARK    1  A    between atoms: S_1  and  O_2 
REMARK    2  A    between atoms: S_1  and  O_5 
REMARK    3  A    between atoms: O_2  and  N_9 
REMARK       I    between atoms: N_10  and  C_17 
REMARK    4  A    between atoms: C_14  and  C_17 
ROOT
HETATM    1  O   UNK N   1      21.122  18.994   6.550  0.00  0.00    -0.251 OA
HETATM    2  N   UNK N   1      21.890  18.668   4.439  0.00  0.00    -0.217 NA
HETATM    3  N   UNK N   1      21.142  16.961   5.604  0.00  0.00    -0.187 N 
HETATM    4  C   UNK N   1      21.149  16.561   4.207  0.00  0.00     0.134 C 
HETATM    5  C   UNK N   1      22.275  17.470   3.704  0.00  0.00     0.129 C 
HETATM    6  C   UNK N   1      19.834  17.097   3.521  0.00  0.00     0.031 C 
HETATM    7  C   UNK N   1      20.975  19.557   3.747  0.00  0.00     0.159 C 
HETATM    8  C   UNK N   1      19.844  18.640   3.116  0.00  0.00     0.032 C 
HETATM    9  C   UNK N   1      21.465  18.248   5.642  0.00  0.00     0.325 C 
ENDROOT
BRANCH   3  10
HETATM   10  O   UNK N   1      20.419  16.355   6.563  0.00  0.00    -0.132 OA
BRANCH  10  11
HETATM   11  S   UNK N   1      21.009  14.735   6.607  0.00  0.00     0.263 S 
HETATM   12  O   UNK N   1      19.484  14.664   6.426  0.00  0.00    -0.578 OA
HETATM   13  O   UNK N   1      21.225  15.306   8.018  0.00  0.00    -0.578 OA
BRANCH  11  14
HETATM   14  O   UNK N   1      20.417  13.561   7.711  0.00  0.00    -0.272 OA
HETATM   15  H   UNK N   1      19.701  13.090   7.208  0.00  0.00     0.234 HD
ENDBRANCH  11  14
ENDBRANCH  10  11
ENDBRANCH   3  10
BRANCH   7  16
HETATM   16  C   UNK N   1      21.685  20.368   2.674  0.00  0.00     0.233 C 
HETATM   17  O   UNK N   1      22.707  20.983   2.943  0.00  0.00    -0.272 OA
HETATM   18  N   UNK N   1      21.197  20.407   1.413  0.00  0.00    -0.369 N 
HETATM   19  H   UNK N   1      20.341  19.888   1.166  0.00  0.00     0.159 HD
HETATM   20  H   UNK N   1      21.685  20.945   0.681  0.00  0.00     0.159 HD
ENDBRANCH   7  16
TORSDOF 4
ENDMDL
MODEL 8
REMARK VINA RESULT:      -5.3      3.138      5.867
REMARK  4 active torsions:
REMARK  status: ('A' for Active; 'I' for Inactive)
REMARK    1  A    between atoms: S_1  and  O_2 
REMARK    2  A    between atoms: S_1  and  O_5 
REMARK    3  A    between atoms: O_2  and  N_9 
REMARK       I    between atoms: N_10  and  C_17 
REMARK    4  A    between atoms: C_14  and  C_17 
ROOT
HETATM    1  O   UNK N   1      30.737  22.861  -1.602  0.00  0.00    -0.251 OA
HETATM    2  N   UNK N   1      31.130  21.660  -3.488  0.00  0.00    -0.217 NA
HETATM    3  N   UNK N   1      29.480  23.110  -3.442  0.00  0.00    -0.187 N 
HETATM    4  C   UNK N   1      29.768  22.827  -4.838  0.00  0.00     0.134 C 
HETATM    5  C   UNK N   1      30.333  21.412  -4.682  0.00  0.00     0.129 C 
HETATM    6  C   UNK N   1      30.985  23.721  -5.294  0.00  0.00     0.031 C 
HETATM    7  C   UNK N   1      32.495  22.090  -3.725  0.00  0.00     0.159 C 
HETATM    8  C   UNK N   1      32.428  23.203  -4.854  0.00  0.00     0.032 C 
HETATM    9  C   UNK N   1      30.404  22.489  -2.720  0.00  0.00     0.325 C 
ENDROOT
BRANCH   3  10
HETATM   10  O   UNK N   1      28.817  24.198  -3.010  0.00  0.00    -0.132 OA
BRANCH  10  11
HETATM   11  S   UNK N   1      27.406  24.281  -4.000  0.00  0.00     0.263 S 
HETATM   12  O   UNK N   1      27.962  25.709  -3.869  0.00  0.00    -0.578 OA
HETATM   13  O   UNK N   1      26.917  23.905  -2.592  0.00  0.00    -0.578 OA
BRANCH  11  14
HETATM   14  O   UNK N   1      26.082  25.314  -3.645  0.00  0.00    -0.272 OA
HETATM   15  H   UNK N   1      26.124  26.018  -4.345  0.00  0.00     0.234 HD
ENDBRANCH  11  14
ENDBRANCH  10  11
ENDBRANCH   3  10
BRANCH   7  16
HETATM   16  C   UNK N   1      33.382  20.930  -4.152  0.00  0.00     0.233 C 
HETATM   17  O   UNK N   1      34.007  20.985  -5.201  0.00  0.00    -0.272 OA
HETATM   18  N   UNK N   1      33.493  19.832  -3.368  0.00  0.00    -0.369 N 
HETATM   19  H   UNK N   1      32.981  19.772  -2.476  0.00  0.00     0.159 HD
HETATM   20  H   UNK N   1      34.105  19.051  -3.648  0.00  0.00     0.159 HD
ENDBRANCH   7  16
TORSDOF 4
ENDMDL
MODEL 9
REMARK VINA RESULT:      -5.3     13.700     15.392
REMARK  4 active torsions:
REMARK  status: ('A' for Active; 'I' for Inactive)
REMARK    1  A    between atoms: S_1  and  O_2 
REMARK    2  A    between atoms: S_1  and  O_5 
REMARK    3  A    between atoms: O_2  and  N_9 
REMARK       I    between atoms: N_10  and  C_17 
REMARK    4  A    between atoms: C_14  and  C_17 
ROOT
HETATM    1  O   UNK N   1      32.482  14.834   8.803  0.00  0.00    -0.251 OA
HETATM    2  N   UNK N   1      31.502  16.820   8.303  0.00  0.00    -0.217 NA
HETATM    3  N   UNK N   1      33.658  16.741   8.720  0.00  0.00    -0.187 N 
HETATM    4  C   UNK N   1      33.396  17.992   8.027  0.00  0.00     0.134 C 
HETATM    5  C   UNK N   1      31.941  18.201   8.454  0.00  0.00     0.129 C 
HETATM    6  C   UNK N   1      33.347  17.710   6.476  0.00  0.00     0.031 C 
HETATM    7  C   UNK N   1      30.981  16.469   6.995  0.00  0.00     0.159 C 
HETATM    8  C   UNK N   1      31.986  17.081   5.930  0.00  0.00     0.032 C 
HETATM    9  C   UNK N   1      32.522  16.055   8.727  0.00  0.00     0.325 C 
ENDROOT
BRANCH   3  10
HETATM   10  O   UNK N   1      34.868  16.161   8.806  0.00  0.00    -0.132 OA
BRANCH  10  11
HETATM   11  S   UNK N   1      35.165  16.001  10.499  0.00  0.00     0.263 S 
HETATM   12  O   UNK N   1      35.701  17.375  10.065  0.00  0.00    -0.578 OA
HETATM   13  O   UNK N   1      36.075  14.973   9.807  0.00  0.00    -0.578 OA
BRANCH  11  14
HETATM   14  O   UNK N   1      36.726  16.181  11.189  0.00  0.00    -0.272 OA
HETATM   15  H   UNK N   1      36.620  16.916  11.850  0.00  0.00     0.234 HD
ENDBRANCH  11  14
ENDBRANCH  10  11
ENDBRANCH   3  10
BRANCH   7  16
HETATM   16  C   UNK N   1      29.572  17.004   6.791  0.00  0.00     0.233 C 
HETATM   17  O   UNK N   1      28.755  16.948   7.698  0.00  0.00    -0.272 OA
HETATM   18  N   UNK N   1      29.216  17.554   5.607  0.00  0.00    -0.369 N 
HETATM   19  H   UNK N   1      29.895  17.618   4.834  0.00  0.00     0.159 HD
HETATM   20  H   UNK N   1      28.266  17.931   5.471  0.00  0.00     0.159 HD
ENDBRANCH   7  16
TORSDOF 4
ENDMDL
