MODEL 1
REMARK VINA RESULT:      -5.6      0.000      0.000
REMARK  8 active torsions:
REMARK  status: ('A' for Active; 'I' for Inactive)
REMARK    1  A    between atoms: O_1  and  C_11 
REMARK    2  A    between atoms: O_4  and  C_21 
REMARK    3  A    between atoms: N_5  and  C_12 
REMARK    4  A    between atoms: N_6  and  C_13 
REMARK    5  A    between atoms: N_6  and  C_17 
REMARK    6  A    between atoms: C_11  and  C_12 
REMARK    7  A    between atoms: C_11  and  C_13 
REMARK    8  A    between atoms: C_17  and  C_21 
ROOT
HETATM    1  O   UNK N   1      30.545  17.454   5.048  0.00  0.00    -0.265 OA
HETATM    2  O   UNK N   1      34.870  16.306   5.760  0.00  0.00    -0.246 OA
HETATM    3  N   UNK N   1      30.134  17.228   7.893  0.00  0.00    -0.333 N 
HETATM    4  N   UNK N   1      33.509  16.462   7.558  0.00  0.00    -0.287 N 
HETATM    5  N   UNK N   1      32.727  16.894   5.319  0.00  0.00    -0.269 N 
HETATM    6  N   UNK N   1      31.816  16.689   9.276  0.00  0.00    -0.336 N 
ATOM      7  HN  UNK N   1      32.352  16.478  10.117  1.00  0.00     0.168 HD
HETATM    8  C   UNK N   1      31.248  17.058   7.171  0.00  0.00     0.149 A 
HETATM    9  C   UNK N   1      32.256  16.728   8.003  0.00  0.00     0.145 A 
HETATM   10  C   UNK N   1      30.493  16.997   9.182  0.00  0.00     0.185 A 
HETATM   11  C   UNK N   1      31.456  17.152   5.802  0.00  0.00     0.282 A 
HETATM   12  C   UNK N   1      33.752  16.544   6.194  0.00  0.00     0.332 A 
HETATM   13  C   UNK N   1      34.562  16.087   8.494  0.00  0.00     0.163 C 
HETATM   14  C   UNK N   1      32.987  16.985   3.886  0.00  0.00     0.164 C 
ENDROOT
BRANCH   3  15
HETATM   15  C   UNK N   1      28.797  17.482   7.378  0.00  0.00     0.163 C 
BRANCH  15  16
HETATM   16  C   UNK N   1      28.292  18.896   7.605  0.00  0.00     0.164 C 
BRANCH  16  17
HETATM   17  O   UNK N   1      27.536  18.948   8.779  0.00  0.00    -0.392 OA
HETATM   18  H   UNK N   1      27.958  18.847   9.646  0.00  0.00     0.210 HD
ENDBRANCH  16  17
BRANCH  16  19
HETATM   19  C   UNK N   1      27.429  19.166   6.373  0.00  0.00     0.305 C 
BRANCH  19  20
HETATM   20  N   UNK N   1      27.833  20.321   5.586  0.00  0.00     0.088 N 
HETATM   21  C   UNK N   1      26.903  21.395   5.920  0.00  0.00     0.310 C 
BRANCH  20  22
HETATM   22  C   UNK N   1      27.556  19.938   4.208  0.00  0.00     0.297 C 
BRANCH  22  23
HETATM   23  C   UNK N   1      27.284  18.449   4.082  0.00  0.00     0.194 C 
BRANCH  23  24
HETATM   24  O   UNK N   1      28.341  17.850   3.401  0.00  0.00    -0.399 OA
HETATM   25  H   UNK N   1      28.447  17.870   2.436  0.00  0.00     0.209 HD
ENDBRANCH  23  24
ENDBRANCH  22  23
ENDBRANCH  20  22
ENDBRANCH  19  20
ENDBRANCH  16  19
ENDBRANCH  15  16
ENDBRANCH   3  15
TORSDOF 8
ENDMDL
MODEL 2
REMARK VINA RESULT:      -5.6      5.974      8.879
REMARK  8 active torsions:
REMARK  status: ('A' for Active; 'I' for Inactive)
REMARK    1  A    between atoms: O_1  and  C_11 
REMARK    2  A    between atoms: O_4  and  C_21 
REMARK    3  A    between atoms: N_5  and  C_12 
REMARK    4  A    between atoms: N_6  and  C_13 
REMARK    5  A    between atoms: N_6  and  C_17 
REMARK    6  A    between atoms: C_11  and  C_12 
REMARK    7  A    between atoms: C_11  and  C_13 
REMARK    8  A    between atoms: C_17  and  C_21 
ROOT
HETATM    1  O   UNK N   1      36.334  14.943  13.002  0.00  0.00    -0.265 OA
HETATM    2  O   UNK N   1      36.000  11.984  16.417  0.00  0.00    -0.246 OA
HETATM    3  N   UNK N   1      34.957  13.022  11.350  0.00  0.00    -0.333 N 
HETATM    4  N   UNK N   1      35.105  11.402  14.424  0.00  0.00    -0.287 N 
HETATM    5  N   UNK N   1      36.201  13.522  14.765  0.00  0.00    -0.269 N 
HETATM    6  N   UNK N   1      34.265  11.055  12.178  0.00  0.00    -0.336 N 
ATOM      7  HN  UNK N   1      33.845  10.130  12.260  1.00  0.00     0.168 HD
HETATM    8  C   UNK N   1      35.292  12.957  12.645  0.00  0.00     0.149 A 
HETATM    9  C   UNK N   1      34.881  11.772  13.139  0.00  0.00     0.145 A 
HETATM   10  C   UNK N   1      34.330  11.850  11.074  0.00  0.00     0.185 A 
HETATM   11  C   UNK N   1      35.964  13.868  13.447  0.00  0.00     0.282 A 
HETATM   12  C   UNK N   1      35.778  12.288  15.254  0.00  0.00     0.332 A 
HETATM   13  C   UNK N   1      34.662  10.100  14.907  0.00  0.00     0.163 C 
HETATM   14  C   UNK N   1      36.902  14.454  15.643  0.00  0.00     0.164 C 
ENDROOT
BRANCH   3  15
HETATM   15  C   UNK N   1      35.309  14.079  10.416  0.00  0.00     0.163 C 
BRANCH  15  16
HETATM   16  C   UNK N   1      34.243  15.144  10.236  0.00  0.00     0.164 C 
BRANCH  16  17
HETATM   17  O   UNK N   1      33.225  14.962  11.175  0.00  0.00    -0.392 OA
HETATM   18  H   UNK N   1      32.578  15.664  11.348  0.00  0.00     0.210 HD
ENDBRANCH  16  17
BRANCH  16  19
HETATM   19  C   UNK N   1      33.739  14.904   8.813  0.00  0.00     0.305 C 
BRANCH  19  20
HETATM   20  N   UNK N   1      33.875  16.042   7.917  0.00  0.00     0.088 N 
HETATM   21  C   UNK N   1      34.891  15.678   6.936  0.00  0.00     0.310 C 
BRANCH  20  22
HETATM   22  C   UNK N   1      34.448  17.093   8.748  0.00  0.00     0.297 C 
BRANCH  22  23
HETATM   23  C   UNK N   1      34.299  18.461   8.107  0.00  0.00     0.194 C 
BRANCH  23  24
HETATM   24  O   UNK N   1      35.352  19.274   8.520  0.00  0.00    -0.399 OA
HETATM   25  H   UNK N   1      35.535  19.499   9.447  0.00  0.00     0.209 HD
ENDBRANCH  23  24
ENDBRANCH  22  23
ENDBRANCH  20  22
ENDBRANCH  19  20
ENDBRANCH  16  19
ENDBRANCH  15  16
ENDBRANCH   3  15
TORSDOF 8
ENDMDL
MODEL 3
REMARK VINA RESULT:      -5.5      5.271      7.877
REMARK  8 active torsions:
REMARK  status: ('A' for Active; 'I' for Inactive)
REMARK    1  A    between atoms: O_1  and  C_11 
REMARK    2  A    between atoms: O_4  and  C_21 
REMARK    3  A    between atoms: N_5  and  C_12 
REMARK    4  A    between atoms: N_6  and  C_13 
REMARK    5  A    between atoms: N_6  and  C_17 
REMARK    6  A    between atoms: C_11  and  C_12 
REMARK    7  A    between atoms: C_11  and  C_13 
REMARK    8  A    between atoms: C_17  and  C_21 
ROOT
HETATM    1  O   UNK N   1      34.427  11.850  10.672  0.00  0.00    -0.265 OA
HETATM    2  O   UNK N   1      35.715  11.169  14.962  0.00  0.00    -0.246 OA
HETATM    3  N   UNK N   1      35.406  14.550  10.924  0.00  0.00    -0.333 N 
HETATM    4  N   UNK N   1      36.095  13.204  14.055  0.00  0.00    -0.287 N 
HETATM    5  N   UNK N   1      35.050  11.424  12.811  0.00  0.00    -0.269 N 
HETATM    6  N   UNK N   1      36.353  15.275  12.824  0.00  0.00    -0.336 N 
ATOM      7  HN  UNK N   1      36.811  15.866  13.517  1.00  0.00     0.168 HD
HETATM    8  C   UNK N   1      35.412  13.548  11.813  0.00  0.00     0.149 A 
HETATM    9  C   UNK N   1      35.975  13.987  12.955  0.00  0.00     0.145 A 
HETATM   10  C   UNK N   1      35.983  15.604  11.556  0.00  0.00     0.185 A 
HETATM   11  C   UNK N   1      34.934  12.250  11.707  0.00  0.00     0.282 A 
HETATM   12  C   UNK N   1      35.625  11.900  13.986  0.00  0.00     0.332 A 
HETATM   13  C   UNK N   1      36.691  13.731  15.277  0.00  0.00     0.163 C 
HETATM   14  C   UNK N   1      34.562  10.050  12.740  0.00  0.00     0.164 C 
ENDROOT
BRANCH   3  15
HETATM   15  C   UNK N   1      34.793  14.535   9.605  0.00  0.00     0.163 C 
BRANCH  15  16
HETATM   16  C   UNK N   1      33.351  15.010   9.575  0.00  0.00     0.164 C 
BRANCH  16  17
HETATM   17  O   UNK N   1      32.497  13.924   9.367  0.00  0.00    -0.392 OA
HETATM   18  H   UNK N   1      32.570  13.124   9.910  0.00  0.00     0.210 HD
ENDBRANCH  16  17
BRANCH  16  19
HETATM   19  C   UNK N   1      33.321  15.978   8.393  0.00  0.00     0.305 C 
BRANCH  19  20
HETATM   20  N   UNK N   1      32.307  17.017   8.480  0.00  0.00     0.088 N 
HETATM   21  C   UNK N   1      31.424  16.831   7.334  0.00  0.00     0.310 C 
BRANCH  20  22
HETATM   22  C   UNK N   1      33.036  18.257   8.253  0.00  0.00     0.297 C 
BRANCH  22  23
HETATM   23  C   UNK N   1      34.525  18.013   8.089  0.00  0.00     0.194 C 
BRANCH  23  24
HETATM   24  O   UNK N   1      35.218  19.164   8.455  0.00  0.00    -0.399 OA
HETATM   25  H   UNK N   1      34.948  20.063   8.208  0.00  0.00     0.209 HD
ENDBRANCH  23  24
ENDBRANCH  22  23
ENDBRANCH  20  22
ENDBRANCH  19  20
ENDBRANCH  16  19
ENDBRANCH  15  16
ENDBRANCH   3  15
TORSDOF 8
ENDMDL
MODEL 4
REMARK VINA RESULT:      -5.5      2.709      6.993
REMARK  8 active torsions:
REMARK  status: ('A' for Active; 'I' for Inactive)
REMARK    1  A    between atoms: O_1  and  C_11 
REMARK    2  A    between atoms: O_4  and  C_21 
REMARK    3  A    between atoms: N_5  and  C_12 
REMARK    4  A    between atoms: N_6  and  C_13 
REMARK    5  A    between atoms: N_6  and  C_17 
REMARK    6  A    between atoms: C_11  and  C_12 
REMARK    7  A    between atoms: C_11  and  C_13 
REMARK    8  A    between atoms: C_17  and  C_21 
ROOT
HETATM    1  O   UNK N   1      34.499  16.623   5.599  0.00  0.00    -0.265 OA
HETATM    2  O   UNK N   1      30.659  16.202   3.233  0.00  0.00    -0.246 OA
HETATM    3  N   UNK N   1      32.895  17.480   7.837  0.00  0.00    -0.333 N 
HETATM    4  N   UNK N   1      30.505  16.877   5.385  0.00  0.00    -0.287 N 
HETATM    5  N   UNK N   1      32.623  16.378   4.348  0.00  0.00    -0.269 N 
HETATM    6  N   UNK N   1      30.660  17.596   7.694  0.00  0.00    -0.336 N 
ATOM      7  HN  UNK N   1      29.678  17.739   7.927  1.00  0.00     0.168 HD
HETATM    8  C   UNK N   1      32.522  17.098   6.609  0.00  0.00     0.149 A 
HETATM    9  C   UNK N   1      31.179  17.174   6.523  0.00  0.00     0.145 A 
HETATM   10  C   UNK N   1      31.747  17.785   8.492  0.00  0.00     0.185 A 
HETATM   11  C   UNK N   1      33.284  16.695   5.522  0.00  0.00     0.282 A 
HETATM   12  C   UNK N   1      31.235  16.473   4.276  0.00  0.00     0.332 A 
HETATM   13  C   UNK N   1      29.053  16.996   5.333  0.00  0.00     0.163 C 
HETATM   14  C   UNK N   1      33.388  15.947   3.182  0.00  0.00     0.164 C 
ENDROOT
BRANCH   3  15
HETATM   15  C   UNK N   1      34.259  17.650   8.314  0.00  0.00     0.163 C 
BRANCH  15  16
HETATM   16  C   UNK N   1      34.588  16.869   9.574  0.00  0.00     0.164 C 
BRANCH  16  17
HETATM   17  O   UNK N   1      35.630  17.494  10.264  0.00  0.00    -0.392 OA
HETATM   18  H   UNK N   1      36.534  17.479   9.915  0.00  0.00     0.210 HD
ENDBRANCH  16  17
BRANCH  16  19
HETATM   19  C   UNK N   1      35.015  15.501   9.041  0.00  0.00     0.305 C 
BRANCH  19  20
HETATM   20  N   UNK N   1      36.061  14.845   9.811  0.00  0.00     0.088 N 
HETATM   21  C   UNK N   1      36.803  14.009   8.873  0.00  0.00     0.310 C 
BRANCH  20  22
HETATM   22  C   UNK N   1      35.345  13.943  10.703  0.00  0.00     0.297 C 
BRANCH  22  23
HETATM   23  C   UNK N   1      35.560  14.306  12.161  0.00  0.00     0.194 C 
BRANCH  23  24
HETATM   24  O   UNK N   1      36.453  15.372  12.238  0.00  0.00    -0.399 OA
HETATM   25  H   UNK N   1      37.349  15.359  11.863  0.00  0.00     0.209 HD
ENDBRANCH  23  24
ENDBRANCH  22  23
ENDBRANCH  20  22
ENDBRANCH  19  20
ENDBRANCH  16  19
ENDBRANCH  15  16
ENDBRANCH   3  15
TORSDOF 8
ENDMDL
MODEL 5
REMARK VINA RESULT:      -5.4      2.768      7.173
REMARK  8 active torsions:
REMARK  status: ('A' for Active; 'I' for Inactive)
REMARK    1  A    between atoms: O_1  and  C_11 
REMARK    2  A    between atoms: O_4  and  C_21 
REMARK    3  A    between atoms: N_5  and  C_12 
REMARK    4  A    between atoms: N_6  and  C_13 
REMARK    5  A    between atoms: N_6  and  C_17 
REMARK    6  A    between atoms: C_11  and  C_12 
REMARK    7  A    between atoms: C_11  and  C_13 
REMARK    8  A    between atoms: C_17  and  C_21 
ROOT
HETATM    1  O   UNK N   1      31.039  17.759   8.993  0.00  0.00    -0.265 OA
HETATM    2  O   UNK N   1      28.551  16.894   5.307  0.00  0.00    -0.246 OA
HETATM    3  N   UNK N   1      33.386  17.385   7.359  0.00  0.00    -0.333 N 
HETATM    4  N   UNK N   1      30.800  16.876   5.090  0.00  0.00    -0.287 N 
HETATM    5  N   UNK N   1      29.721  17.345   7.194  0.00  0.00    -0.269 N 
HETATM    6  N   UNK N   1      33.222  16.910   5.173  0.00  0.00    -0.336 N 
ATOM      7  HN  UNK N   1      33.460  16.703   4.204  1.00  0.00     0.168 HD
HETATM    8  C   UNK N   1      32.090  17.325   7.027  0.00  0.00     0.149 A 
HETATM    9  C   UNK N   1      31.994  17.034   5.715  0.00  0.00     0.145 A 
HETATM   10  C   UNK N   1      34.070  17.126   6.216  0.00  0.00     0.185 A 
HETATM   11  C   UNK N   1      30.954  17.491   7.805  0.00  0.00     0.282 A 
HETATM   12  C   UNK N   1      29.643  17.032   5.839  0.00  0.00     0.332 A 
HETATM   13  C   UNK N   1      30.746  16.538   3.673  0.00  0.00     0.163 C 
HETATM   14  C   UNK N   1      28.501  17.514   7.977  0.00  0.00     0.164 C 
ENDROOT
BRANCH   3  15
HETATM   15  C   UNK N   1      33.930  17.565   8.696  0.00  0.00     0.163 C 
BRANCH  15  16
HETATM   16  C   UNK N   1      34.263  16.273   9.420  0.00  0.00     0.164 C 
BRANCH  16  17
HETATM   17  O   UNK N   1      33.102  15.718   9.964  0.00  0.00    -0.392 OA
HETATM   18  H   UNK N   1      32.307  16.259  10.088  0.00  0.00     0.210 HD
ENDBRANCH  16  17
BRANCH  16  19
HETATM   19  C   UNK N   1      35.233  16.720  10.514  0.00  0.00     0.305 C 
BRANCH  19  20
HETATM   20  N   UNK N   1      36.342  15.809  10.756  0.00  0.00     0.088 N 
HETATM   21  C   UNK N   1      36.286  14.799   9.704  0.00  0.00     0.310 C 
BRANCH  20  22
HETATM   22  C   UNK N   1      35.997  15.138  12.002  0.00  0.00     0.297 C 
BRANCH  22  23
HETATM   23  C   UNK N   1      35.490  13.728  11.760  0.00  0.00     0.194 C 
BRANCH  23  24
HETATM   24  O   UNK N   1      34.124  13.683  12.031  0.00  0.00    -0.399 OA
HETATM   25  H   UNK N   1      33.468  14.265  11.617  0.00  0.00     0.209 HD
ENDBRANCH  23  24
ENDBRANCH  22  23
ENDBRANCH  20  22
ENDBRANCH  19  20
ENDBRANCH  16  19
ENDBRANCH  15  16
ENDBRANCH   3  15
TORSDOF 8
ENDMDL
MODEL 6
REMARK VINA RESULT:      -5.4      5.101      9.179
REMARK  8 active torsions:
REMARK  status: ('A' for Active; 'I' for Inactive)
REMARK    1  A    between atoms: O_1  and  C_11 
REMARK    2  A    between atoms: O_4  and  C_21 
REMARK    3  A    between atoms: N_5  and  C_12 
REMARK    4  A    between atoms: N_6  and  C_13 
REMARK    5  A    between atoms: N_6  and  C_17 
REMARK    6  A    between atoms: C_11  and  C_12 
REMARK    7  A    between atoms: C_11  and  C_13 
REMARK    8  A    between atoms: C_17  and  C_21 
ROOT
HETATM    1  O   UNK N   1      36.108  13.360   8.424  0.00  0.00    -0.265 OA
HETATM    2  O   UNK N   1      34.212  16.660   5.968  0.00  0.00    -0.246 OA
HETATM    3  N   UNK N   1      35.903  15.099  10.715  0.00  0.00    -0.333 N 
HETATM    4  N   UNK N   1      34.520  17.031   8.176  0.00  0.00    -0.287 N 
HETATM    5  N   UNK N   1      35.156  14.957   7.125  0.00  0.00    -0.269 N 
HETATM    6  N   UNK N   1      34.993  17.143  10.550  0.00  0.00    -0.336 N 
ATOM      7  HN  UNK N   1      34.645  18.072  10.782  1.00  0.00     0.168 HD
HETATM    8  C   UNK N   1      35.518  15.299   9.447  0.00  0.00     0.149 A 
HETATM    9  C   UNK N   1      34.977  16.529   9.349  0.00  0.00     0.145 A 
HETATM   10  C   UNK N   1      35.579  16.237  11.380  0.00  0.00     0.185 A 
HETATM   11  C   UNK N   1      35.622  14.475   8.336  0.00  0.00     0.282 A 
HETATM   12  C   UNK N   1      34.611  16.236   7.042  0.00  0.00     0.332 A 
HETATM   13  C   UNK N   1      33.964  18.377   8.114  0.00  0.00     0.163 C 
HETATM   14  C   UNK N   1      35.245  14.121   5.932  0.00  0.00     0.164 C 
ENDROOT
BRANCH   3  15
HETATM   15  C   UNK N   1      36.631  13.950  11.228  0.00  0.00     0.163 C 
BRANCH  15  16
HETATM   16  C   UNK N   1      35.811  13.028  12.113  0.00  0.00     0.164 C 
BRANCH  16  17
HETATM   17  O   UNK N   1      34.582  13.621  12.409  0.00  0.00    -0.392 OA
HETATM   18  H   UNK N   1      34.318  14.452  11.986  0.00  0.00     0.210 HD
ENDBRANCH  16  17
BRANCH  16  19
HETATM   19  C   UNK N   1      36.675  12.878  13.365  0.00  0.00     0.305 C 
BRANCH  19  20
HETATM   20  N   UNK N   1      36.033  13.295  14.602  0.00  0.00     0.088 N 
HETATM   21  C   UNK N   1      36.871  14.346  15.170  0.00  0.00     0.310 C 
BRANCH  20  22
HETATM   22  C   UNK N   1      36.152  12.140  15.482  0.00  0.00     0.297 C 
BRANCH  22  23
HETATM   23  C   UNK N   1      34.798  11.528  15.793  0.00  0.00     0.194 C 
BRANCH  23  24
HETATM   24  O   UNK N   1      33.822  12.178  15.042  0.00  0.00    -0.399 OA
HETATM   25  H   UNK N   1      33.771  12.148  14.074  0.00  0.00     0.209 HD
ENDBRANCH  23  24
ENDBRANCH  22  23
ENDBRANCH  20  22
ENDBRANCH  19  20
ENDBRANCH  16  19
ENDBRANCH  15  16
ENDBRANCH   3  15
TORSDOF 8
ENDMDL
MODEL 7
REMARK VINA RESULT:      -5.4      4.854      9.115
REMARK  8 active torsions:
REMARK  status: ('A' for Active; 'I' for Inactive)
REMARK    1  A    between atoms: O_1  and  C_11 
REMARK    2  A    between atoms: O_4  and  C_21 
REMARK    3  A    between atoms: N_5  and  C_12 
REMARK    4  A    between atoms: N_6  and  C_13 
REMARK    5  A    between atoms: N_6  and  C_17 
REMARK    6  A    between atoms: C_11  and  C_12 
REMARK    7  A    between atoms: C_11  and  C_13 
REMARK    8  A    between atoms: C_17  and  C_21 
ROOT
HETATM    1  O   UNK N   1      23.194  21.175   2.755  0.00  0.00    -0.265 OA
HETATM    2  O   UNK N   1      19.473  18.598   2.561  0.00  0.00    -0.246 OA
HETATM    3  N   UNK N   1      24.445  19.060   4.263  0.00  0.00    -0.333 N 
HETATM    4  N   UNK N   1      21.280  17.765   3.633  0.00  0.00    -0.287 N 
HETATM    5  N   UNK N   1      21.294  19.945   2.605  0.00  0.00    -0.269 N 
HETATM    6  N   UNK N   1      23.356  17.154   4.725  0.00  0.00    -0.336 N 
ATOM      7  HN  UNK N   1      23.136  16.221   5.071  1.00  0.00     0.168 HD
HETATM    8  C   UNK N   1      23.218  19.126   3.732  0.00  0.00     0.149 A 
HETATM    9  C   UNK N   1      22.563  17.982   4.015  0.00  0.00     0.145 A 
HETATM   10  C   UNK N   1      24.518  17.849   4.872  0.00  0.00     0.185 A 
HETATM   11  C   UNK N   1      22.601  20.141   3.016  0.00  0.00     0.282 A 
HETATM   12  C   UNK N   1      20.631  18.760   2.917  0.00  0.00     0.332 A 
HETATM   13  C   UNK N   1      20.605  16.521   3.983  0.00  0.00     0.163 C 
HETATM   14  C   UNK N   1      20.611  20.987   1.846  0.00  0.00     0.164 C 
ENDROOT
BRANCH   3  15
HETATM   15  C   UNK N   1      25.438  20.123   4.286  0.00  0.00     0.163 C 
BRANCH  15  16
HETATM   16  C   UNK N   1      26.347  20.111   5.501  0.00  0.00     0.164 C 
BRANCH  16  17
HETATM   17  O   UNK N   1      26.219  21.312   6.204  0.00  0.00    -0.392 OA
HETATM   18  H   UNK N   1      26.430  22.158   5.781  0.00  0.00     0.210 HD
ENDBRANCH  16  17
BRANCH  16  19
HETATM   19  C   UNK N   1      27.744  19.965   4.897  0.00  0.00     0.305 C 
BRANCH  19  20
HETATM   20  N   UNK N   1      28.470  18.777   5.320  0.00  0.00     0.088 N 
HETATM   21  C   UNK N   1      28.297  17.787   4.262  0.00  0.00     0.310 C 
BRANCH  20  22
HETATM   22  C   UNK N   1      27.730  18.290   6.476  0.00  0.00     0.297 C 
BRANCH  22  23
HETATM   23  C   UNK N   1      28.496  18.512   7.768  0.00  0.00     0.194 C 
BRANCH  23  24
HETATM   24  O   UNK N   1      27.609  18.934   8.756  0.00  0.00    -0.399 OA
HETATM   25  H   UNK N   1      26.643  18.919   8.662  0.00  0.00     0.209 HD
ENDBRANCH  23  24
ENDBRANCH  22  23
ENDBRANCH  20  22
ENDBRANCH  19  20
ENDBRANCH  16  19
ENDBRANCH  15  16
ENDBRANCH   3  15
TORSDOF 8
ENDMDL
MODEL 8
REMARK VINA RESULT:      -5.3      2.578      5.936
REMARK  8 active torsions:
REMARK  status: ('A' for Active; 'I' for Inactive)
REMARK    1  A    between atoms: O_1  and  C_11 
REMARK    2  A    between atoms: O_4  and  C_21 
REMARK    3  A    between atoms: N_5  and  C_12 
REMARK    4  A    between atoms: N_6  and  C_13 
REMARK    5  A    between atoms: N_6  and  C_17 
REMARK    6  A    between atoms: C_11  and  C_12 
REMARK    7  A    between atoms: C_11  and  C_13 
REMARK    8  A    between atoms: C_17  and  C_21 
ROOT
HETATM    1  O   UNK N   1      34.112  17.317   5.526  0.00  0.00    -0.265 OA
HETATM    2  O   UNK N   1      30.231  16.619   3.294  0.00  0.00    -0.246 OA
HETATM    3  N   UNK N   1      32.544  17.641   7.924  0.00  0.00    -0.333 N 
HETATM    4  N   UNK N   1      30.116  16.992   5.520  0.00  0.00    -0.287 N 
HETATM    5  N   UNK N   1      32.216  16.949   4.336  0.00  0.00    -0.269 N 
HETATM    6  N   UNK N   1      30.310  17.436   7.895  0.00  0.00    -0.336 N 
ATOM      7  HN  UNK N   1      29.334  17.400   8.187  1.00  0.00     0.168 HD
HETATM    8  C   UNK N   1      32.153  17.362   6.674  0.00  0.00     0.149 A 
HETATM    9  C   UNK N   1      30.811  17.245   6.658  0.00  0.00     0.145 A 
HETATM   10  C   UNK N   1      31.406  17.687   8.663  0.00  0.00     0.185 A 
HETATM   11  C   UNK N   1      32.895  17.215   5.512  0.00  0.00     0.282 A 
HETATM   12  C   UNK N   1      30.827  16.843   4.338  0.00  0.00     0.332 A 
HETATM   13  C   UNK N   1      28.662  16.897   5.547  0.00  0.00     0.163 C 
HETATM   14  C   UNK N   1      32.960  16.785   3.092  0.00  0.00     0.164 C 
ENDROOT
BRANCH   3  15
HETATM   15  C   UNK N   1      33.895  17.954   8.360  0.00  0.00     0.163 C 
BRANCH  15  16
HETATM   16  C   UNK N   1      34.445  17.024   9.427  0.00  0.00     0.164 C 
BRANCH  16  17
HETATM   17  O   UNK N   1      35.537  17.622  10.063  0.00  0.00    -0.392 OA
HETATM   18  H   UNK N   1      35.433  18.050  10.927  0.00  0.00     0.210 HD
ENDBRANCH  16  17
BRANCH  16  19
HETATM   19  C   UNK N   1      34.870  15.788   8.635  0.00  0.00     0.305 C 
BRANCH  19  20
HETATM   20  N   UNK N   1      34.563  14.518   9.275  0.00  0.00     0.088 N 
HETATM   21  C   UNK N   1      35.404  13.515   8.630  0.00  0.00     0.310 C 
BRANCH  20  22
HETATM   22  C   UNK N   1      33.190  14.233   8.880  0.00  0.00     0.297 C 
BRANCH  22  23
HETATM   23  C   UNK N   1      33.119  13.627   7.490  0.00  0.00     0.194 C 
BRANCH  23  24
HETATM   24  O   UNK N   1      31.883  13.933   6.924  0.00  0.00    -0.399 OA
HETATM   25  H   UNK N   1      31.647  13.747   6.001  0.00  0.00     0.209 HD
ENDBRANCH  23  24
ENDBRANCH  22  23
ENDBRANCH  20  22
ENDBRANCH  19  20
ENDBRANCH  16  19
ENDBRANCH  15  16
ENDBRANCH   3  15
TORSDOF 8
ENDMDL
MODEL 9
REMARK VINA RESULT:      -5.2      7.520     10.265
REMARK  8 active torsions:
REMARK  status: ('A' for Active; 'I' for Inactive)
REMARK    1  A    between atoms: O_1  and  C_11 
REMARK    2  A    between atoms: O_4  and  C_21 
REMARK    3  A    between atoms: N_5  and  C_12 
REMARK    4  A    between atoms: N_6  and  C_13 
REMARK    5  A    between atoms: N_6  and  C_17 
REMARK    6  A    between atoms: C_11  and  C_12 
REMARK    7  A    between atoms: C_11  and  C_13 
REMARK    8  A    between atoms: C_17  and  C_21 
ROOT
HETATM    1  O   UNK N   1      20.107  18.063   3.349  0.00  0.00    -0.265 OA
HETATM    2  O   UNK N   1      23.307  21.199   2.677  0.00  0.00    -0.246 OA
HETATM    3  N   UNK N   1      22.007  16.635   4.981  0.00  0.00    -0.333 N 
HETATM    4  N   UNK N   1      23.816  19.437   3.998  0.00  0.00    -0.287 N 
HETATM    5  N   UNK N   1      21.650  19.682   2.969  0.00  0.00    -0.269 N 
HETATM    6  N   UNK N   1      24.070  17.437   5.342  0.00  0.00    -0.336 N 
ATOM      7  HN  UNK N   1      25.027  17.539   5.678  1.00  0.00     0.168 HD
HETATM    8  C   UNK N   1      22.134  17.802   4.337  0.00  0.00     0.149 A 
HETATM    9  C   UNK N   1      23.377  18.279   4.550  0.00  0.00     0.145 A 
HETATM   10  C   UNK N   1      23.200  16.420   5.592  0.00  0.00     0.185 A 
HETATM   11  C   UNK N   1      21.233  18.492   3.540  0.00  0.00     0.282 A 
HETATM   12  C   UNK N   1      22.941  20.152   3.193  0.00  0.00     0.332 A 
HETATM   13  C   UNK N   1      25.176  19.902   4.239  0.00  0.00     0.163 C 
HETATM   14  C   UNK N   1      20.730  20.441   2.127  0.00  0.00     0.164 C 
ENDROOT
BRANCH   3  15
HETATM   15  C   UNK N   1      20.866  15.734   4.926  0.00  0.00     0.163 C 
BRANCH  15  16
HETATM   16  C   UNK N   1      20.419  15.197   6.274  0.00  0.00     0.164 C 
BRANCH  16  17
HETATM   17  O   UNK N   1      19.559  14.112   6.093  0.00  0.00    -0.392 OA
HETATM   18  H   UNK N   1      19.629  13.325   6.655  0.00  0.00     0.210 HD
ENDBRANCH  16  17
BRANCH  16  19
HETATM   19  C   UNK N   1      19.694  16.385   6.906  0.00  0.00     0.305 C 
BRANCH  19  20
HETATM   20  N   UNK N   1      20.031  16.635   8.299  0.00  0.00     0.088 N 
HETATM   21  C   UNK N   1      21.085  15.688   8.646  0.00  0.00     0.310 C 
BRANCH  20  22
HETATM   22  C   UNK N   1      18.843  16.231   9.039  0.00  0.00     0.297 C 
BRANCH  22  23
HETATM   23  C   UNK N   1      17.702  17.216   8.851  0.00  0.00     0.194 C 
BRANCH  23  24
HETATM   24  O   UNK N   1      17.797  18.212   9.821  0.00  0.00    -0.399 OA
HETATM   25  H   UNK N   1      17.040  18.561  10.318  0.00  0.00     0.209 HD
ENDBRANCH  23  24
ENDBRANCH  22  23
ENDBRANCH  20  22
ENDBRANCH  19  20
ENDBRANCH  16  19
ENDBRANCH  15  16
ENDBRANCH   3  15
TORSDOF 8
ENDMDL
