REMARK  8 active torsions:
REMARK  status: ('A' for Active; 'I' for Inactive)
REMARK    1  A    between atoms: O_1  and  C_11 
REMARK    2  A    between atoms: O_4  and  C_21 
REMARK    3  A    between atoms: N_5  and  C_12 
REMARK    4  A    between atoms: N_6  and  C_13 
REMARK    5  A    between atoms: N_6  and  C_17 
REMARK    6  A    between atoms: C_11  and  C_12 
REMARK    7  A    between atoms: C_11  and  C_13 
REMARK    8  A    between atoms: C_17  and  C_21 
ROOT
HETATM    1  O   UNK N   1       3.418   0.532   0.247  0.00  0.00    -0.265 OA
HETATM    2  O   UNK N   1       0.792  -3.112  -0.347  0.00  0.00    -0.246 OA
HETATM    3  N   UNK N   1       5.684  -1.250   0.311  0.00  0.00    -0.333 N 
HETATM    4  N   UNK N   1       3.023  -3.434  -0.180  0.00  0.00    -0.287 N 
HETATM    5  N   UNK N   1       2.034  -1.239  -0.061  0.00  0.00    -0.269 N 
HETATM    6  N   UNK N   1       5.435  -3.464   0.051  0.00  0.00    -0.336 N 
ATOM      7  HN  UNK N   1       5.634  -4.460  -0.037  1.00  0.00     0.168 HD
HETATM    8  C   UNK N   1       4.384  -1.520   0.136  0.00  0.00     0.149 A 
HETATM    9  C   UNK N   1       4.236  -2.851  -0.014  0.00  0.00     0.145 A 
HETATM   10  C   UNK N   1       6.318  -2.449   0.260  0.00  0.00     0.185 A 
HETATM   11  C   UNK N   1       3.285  -0.674   0.115  0.00  0.00     0.282 A 
HETATM   12  C   UNK N   1       1.901  -2.618  -0.203  0.00  0.00     0.332 A 
HETATM   13  C   UNK N   1       2.910  -4.881  -0.315  0.00  0.00     0.163 C 
HETATM   14  C   UNK N   1       0.852  -0.383  -0.092  0.00  0.00     0.164 C 
ENDROOT
BRANCH   3  15
HETATM   15  C   UNK N   1       6.266   0.047   0.618  0.00  0.00     0.163 C 
BRANCH  15  16
HETATM   16  C   UNK N   1       7.229   0.571  -0.432  0.00  0.00     0.164 C 
BRANCH  16  17
HETATM   17  O   UNK N   1       8.256  -0.353  -0.640  0.00  0.00    -0.392 OA
HETATM   18  H   UNK N   1       8.057  -1.291  -0.784  0.00  0.00     0.210 HD
ENDBRANCH  16  17
BRANCH  16  19
HETATM   19  C   UNK N   1       7.759   1.864   0.187  0.00  0.00     0.305 C 
BRANCH  19  20
HETATM   20  N   UNK N   1       9.054   2.296  -0.317  0.00  0.00     0.088 N 
HETATM   21  C   UNK N   1      10.060   1.561   0.442  0.00  0.00     0.310 C 
BRANCH  20  22
HETATM   22  C   UNK N   1       9.156   3.691   0.090  0.00  0.00     0.297 C 
BRANCH  22  23
HETATM   23  C   UNK N   1      10.401   4.352  -0.474  0.00  0.00     0.194 C 
BRANCH  23  24
HETATM   24  O   UNK N   1      10.484   5.655   0.012  0.00  0.00    -0.399 OA
HETATM   25  H   UNK N   1      11.299   6.058   0.351  0.00  0.00     0.209 HD
ENDBRANCH  23  24
ENDBRANCH  22  23
ENDBRANCH  20  22
ENDBRANCH  19  20
ENDBRANCH  16  19
ENDBRANCH  15  16
ENDBRANCH   3  15
TORSDOF 8
