MODEL 1
REMARK VINA RESULT:      -7.8      0.000      0.000
REMARK  5 active torsions:
REMARK  status: ('A' for Active; 'I' for Inactive)
REMARK    1  A    between atoms: O_1  and  C_15 
REMARK    2  A    between atoms: N_4  and  C_11 
REMARK       I    between atoms: N_4  and  C_20 
REMARK    3  A    between atoms: C_6  and  C_8 
REMARK    4  A    between atoms: C_7  and  C_9 
REMARK    5  A    between atoms: C_20  and  C_21 
ROOT
HETATM    1  C   UNK N   1      29.840  17.306   5.726  0.00  0.00    -0.023 A 
HETATM    2  C   UNK N   1      28.066  18.964   6.097  0.00  0.00    -0.017 A 
HETATM    3  C   UNK N   1      28.907  18.233   5.241  0.00  0.00     0.021 A 
HETATM    4  C   UNK N   1      29.952  17.135   7.121  0.00  0.00     0.044 A 
HETATM    5  C   UNK N   1      28.127  18.696   7.491  0.00  0.00     0.074 A 
HETATM    6  C   UNK N   1      29.076  17.804   7.981  0.00  0.00     0.067 A 
ENDROOT
BRANCH   4   7
HETATM    7  N   UNK N   1      31.002  16.326   7.619  0.00  0.00    -0.322 N 
HETATM    8  C   UNK N   1      32.158  16.743   8.198  0.00  0.00     0.261 C 
HETATM    9  O   UNK N   1      32.382  17.929   8.379  0.00  0.00    -0.267 OA
HETATM   10  H   UNK N   1      30.882  15.353   7.536  0.00  0.00     0.169 HD
BRANCH   8  11
HETATM   11  C   UNK N   1      33.139  15.709   8.591  0.00  0.00     0.098 A 
HETATM   12  C   UNK N   1      34.286  15.416   7.825  0.00  0.00     0.201 A 
HETATM   13  O   UNK N   1      34.497  15.992   6.773  0.00  0.00    -0.286 OA
HETATM   14  C   UNK N   1      35.208  14.475   8.316  0.00  0.00     0.042 A 
HETATM   15  C   UNK N   1      34.948  13.823   9.543  0.00  0.00     0.046 A 
HETATM   16  C   UNK N   1      36.395  14.194   7.625  0.00  0.00     0.018 A 
HETATM   17  N   UNK N   1      33.817  14.099  10.236  0.00  0.00    -0.364 N 
HETATM   18  C   UNK N   1      35.866  12.908  10.058  0.00  0.00     0.030 A 
HETATM   19  C   UNK N   1      32.930  15.023   9.794  0.00  0.00     0.109 A 
HETATM   20  H   UNK N   1      33.636  13.619  11.076  0.00  0.00     0.165 HD
HETATM   21  C   UNK N   1      37.051  12.643   9.367  0.00  0.00     0.002 A 
HETATM   22  C   UNK N   1      37.315  13.285   8.154  0.00  0.00     0.001 A 
ENDBRANCH   8  11
ENDBRANCH   4   7
BRANCH   1  23
HETATM   23  C   UNK N   1      30.746  16.538   4.763  0.00  0.00    -0.022 C 
HETATM   24  C   UNK N   1      32.095  17.233   4.651  0.00  0.00     0.019 C 
HETATM   25  C   UNK N   1      31.014  15.110   5.214  0.00  0.00     0.019 C 
HETATM   26  C   UNK N   1      30.118  16.466   3.382  0.00  0.00     0.019 C 
ENDBRANCH   1  23
BRANCH   5  27
HETATM   27  O   UNK N   1      27.325  19.317   8.371  0.00  0.00    -0.360 OA
HETATM   28  H   UNK N   1      26.610  18.854   8.760  0.00  0.00     0.217 HD
ENDBRANCH   5  27
BRANCH   2  29
HETATM   29  C   UNK N   1      27.188  20.043   5.468  0.00  0.00    -0.021 C 
HETATM   30  C   UNK N   1      27.585  20.177   4.006  0.00  0.00     0.019 C 
HETATM   31  C   UNK N   1      25.726  19.643   5.533  0.00  0.00     0.019 C 
HETATM   32  C   UNK N   1      27.310  21.428   6.080  0.00  0.00     0.019 C 
ENDBRANCH   2  29
TORSDOF 5
ENDMDL
MODEL 2
REMARK VINA RESULT:      -7.8      3.150      5.390
REMARK  5 active torsions:
REMARK  status: ('A' for Active; 'I' for Inactive)
REMARK    1  A    between atoms: O_1  and  C_15 
REMARK    2  A    between atoms: N_4  and  C_11 
REMARK       I    between atoms: N_4  and  C_20 
REMARK    3  A    between atoms: C_6  and  C_8 
REMARK    4  A    between atoms: C_7  and  C_9 
REMARK    5  A    between atoms: C_20  and  C_21 
ROOT
HETATM    1  C   UNK N   1      25.541  18.497   4.683  0.00  0.00    -0.023 A 
HETATM    2  C   UNK N   1      23.338  17.423   4.529  0.00  0.00    -0.017 A 
HETATM    3  C   UNK N   1      24.184  18.528   4.332  0.00  0.00     0.021 A 
HETATM    4  C   UNK N   1      26.053  17.329   5.283  0.00  0.00     0.044 A 
HETATM    5  C   UNK N   1      23.903  16.224   5.039  0.00  0.00     0.074 A 
HETATM    6  C   UNK N   1      25.240  16.201   5.423  0.00  0.00     0.067 A 
ENDROOT
BRANCH   4   7
HETATM    7  N   UNK N   1      27.376  17.354   5.787  0.00  0.00    -0.322 N 
HETATM    8  C   UNK N   1      27.797  16.943   7.012  0.00  0.00     0.261 C 
HETATM    9  O   UNK N   1      27.020  16.453   7.816  0.00  0.00    -0.267 OA
HETATM   10  H   UNK N   1      28.068  17.710   5.185  0.00  0.00     0.169 HD
BRANCH   8  11
HETATM   11  C   UNK N   1      29.228  17.121   7.339  0.00  0.00     0.098 A 
HETATM   12  C   UNK N   1      30.258  16.905   6.400  0.00  0.00     0.201 A 
HETATM   13  O   UNK N   1      30.002  16.523   5.272  0.00  0.00    -0.286 OA
HETATM   14  C   UNK N   1      31.585  17.177   6.773  0.00  0.00     0.042 A 
HETATM   15  C   UNK N   1      31.860  17.627   8.084  0.00  0.00     0.046 A 
HETATM   16  C   UNK N   1      32.639  17.040   5.858  0.00  0.00     0.018 A 
HETATM   17  N   UNK N   1      30.851  17.788   8.976  0.00  0.00    -0.364 N 
HETATM   18  C   UNK N   1      33.168  17.929   8.462  0.00  0.00     0.030 A 
HETATM   19  C   UNK N   1      29.562  17.558   8.627  0.00  0.00     0.109 A 
HETATM   20  H   UNK N   1      31.059  18.078   9.893  0.00  0.00     0.165 HD
HETATM   21  C   UNK N   1      34.208  17.800   7.540  0.00  0.00     0.002 A 
HETATM   22  C   UNK N   1      33.944  17.356   6.241  0.00  0.00     0.001 A 
ENDBRANCH   8  11
ENDBRANCH   4   7
BRANCH   1  23
HETATM   23  C   UNK N   1      26.428  19.724   4.463  0.00  0.00    -0.022 C 
HETATM   24  C   UNK N   1      26.420  20.602   5.706  0.00  0.00     0.019 C 
HETATM   25  C   UNK N   1      27.878  19.362   4.179  0.00  0.00     0.019 C 
HETATM   26  C   UNK N   1      25.926  20.541   3.285  0.00  0.00     0.019 C 
ENDBRANCH   1  23
BRANCH   5  27
HETATM   27  O   UNK N   1      23.173  15.110   5.213  0.00  0.00    -0.360 OA
HETATM   28  H   UNK N   1      22.580  14.830   4.544  0.00  0.00     0.217 HD
ENDBRANCH   5  27
BRANCH   2  29
HETATM   29  C   UNK N   1      21.852  17.616   4.238  0.00  0.00    -0.021 C 
HETATM   30  C   UNK N   1      21.632  19.074   3.864  0.00  0.00     0.019 C 
HETATM   31  C   UNK N   1      21.423  16.751   3.068  0.00  0.00     0.019 C 
HETATM   32  C   UNK N   1      20.912  17.318   5.395  0.00  0.00     0.019 C 
ENDBRANCH   2  29
TORSDOF 5
ENDMDL
MODEL 3
REMARK VINA RESULT:      -7.5      6.175     11.443
REMARK  5 active torsions:
REMARK  status: ('A' for Active; 'I' for Inactive)
REMARK    1  A    between atoms: O_1  and  C_15 
REMARK    2  A    between atoms: N_4  and  C_11 
REMARK       I    between atoms: N_4  and  C_20 
REMARK    3  A    between atoms: C_6  and  C_8 
REMARK    4  A    between atoms: C_7  and  C_9 
REMARK    5  A    between atoms: C_20  and  C_21 
ROOT
HETATM    1  C   UNK N   1      35.302  11.068  15.604  0.00  0.00    -0.023 A 
HETATM    2  C   UNK N   1      35.320  11.316  18.047  0.00  0.00    -0.017 A 
HETATM    3  C   UNK N   1      35.353  10.517  16.891  0.00  0.00     0.021 A 
HETATM    4  C   UNK N   1      35.177  12.466  15.478  0.00  0.00     0.044 A 
HETATM    5  C   UNK N   1      35.299  12.727  17.890  0.00  0.00     0.074 A 
HETATM    6  C   UNK N   1      35.210  13.278  16.615  0.00  0.00     0.067 A 
ENDROOT
BRANCH   4   7
HETATM    7  N   UNK N   1      34.958  13.010  14.188  0.00  0.00    -0.322 N 
HETATM    8  C   UNK N   1      35.741  13.902  13.528  0.00  0.00     0.261 C 
HETATM    9  O   UNK N   1      36.786  14.306  14.013  0.00  0.00    -0.267 OA
HETATM   10  H   UNK N   1      34.147  12.710  13.718  0.00  0.00     0.169 HD
BRANCH   8  11
HETATM   11  C   UNK N   1      35.276  14.374  12.206  0.00  0.00     0.098 A 
HETATM   12  C   UNK N   1      34.815  13.498  11.202  0.00  0.00     0.201 A 
HETATM   13  O   UNK N   1      34.815  12.293  11.379  0.00  0.00    -0.286 OA
HETATM   14  C   UNK N   1      34.315  14.039  10.005  0.00  0.00     0.042 A 
HETATM   15  C   UNK N   1      34.316  15.441   9.823  0.00  0.00     0.046 A 
HETATM   16  C   UNK N   1      33.786  13.215   9.001  0.00  0.00     0.018 A 
HETATM   17  N   UNK N   1      34.802  16.255  10.792  0.00  0.00    -0.364 N 
HETATM   18  C   UNK N   1      33.797  15.996   8.653  0.00  0.00     0.030 A 
HETATM   19  C   UNK N   1      35.262  15.754  11.965  0.00  0.00     0.109 A 
HETATM   20  H   UNK N   1      34.820  17.227  10.642  0.00  0.00     0.165 HD
HETATM   21  C   UNK N   1      33.262  15.167   7.665  0.00  0.00     0.002 A 
HETATM   22  C   UNK N   1      33.257  13.781   7.838  0.00  0.00     0.001 A 
ENDBRANCH   8  11
ENDBRANCH   4   7
BRANCH   1  23
HETATM   23  C   UNK N   1      35.329  10.165  14.370  0.00  0.00    -0.022 C 
HETATM   24  C   UNK N   1      34.039  10.325  13.578  0.00  0.00     0.019 C 
HETATM   25  C   UNK N   1      36.477  10.488  13.426  0.00  0.00     0.019 C 
HETATM   26  C   UNK N   1      35.473   8.709  14.778  0.00  0.00     0.019 C 
ENDBRANCH   1  23
BRANCH   5  27
HETATM   27  O   UNK N   1      35.313  13.562  18.942  0.00  0.00    -0.360 OA
HETATM   28  H   UNK N   1      35.792  14.366  18.895  0.00  0.00     0.217 HD
ENDBRANCH   5  27
BRANCH   2  29
HETATM   29  C   UNK N   1      35.244  10.601  19.394  0.00  0.00    -0.021 C 
HETATM   30  C   UNK N   1      34.592   9.246  19.169  0.00  0.00     0.019 C 
HETATM   31  C   UNK N   1      36.635  10.377  19.956  0.00  0.00     0.019 C 
HETATM   32  C   UNK N   1      34.427  11.304  20.465  0.00  0.00     0.019 C 
ENDBRANCH   2  29
TORSDOF 5
ENDMDL
MODEL 4
REMARK VINA RESULT:      -7.5      2.994      9.318
REMARK  5 active torsions:
REMARK  status: ('A' for Active; 'I' for Inactive)
REMARK    1  A    between atoms: O_1  and  C_15 
REMARK    2  A    between atoms: N_4  and  C_11 
REMARK       I    between atoms: N_4  and  C_20 
REMARK    3  A    between atoms: C_6  and  C_8 
REMARK    4  A    between atoms: C_7  and  C_9 
REMARK    5  A    between atoms: C_20  and  C_21 
ROOT
HETATM    1  C   UNK N   1      29.756  17.391   7.553  0.00  0.00    -0.023 A 
HETATM    2  C   UNK N   1      31.965  16.488   6.975  0.00  0.00    -0.017 A 
HETATM    3  C   UNK N   1      31.100  17.149   7.864  0.00  0.00     0.021 A 
HETATM    4  C   UNK N   1      29.276  16.985   6.292  0.00  0.00     0.044 A 
HETATM    5  C   UNK N   1      31.429  15.998   5.754  0.00  0.00     0.074 A 
HETATM    6  C   UNK N   1      30.104  16.268   5.425  0.00  0.00     0.067 A 
ENDROOT
BRANCH   4   7
HETATM    7  N   UNK N   1      27.968  17.374   5.910  0.00  0.00    -0.322 N 
HETATM    8  C   UNK N   1      26.974  16.573   5.446  0.00  0.00     0.261 C 
HETATM    9  O   UNK N   1      27.129  15.367   5.349  0.00  0.00    -0.267 OA
HETATM   10  H   UNK N   1      27.756  18.332   5.989  0.00  0.00     0.169 HD
BRANCH   8  11
HETATM   11  C   UNK N   1      25.702  17.218   5.054  0.00  0.00     0.098 A 
HETATM   12  C   UNK N   1      25.651  18.444   4.360  0.00  0.00     0.201 A 
HETATM   13  O   UNK N   1      26.673  19.046   4.082  0.00  0.00    -0.286 OA
HETATM   14  C   UNK N   1      24.401  18.943   3.955  0.00  0.00     0.042 A 
HETATM   15  C   UNK N   1      23.228  18.225   4.280  0.00  0.00     0.046 A 
HETATM   16  C   UNK N   1      24.300  20.125   3.207  0.00  0.00     0.018 A 
HETATM   17  N   UNK N   1      23.308  17.068   4.982  0.00  0.00    -0.364 N 
HETATM   18  C   UNK N   1      21.982  18.692   3.860  0.00  0.00     0.030 A 
HETATM   19  C   UNK N   1      24.506  16.556   5.357  0.00  0.00     0.109 A 
HETATM   20  H   UNK N   1      22.482  16.592   5.223  0.00  0.00     0.165 HD
HETATM   21  C   UNK N   1      21.893  19.864   3.107  0.00  0.00     0.002 A 
HETATM   22  C   UNK N   1      23.049  20.579   2.781  0.00  0.00     0.001 A 
ENDBRANCH   8  11
ENDBRANCH   4   7
BRANCH   1  23
HETATM   23  C   UNK N   1      28.848  18.124   8.543  0.00  0.00    -0.022 C 
HETATM   24  C   UNK N   1      29.678  18.704   9.679  0.00  0.00     0.019 C 
HETATM   25  C   UNK N   1      28.089  19.278   7.907  0.00  0.00     0.019 C 
HETATM   26  C   UNK N   1      27.818  17.172   9.128  0.00  0.00     0.019 C 
ENDBRANCH   1  23
BRANCH   5  27
HETATM   27  O   UNK N   1      32.177  15.316   4.871  0.00  0.00    -0.360 OA
HETATM   28  H   UNK N   1      31.854  14.517   4.504  0.00  0.00     0.217 HD
ENDBRANCH   5  27
BRANCH   2  29
HETATM   29  C   UNK N   1      33.439  16.402   7.361  0.00  0.00    -0.021 C 
HETATM   30  C   UNK N   1      34.236  17.224   6.359  0.00  0.00     0.019 C 
HETATM   31  C   UNK N   1      33.662  16.985   8.744  0.00  0.00     0.019 C 
HETATM   32  C   UNK N   1      34.040  15.006   7.352  0.00  0.00     0.019 C 
ENDBRANCH   2  29
TORSDOF 5
ENDMDL
MODEL 5
REMARK VINA RESULT:      -7.3      4.060      8.983
REMARK  5 active torsions:
REMARK  status: ('A' for Active; 'I' for Inactive)
REMARK    1  A    between atoms: O_1  and  C_15 
REMARK    2  A    between atoms: N_4  and  C_11 
REMARK       I    between atoms: N_4  and  C_20 
REMARK    3  A    between atoms: C_6  and  C_8 
REMARK    4  A    between atoms: C_7  and  C_9 
REMARK    5  A    between atoms: C_20  and  C_21 
ROOT
HETATM    1  C   UNK N   1      35.058  12.603  11.106  0.00  0.00    -0.023 A 
HETATM    2  C   UNK N   1      35.815  12.801  13.434  0.00  0.00    -0.017 A 
HETATM    3  C   UNK N   1      35.274  12.051  12.376  0.00  0.00     0.021 A 
HETATM    4  C   UNK N   1      35.365  13.964  10.906  0.00  0.00     0.044 A 
HETATM    5  C   UNK N   1      36.211  14.140  13.177  0.00  0.00     0.074 A 
HETATM    6  C   UNK N   1      35.965  14.704  11.929  0.00  0.00     0.067 A 
ENDROOT
BRANCH   4   7
HETATM    7  N   UNK N   1      34.995  14.566   9.679  0.00  0.00    -0.322 N 
HETATM    8  C   UNK N   1      35.165  15.864   9.314  0.00  0.00     0.261 C 
HETATM    9  O   UNK N   1      35.721  16.660  10.054  0.00  0.00    -0.267 OA
HETATM   10  H   UNK N   1      34.565  13.979   9.015  0.00  0.00     0.169 HD
BRANCH   8  11
HETATM   11  C   UNK N   1      34.643  16.279   7.994  0.00  0.00     0.098 A 
HETATM   12  C   UNK N   1      34.741  15.466   6.846  0.00  0.00     0.201 A 
HETATM   13  O   UNK N   1      35.300  14.385   6.893  0.00  0.00    -0.286 OA
HETATM   14  C   UNK N   1      34.144  15.904   5.651  0.00  0.00     0.042 A 
HETATM   15  C   UNK N   1      33.492  17.158   5.620  0.00  0.00     0.046 A 
HETATM   16  C   UNK N   1      34.157  15.106   4.498  0.00  0.00     0.018 A 
HETATM   17  N   UNK N   1      33.449  17.933   6.731  0.00  0.00    -0.364 N 
HETATM   18  C   UNK N   1      32.870  17.595   4.450  0.00  0.00     0.030 A 
HETATM   19  C   UNK N   1      33.994  17.516   7.900  0.00  0.00     0.109 A 
HETATM   20  H   UNK N   1      33.014  18.815   6.689  0.00  0.00     0.165 HD
HETATM   21  C   UNK N   1      32.880  16.788   3.311  0.00  0.00     0.002 A 
HETATM   22  C   UNK N   1      33.522  15.547   3.335  0.00  0.00     0.001 A 
ENDBRANCH   8  11
ENDBRANCH   4   7
BRANCH   1  23
HETATM   23  C   UNK N   1      34.458  11.758   9.982  0.00  0.00    -0.022 C 
HETATM   24  C   UNK N   1      33.827  10.498  10.557  0.00  0.00     0.019 C 
HETATM   25  C   UNK N   1      33.372  12.489   9.207  0.00  0.00     0.019 C 
HETATM   26  C   UNK N   1      35.531  11.355   8.985  0.00  0.00     0.019 C 
ENDBRANCH   1  23
BRANCH   5  27
HETATM   27  O   UNK N   1      36.778  14.909  14.121  0.00  0.00    -0.360 OA
HETATM   28  H   UNK N   1      36.879  15.829  13.976  0.00  0.00     0.217 HD
ENDBRANCH   5  27
BRANCH   2  29
HETATM   29  C   UNK N   1      35.877  12.136  14.807  0.00  0.00    -0.021 C 
HETATM   30  C   UNK N   1      34.916  10.957  14.801  0.00  0.00     0.019 C 
HETATM   31  C   UNK N   1      37.275  11.614  15.081  0.00  0.00     0.019 C 
HETATM   32  C   UNK N   1      35.479  13.015  15.981  0.00  0.00     0.019 C 
ENDBRANCH   2  29
TORSDOF 5
ENDMDL
MODEL 6
REMARK VINA RESULT:      -7.3      7.141     12.323
REMARK  5 active torsions:
REMARK  status: ('A' for Active; 'I' for Inactive)
REMARK    1  A    between atoms: O_1  and  C_15 
REMARK    2  A    between atoms: N_4  and  C_11 
REMARK       I    between atoms: N_4  and  C_20 
REMARK    3  A    between atoms: C_6  and  C_8 
REMARK    4  A    between atoms: C_7  and  C_9 
REMARK    5  A    between atoms: C_20  and  C_21 
ROOT
HETATM    1  C   UNK N   1      35.659  10.520  16.744  0.00  0.00    -0.023 A 
HETATM    2  C   UNK N   1      35.187  10.823  19.135  0.00  0.00    -0.017 A 
HETATM    3  C   UNK N   1      35.430   9.997  18.024  0.00  0.00     0.021 A 
HETATM    4  C   UNK N   1      35.607  11.918  16.572  0.00  0.00     0.044 A 
HETATM    5  C   UNK N   1      35.243  12.230  18.954  0.00  0.00     0.074 A 
HETATM    6  C   UNK N   1      35.434  12.754  17.679  0.00  0.00     0.067 A 
ENDROOT
BRANCH   4   7
HETATM    7  N   UNK N   1      35.673  12.439  15.256  0.00  0.00    -0.322 N 
HETATM    8  C   UNK N   1      36.580  13.323  14.766  0.00  0.00     0.261 C 
HETATM    9  O   UNK N   1      37.495  13.739  15.458  0.00  0.00    -0.267 OA
HETATM   10  H   UNK N   1      34.983  12.127  14.627  0.00  0.00     0.169 HD
BRANCH   8  11
HETATM   11  C   UNK N   1      36.413  13.770  13.366  0.00  0.00     0.098 A 
HETATM   12  C   UNK N   1      36.637  12.921  12.262  0.00  0.00     0.201 A 
HETATM   13  O   UNK N   1      37.016  11.775  12.424  0.00  0.00    -0.286 OA
HETATM   14  C   UNK N   1      36.374  13.405  10.969  0.00  0.00     0.042 A 
HETATM   15  C   UNK N   1      35.926  14.736  10.803  0.00  0.00     0.046 A 
HETATM   16  C   UNK N   1      36.519  12.582   9.843  0.00  0.00     0.018 A 
HETATM   17  N   UNK N   1      35.758  15.539  11.883  0.00  0.00    -0.364 N 
HETATM   18  C   UNK N   1      35.634  15.223   9.530  0.00  0.00     0.030 A 
HETATM   19  C   UNK N   1      35.979  15.082  13.139  0.00  0.00     0.109 A 
HETATM   20  H   UNK N   1      35.471  16.471  11.751  0.00  0.00     0.165 HD
HETATM   21  C   UNK N   1      35.771  14.392   8.416  0.00  0.00     0.002 A 
HETATM   22  C   UNK N   1      36.212  13.075   8.572  0.00  0.00     0.001 A 
ENDBRANCH   8  11
ENDBRANCH   4   7
BRANCH   1  23
HETATM   23  C   UNK N   1      35.909   9.589  15.556  0.00  0.00    -0.022 C 
HETATM   24  C   UNK N   1      35.713   8.141  15.979  0.00  0.00     0.019 C 
HETATM   25  C   UNK N   1      34.965   9.848  14.392  0.00  0.00     0.019 C 
HETATM   26  C   UNK N   1      37.327   9.758  15.036  0.00  0.00     0.019 C 
ENDBRANCH   1  23
BRANCH   5  27
HETATM   27  O   UNK N   1      35.069  13.087  19.973  0.00  0.00    -0.360 OA
HETATM   28  H   UNK N   1      34.739  13.948  19.808  0.00  0.00     0.217 HD
ENDBRANCH   5  27
BRANCH   2  29
HETATM   29  C   UNK N   1      34.816  10.141  20.449  0.00  0.00    -0.021 C 
HETATM   30  C   UNK N   1      34.340   8.732  20.129  0.00  0.00     0.019 C 
HETATM   31  C   UNK N   1      36.027  10.042  21.358  0.00  0.00     0.019 C 
HETATM   32  C   UNK N   1      33.702  10.805  21.242  0.00  0.00     0.019 C 
ENDBRANCH   2  29
TORSDOF 5
ENDMDL
MODEL 7
REMARK VINA RESULT:      -7.1      3.171      5.645
REMARK  5 active torsions:
REMARK  status: ('A' for Active; 'I' for Inactive)
REMARK    1  A    between atoms: O_1  and  C_15 
REMARK    2  A    between atoms: N_4  and  C_11 
REMARK       I    between atoms: N_4  and  C_20 
REMARK    3  A    between atoms: C_6  and  C_8 
REMARK    4  A    between atoms: C_7  and  C_9 
REMARK    5  A    between atoms: C_20  and  C_21 
ROOT
HETATM    1  C   UNK N   1      25.375  18.544   4.739  0.00  0.00    -0.023 A 
HETATM    2  C   UNK N   1      23.237  17.389   5.098  0.00  0.00    -0.017 A 
HETATM    3  C   UNK N   1      23.975  18.510   4.681  0.00  0.00     0.021 A 
HETATM    4  C   UNK N   1      26.051  17.426   5.268  0.00  0.00     0.044 A 
HETATM    5  C   UNK N   1      23.948  16.237   5.529  0.00  0.00     0.074 A 
HETATM    6  C   UNK N   1      25.336  16.279   5.624  0.00  0.00     0.067 A 
ENDROOT
BRANCH   4   7
HETATM    7  N   UNK N   1      27.448  17.522   5.482  0.00  0.00    -0.322 N 
HETATM    8  C   UNK N   1      28.413  16.697   4.998  0.00  0.00     0.261 C 
HETATM    9  O   UNK N   1      28.135  15.765   4.261  0.00  0.00    -0.267 OA
HETATM   10  H   UNK N   1      27.754  18.269   6.045  0.00  0.00     0.169 HD
BRANCH   8  11
HETATM   11  C   UNK N   1      29.809  16.964   5.406  0.00  0.00     0.098 A 
HETATM   12  C   UNK N   1      30.195  17.108   6.755  0.00  0.00     0.201 A 
HETATM   13  O   UNK N   1      29.370  17.052   7.649  0.00  0.00    -0.286 OA
HETATM   14  C   UNK N   1      31.557  17.278   7.056  0.00  0.00     0.042 A 
HETATM   15  C   UNK N   1      32.500  17.333   6.005  0.00  0.00     0.046 A 
HETATM   16  C   UNK N   1      32.001  17.363   8.384  0.00  0.00     0.018 A 
HETATM   17  N   UNK N   1      32.092  17.229   4.716  0.00  0.00    -0.364 N 
HETATM   18  C   UNK N   1      33.859  17.472   6.288  0.00  0.00     0.030 A 
HETATM   19  C   UNK N   1      30.786  17.036   4.406  0.00  0.00     0.109 A 
HETATM   20  H   UNK N   1      32.756  17.294   3.992  0.00  0.00     0.165 HD
HETATM   21  C   UNK N   1      34.292  17.544   7.613  0.00  0.00     0.002 A 
HETATM   22  C   UNK N   1      33.365  17.490   8.659  0.00  0.00     0.001 A 
ENDBRANCH   8  11
ENDBRANCH   4   7
BRANCH   1  23
HETATM   23  C   UNK N   1      26.142  19.787   4.286  0.00  0.00    -0.022 C 
HETATM   24  C   UNK N   1      26.390  20.708   5.472  0.00  0.00     0.019 C 
HETATM   25  C   UNK N   1      27.499  19.458   3.683  0.00  0.00     0.019 C 
HETATM   26  C   UNK N   1      25.351  20.548   3.235  0.00  0.00     0.019 C 
ENDBRANCH   1  23
BRANCH   5  27
HETATM   27  O   UNK N   1      23.320  15.109   5.900  0.00  0.00    -0.360 OA
HETATM   28  H   UNK N   1      23.622  14.280   5.585  0.00  0.00     0.217 HD
ENDBRANCH   5  27
BRANCH   2  29
HETATM   29  C   UNK N   1      21.716  17.515   5.118  0.00  0.00    -0.021 C 
HETATM   30  C   UNK N   1      21.141  16.393   4.267  0.00  0.00     0.019 C 
HETATM   31  C   UNK N   1      21.188  17.363   6.532  0.00  0.00     0.019 C 
HETATM   32  C   UNK N   1      21.158  18.813   4.558  0.00  0.00     0.019 C 
ENDBRANCH   2  29
TORSDOF 5
ENDMDL
MODEL 8
REMARK VINA RESULT:      -7.1      2.112      3.397
REMARK  5 active torsions:
REMARK  status: ('A' for Active; 'I' for Inactive)
REMARK    1  A    between atoms: O_1  and  C_15 
REMARK    2  A    between atoms: N_4  and  C_11 
REMARK       I    between atoms: N_4  and  C_20 
REMARK    3  A    between atoms: C_6  and  C_8 
REMARK    4  A    between atoms: C_7  and  C_9 
REMARK    5  A    between atoms: C_20  and  C_21 
ROOT
HETATM    1  C   UNK N   1      30.615  17.197   6.822  0.00  0.00    -0.023 A 
HETATM    2  C   UNK N   1      29.080  17.566   4.941  0.00  0.00    -0.017 A 
HETATM    3  C   UNK N   1      29.398  17.664   6.306  0.00  0.00     0.021 A 
HETATM    4  C   UNK N   1      31.525  16.581   5.940  0.00  0.00     0.044 A 
HETATM    5  C   UNK N   1      30.057  17.036   4.058  0.00  0.00     0.074 A 
HETATM    6  C   UNK N   1      31.251  16.537   4.570  0.00  0.00     0.067 A 
ENDROOT
BRANCH   4   7
HETATM    7  N   UNK N   1      32.677  15.962   6.483  0.00  0.00    -0.322 N 
HETATM    8  C   UNK N   1      33.959  16.406   6.414  0.00  0.00     0.261 C 
HETATM    9  O   UNK N   1      34.233  17.464   5.871  0.00  0.00    -0.267 OA
HETATM   10  H   UNK N   1      32.534  15.115   6.963  0.00  0.00     0.169 HD
BRANCH   8  11
HETATM   11  C   UNK N   1      35.012  15.555   7.010  0.00  0.00     0.098 A 
HETATM   12  C   UNK N   1      35.232  15.477   8.401  0.00  0.00     0.201 A 
HETATM   13  O   UNK N   1      34.572  16.147   9.175  0.00  0.00    -0.286 OA
HETATM   14  C   UNK N   1      36.199  14.579   8.885  0.00  0.00     0.042 A 
HETATM   15  C   UNK N   1      36.948  13.804   7.970  0.00  0.00     0.046 A 
HETATM   16  C   UNK N   1      36.413  14.416  10.261  0.00  0.00     0.018 A 
HETATM   17  N   UNK N   1      36.739  13.931   6.637  0.00  0.00    -0.364 N 
HETATM   18  C   UNK N   1      37.892  12.889   8.436  0.00  0.00     0.030 A 
HETATM   19  C   UNK N   1      35.791  14.770   6.152  0.00  0.00     0.109 A 
HETATM   20  H   UNK N   1      37.285  13.405   6.010  0.00  0.00     0.165 HD
HETATM   21  C   UNK N   1      38.089  12.726   9.809  0.00  0.00     0.002 A 
HETATM   22  C   UNK N   1      37.352  13.488  10.719  0.00  0.00     0.001 A 
ENDBRANCH   8  11
ENDBRANCH   4   7
BRANCH   1  23
HETATM   23  C   UNK N   1      30.921  17.311   8.316  0.00  0.00    -0.022 C 
HETATM   24  C   UNK N   1      31.315  15.951   8.873  0.00  0.00     0.019 C 
HETATM   25  C   UNK N   1      32.067  18.266   8.614  0.00  0.00     0.019 C 
HETATM   26  C   UNK N   1      29.704  17.815   9.073  0.00  0.00     0.019 C 
ENDBRANCH   1  23
BRANCH   5  27
HETATM   27  O   UNK N   1      29.850  16.951   2.733  0.00  0.00    -0.360 OA
HETATM   28  H   UNK N   1      30.565  17.068   2.139  0.00  0.00     0.217 HD
ENDBRANCH   5  27
BRANCH   2  29
HETATM   29  C   UNK N   1      27.674  17.982   4.515  0.00  0.00    -0.021 C 
HETATM   30  C   UNK N   1      26.794  17.996   5.755  0.00  0.00     0.019 C 
HETATM   31  C   UNK N   1      27.689  19.378   3.922  0.00  0.00     0.019 C 
HETATM   32  C   UNK N   1      26.994  17.066   3.511  0.00  0.00     0.019 C 
ENDBRANCH   2  29
TORSDOF 5
ENDMDL
MODEL 9
REMARK VINA RESULT:      -7.0      2.773      9.115
REMARK  5 active torsions:
REMARK  status: ('A' for Active; 'I' for Inactive)
REMARK    1  A    between atoms: O_1  and  C_15 
REMARK    2  A    between atoms: N_4  and  C_11 
REMARK       I    between atoms: N_4  and  C_20 
REMARK    3  A    between atoms: C_6  and  C_8 
REMARK    4  A    between atoms: C_7  and  C_9 
REMARK    5  A    between atoms: C_20  and  C_21 
ROOT
HETATM    1  C   UNK N   1      35.903  12.782  10.304  0.00  0.00    -0.023 A 
HETATM    2  C   UNK N   1      36.222  12.104  12.643  0.00  0.00    -0.017 A 
HETATM    3  C   UNK N   1      36.525  11.985  11.276  0.00  0.00     0.021 A 
HETATM    4  C   UNK N   1      34.921  13.702  10.720  0.00  0.00     0.044 A 
HETATM    5  C   UNK N   1      35.304  13.111  13.045  0.00  0.00     0.074 A 
HETATM    6  C   UNK N   1      34.657  13.878  12.081  0.00  0.00     0.067 A 
ENDROOT
BRANCH   4   7
HETATM    7  N   UNK N   1      34.176  14.387   9.729  0.00  0.00    -0.322 N 
HETATM    8  C   UNK N   1      34.122  15.728   9.521  0.00  0.00     0.261 C 
HETATM    9  O   UNK N   1      34.786  16.500  10.195  0.00  0.00    -0.267 OA
HETATM   10  H   UNK N   1      33.635  13.829   9.124  0.00  0.00     0.169 HD
BRANCH   8  11
HETATM   11  C   UNK N   1      33.223  16.220   8.455  0.00  0.00     0.098 A 
HETATM   12  C   UNK N   1      33.689  16.598   7.178  0.00  0.00     0.201 A 
HETATM   13  O   UNK N   1      34.877  16.564   6.913  0.00  0.00    -0.286 OA
HETATM   14  C   UNK N   1      32.754  16.976   6.199  0.00  0.00     0.042 A 
HETATM   15  C   UNK N   1      31.378  17.000   6.524  0.00  0.00     0.046 A 
HETATM   16  C   UNK N   1      33.158  17.299   4.896  0.00  0.00     0.018 A 
HETATM   17  N   UNK N   1      30.966  16.668   7.772  0.00  0.00    -0.364 N 
HETATM   18  C   UNK N   1      30.435  17.345   5.556  0.00  0.00     0.030 A 
HETATM   19  C   UNK N   1      31.850  16.274   8.722  0.00  0.00     0.109 A 
HETATM   20  H   UNK N   1      30.008  16.714   7.993  0.00  0.00     0.165 HD
HETATM   21  C   UNK N   1      30.848  17.655   4.259  0.00  0.00     0.002 A 
HETATM   22  C   UNK N   1      32.206  17.632   3.929  0.00  0.00     0.001 A 
ENDBRANCH   8  11
ENDBRANCH   4   7
BRANCH   1  23
HETATM   23  C   UNK N   1      36.251  12.616   8.824  0.00  0.00    -0.022 C 
HETATM   24  C   UNK N   1      37.151  11.403   8.633  0.00  0.00     0.019 C 
HETATM   25  C   UNK N   1      35.026  12.407   7.948  0.00  0.00     0.019 C 
HETATM   26  C   UNK N   1      36.975  13.847   8.305  0.00  0.00     0.019 C 
ENDBRANCH   1  23
BRANCH   5  27
HETATM   27  O   UNK N   1      34.997  13.320  14.336  0.00  0.00    -0.360 OA
HETATM   28  H   UNK N   1      35.579  13.810  14.882  0.00  0.00     0.217 HD
ENDBRANCH   5  27
BRANCH   2  29
HETATM   29  C   UNK N   1      36.858  11.094  13.594  0.00  0.00    -0.021 C 
HETATM   30  C   UNK N   1      37.763  10.185  12.776  0.00  0.00     0.019 C 
HETATM   31  C   UNK N   1      37.704  11.802  14.635  0.00  0.00     0.019 C 
HETATM   32  C   UNK N   1      35.888  10.187  14.334  0.00  0.00     0.019 C 
ENDBRANCH   2  29
TORSDOF 5
ENDMDL
