MODEL 1
REMARK VINA RESULT:      -1.5      0.000      0.000
REMARK  2 active torsions:
REMARK  status: ('A' for Active; 'I' for Inactive)
REMARK    1  A    between atoms: C_3  and  C_1 
REMARK    2  A    between atoms: O_7  and  C_3 
ROOT
HETATM    1  N   UNK N   1      35.601  22.245  12.610  0.00  0.00    -0.084 N 
HETATM    2  H   UNK N   1      35.986  22.850  13.336  0.00  0.00     0.271 HD
HETATM    3  H   UNK N   1      35.919  22.340  11.645  0.00  0.00     0.271 HD
HETATM    4  H   UNK N   1      34.899  21.545  12.849  0.00  0.00     0.271 HD
HETATM    5  H   UNK N   1      35.216  21.640  11.885  0.00  0.00     0.271 HD
ENDROOT
TORSDOF 2
ENDMDL
MODEL 2
REMARK VINA RESULT:      -1.2     10.981     10.981
REMARK  2 active torsions:
REMARK  status: ('A' for Active; 'I' for Inactive)
REMARK    1  A    between atoms: C_3  and  C_1 
REMARK    2  A    between atoms: O_7  and  C_3 
ROOT
HETATM    1  N   UNK N   1      25.149  22.433   9.252  0.00  0.00    -0.084 N 
HETATM    2  H   UNK N   1      24.293  22.651   8.740  0.00  0.00     0.271 HD
HETATM    3  H   UNK N   1      25.103  21.886  10.112  0.00  0.00     0.271 HD
HETATM    4  H   UNK N   1      26.049  22.763   8.904  0.00  0.00     0.271 HD
HETATM    5  H   UNK N   1      26.004  22.215   9.763  0.00  0.00     0.271 HD
ENDROOT
TORSDOF 2
ENDMDL
MODEL 3
REMARK VINA RESULT:      -1.2     10.314     10.314
REMARK  2 active torsions:
REMARK  status: ('A' for Active; 'I' for Inactive)
REMARK    1  A    between atoms: C_3  and  C_1 
REMARK    2  A    between atoms: O_7  and  C_3 
ROOT
HETATM    1  N   UNK N   1      41.188  21.675  21.261  0.00  0.00    -0.084 N 
HETATM    2  H   UNK N   1      40.333  21.893  20.750  0.00  0.00     0.271 HD
HETATM    3  H   UNK N   1      41.143  21.127  22.121  0.00  0.00     0.271 HD
HETATM    4  H   UNK N   1      42.088  22.004  20.913  0.00  0.00     0.271 HD
HETATM    5  H   UNK N   1      42.044  21.457  21.772  0.00  0.00     0.271 HD
ENDROOT
TORSDOF 2
ENDMDL
MODEL 4
REMARK VINA RESULT:      -1.2     19.882     19.882
REMARK  2 active torsions:
REMARK  status: ('A' for Active; 'I' for Inactive)
REMARK    1  A    between atoms: C_3  and  C_1 
REMARK    2  A    between atoms: O_7  and  C_3 
ROOT
HETATM    1  N   UNK N   1      16.938  26.855   7.541  0.00  0.00    -0.084 N 
HETATM    2  H   UNK N   1      17.513  27.530   8.045  0.00  0.00     0.271 HD
HETATM    3  H   UNK N   1      16.854  26.913   6.526  0.00  0.00     0.271 HD
HETATM    4  H   UNK N   1      16.446  26.122   8.053  0.00  0.00     0.271 HD
HETATM    5  H   UNK N   1      16.362  26.180   7.038  0.00  0.00     0.271 HD
ENDROOT
TORSDOF 2
ENDMDL
MODEL 5
REMARK VINA RESULT:      -1.1     16.994     16.994
REMARK  2 active torsions:
REMARK  status: ('A' for Active; 'I' for Inactive)
REMARK    1  A    between atoms: C_3  and  C_1 
REMARK    2  A    between atoms: O_7  and  C_3 
ROOT
HETATM    1  N   UNK N   1      18.904  19.724  10.704  0.00  0.00    -0.084 N 
HETATM    2  H   UNK N   1      18.049  19.942  10.193  0.00  0.00     0.271 HD
HETATM    3  H   UNK N   1      18.859  19.176  11.564  0.00  0.00     0.271 HD
HETATM    4  H   UNK N   1      19.804  20.053  10.356  0.00  0.00     0.271 HD
HETATM    5  H   UNK N   1      19.759  19.506  11.215  0.00  0.00     0.271 HD
ENDROOT
TORSDOF 2
ENDMDL
MODEL 6
REMARK VINA RESULT:      -1.1     13.848     13.848
REMARK  2 active torsions:
REMARK  status: ('A' for Active; 'I' for Inactive)
REMARK    1  A    between atoms: C_3  and  C_1 
REMARK    2  A    between atoms: O_7  and  C_3 
ROOT
HETATM    1  N   UNK N   1      47.315  28.814  15.990  0.00  0.00    -0.084 N 
HETATM    2  H   UNK N   1      47.056  29.296  16.851  0.00  0.00     0.271 HD
HETATM    3  H   UNK N   1      46.863  29.065  15.109  0.00  0.00     0.271 HD
HETATM    4  H   UNK N   1      48.024  28.082  16.008  0.00  0.00     0.271 HD
HETATM    5  H   UNK N   1      47.573  28.332  15.128  0.00  0.00     0.271 HD
ENDROOT
TORSDOF 2
ENDMDL
MODEL 7
REMARK VINA RESULT:      -1.0     11.824     11.824
REMARK  2 active torsions:
REMARK  status: ('A' for Active; 'I' for Inactive)
REMARK    1  A    between atoms: C_3  and  C_1 
REMARK    2  A    between atoms: O_7  and  C_3 
ROOT
HETATM    1  N   UNK N   1      43.568  23.815   4.015  0.00  0.00    -0.084 N 
HETATM    2  H   UNK N   1      43.309  24.297   4.876  0.00  0.00     0.271 HD
HETATM    3  H   UNK N   1      43.116  24.066   3.135  0.00  0.00     0.271 HD
HETATM    4  H   UNK N   1      44.277  23.083   4.033  0.00  0.00     0.271 HD
HETATM    5  H   UNK N   1      43.826  23.333   3.154  0.00  0.00     0.271 HD
ENDROOT
TORSDOF 2
ENDMDL
MODEL 8
REMARK VINA RESULT:      -1.0     19.528     19.528
REMARK  2 active torsions:
REMARK  status: ('A' for Active; 'I' for Inactive)
REMARK    1  A    between atoms: C_3  and  C_1 
REMARK    2  A    between atoms: O_7  and  C_3 
ROOT
HETATM    1  N   UNK N   1      20.477  20.948   0.324  0.00  0.00    -0.084 N 
HETATM    2  H   UNK N   1      21.044  21.759   0.570  0.00  0.00     0.271 HD
HETATM    3  H   UNK N   1      19.618  21.069  -0.213  0.00  0.00     0.271 HD
HETATM    4  H   UNK N   1      20.769  20.015   0.615  0.00  0.00     0.271 HD
HETATM    5  H   UNK N   1      19.911  20.136   0.079  0.00  0.00     0.271 HD
ENDROOT
TORSDOF 2
ENDMDL
MODEL 9
REMARK VINA RESULT:      -1.0     11.718     11.718
REMARK  2 active torsions:
REMARK  status: ('A' for Active; 'I' for Inactive)
REMARK    1  A    between atoms: C_3  and  C_1 
REMARK    2  A    between atoms: O_7  and  C_3 
ROOT
HETATM    1  N   UNK N   1      34.085  14.312  21.101  0.00  0.00    -0.084 N 
HETATM    2  H   UNK N   1      34.652  15.124  21.347  0.00  0.00     0.271 HD
HETATM    3  H   UNK N   1      33.225  14.434  20.564  0.00  0.00     0.271 HD
HETATM    4  H   UNK N   1      34.377  13.380  21.392  0.00  0.00     0.271 HD
HETATM    5  H   UNK N   1      33.518  13.501  20.856  0.00  0.00     0.271 HD
ENDROOT
TORSDOF 2
ENDMDL
