MODEL 1
REMARK VINA RESULT:      -8.2      0.000      0.000
REMARK  8 active torsions:
REMARK  status: ('A' for Active; 'I' for Inactive)
REMARK    1  A    between atoms: C_16  and  O_1 
REMARK    2  A    between atoms: O_2  and  C_27 
REMARK    3  A    between atoms: N_4  and  C_6 
REMARK    4  A    between atoms: N_4  and  C_13 
REMARK    5  A    between atoms: C_13  and  C_16 
REMARK    6  A    between atoms: C_14  and  C_17 
REMARK    7  A    between atoms: C_15  and  C_18 
REMARK    8  A    between atoms: C_16  and  C_19 
ROOT
HETATM    1  C   UNK N   1      33.590  17.928   7.611  0.00  0.00     0.169 C 
ENDROOT
BRANCH   1   2
HETATM    2  O   UNK N   1      34.573  17.955   6.623  0.00  0.00    -0.389 OA
HETATM    3  H   UNK N   1      34.746  17.845   5.674  0.00  0.00     0.210 HD
ENDBRANCH   1   2
BRANCH   1   4
HETATM    4  C   UNK N   1      34.114  17.194   8.840  0.00  0.00     0.150 C 
BRANCH   4   5
HETATM    5  N   UNK N   1      34.913  16.026   8.479  0.00  0.00    -0.414 N 
HETATM    6  H   UNK N   1      35.153  15.784   7.517  0.00  0.00     0.153 HD
BRANCH   5   7
HETATM    7  C   UNK N   1      35.336  15.239   9.640  0.00  0.00     0.085 C 
HETATM    8  C   UNK N   1      34.485  14.004   9.965  0.00  0.00     0.064 C 
HETATM    9  C   UNK N   1      34.927  13.770  11.355  0.00  0.00    -0.049 A 
HETATM   10  C   UNK N   1      35.568  14.854  11.895  0.00  0.00    -0.049 A 
HETATM   11  C   UNK N   1      34.793  12.580  12.065  0.00  0.00     0.015 A 
HETATM   12  C   UNK N   1      35.663  15.988  10.946  0.00  0.00     0.064 C 
HETATM   13  C   UNK N   1      36.105  14.804  13.181  0.00  0.00     0.015 A 
HETATM   14  C   UNK N   1      35.993  13.617  13.927  0.00  0.00    -0.052 A 
HETATM   15  C   UNK N   1      35.336  12.486  13.364  0.00  0.00    -0.052 A 
BRANCH  14  16
HETATM   16  C   UNK N   1      36.633  13.567  15.281  0.00  0.00     0.034 C 
HETATM   17  C   UNK N   1      37.239  14.905  15.667  0.00  0.00     0.010 C 
ENDBRANCH  14  16
BRANCH  15  18
HETATM   18  C   UNK N   1      35.259  11.193  14.137  0.00  0.00     0.034 C 
HETATM   19  C   UNK N   1      33.902  10.921  14.772  0.00  0.00     0.010 C 
ENDBRANCH  15  18
ENDBRANCH   5   7
ENDBRANCH   4   5
ENDBRANCH   1   4
BRANCH   1  20
HETATM   20  C   UNK N   1      32.301  17.372   7.060  0.00  0.00    -0.015 A 
HETATM   21  C   UNK N   1      31.050  17.514   7.707  0.00  0.00     0.003 A 
HETATM   22  C   UNK N   1      29.891  16.937   7.128  0.00  0.00     0.079 A 
HETATM   23  C   UNK N   1      30.920  18.204   8.920  0.00  0.00     0.020 A 
HETATM   24  N   UNK N   1      28.687  17.057   7.749  0.00  0.00    -0.321 N 
HETATM   25  C   UNK N   1      29.991  16.237   5.917  0.00  0.00     0.093 A 
HETATM   26  C   UNK N   1      28.555  17.729   8.937  0.00  0.00     0.245 A 
HETATM   27  H   UNK N   1      27.891  16.652   7.335  0.00  0.00     0.169 HD
HETATM   28  O   UNK N   1      27.466  17.813   9.470  0.00  0.00    -0.268 OA
HETATM   29  C   UNK N   1      29.673  18.312   9.536  0.00  0.00     0.075 A 
HETATM   30  C   UNK N   1      31.227  16.106   5.286  0.00  0.00     0.039 A 
HETATM   31  C   UNK N   1      32.371  16.666   5.855  0.00  0.00     0.013 A 
BRANCH  25  32
HETATM   32  O   UNK N   1      28.900  15.685   5.358  0.00  0.00    -0.358 OA
HETATM   33  H   UNK N   1      28.808  14.755   5.284  0.00  0.00     0.217 HD
ENDBRANCH  25  32
ENDBRANCH   1  20
TORSDOF 8
ENDMDL
MODEL 2
REMARK VINA RESULT:      -8.2      0.265      1.965
REMARK  8 active torsions:
REMARK  status: ('A' for Active; 'I' for Inactive)
REMARK    1  A    between atoms: C_16  and  O_1 
REMARK    2  A    between atoms: O_2  and  C_27 
REMARK    3  A    between atoms: N_4  and  C_6 
REMARK    4  A    between atoms: N_4  and  C_13 
REMARK    5  A    between atoms: C_13  and  C_16 
REMARK    6  A    between atoms: C_14  and  C_17 
REMARK    7  A    between atoms: C_15  and  C_18 
REMARK    8  A    between atoms: C_16  and  C_19 
ROOT
HETATM    1  C   UNK N   1      33.597  18.057   7.513  0.00  0.00     0.169 C 
ENDROOT
BRANCH   1   2
HETATM    2  O   UNK N   1      34.578  17.989   6.526  0.00  0.00    -0.389 OA
HETATM    3  H   UNK N   1      35.490  18.231   6.297  0.00  0.00     0.210 HD
ENDBRANCH   1   2
BRANCH   1   4
HETATM    4  C   UNK N   1      34.147  17.507   8.824  0.00  0.00     0.150 C 
BRANCH   4   5
HETATM    5  N   UNK N   1      34.461  16.084   8.731  0.00  0.00    -0.414 N 
HETATM    6  H   UNK N   1      34.603  15.596   7.846  0.00  0.00     0.153 HD
BRANCH   5   7
HETATM    7  C   UNK N   1      34.550  15.428  10.038  0.00  0.00     0.085 C 
HETATM    8  C   UNK N   1      35.668  15.922  10.966  0.00  0.00     0.064 C 
HETATM    9  C   UNK N   1      35.708  14.789  11.914  0.00  0.00    -0.049 A 
HETATM   10  C   UNK N   1      35.070  13.676  11.434  0.00  0.00    -0.049 A 
HETATM   11  C   UNK N   1      36.259  14.814  13.193  0.00  0.00     0.015 A 
HETATM   12  C   UNK N   1      34.495  13.889  10.085  0.00  0.00     0.064 C 
HETATM   13  C   UNK N   1      34.957  12.523  12.209  0.00  0.00     0.015 A 
HETATM   14  C   UNK N   1      35.497  12.512  13.507  0.00  0.00    -0.052 A 
HETATM   15  C   UNK N   1      36.151  13.670  14.013  0.00  0.00    -0.052 A 
BRANCH  14  16
HETATM   16  C   UNK N   1      35.307  11.282  14.344  0.00  0.00     0.034 C 
HETATM   17  C   UNK N   1      33.851  11.080  14.723  0.00  0.00     0.010 C 
ENDBRANCH  14  16
BRANCH  15  18
HETATM   18  C   UNK N   1      36.686  13.684  15.424  0.00  0.00     0.034 C 
HETATM   19  C   UNK N   1      37.233  15.032  15.874  0.00  0.00     0.010 C 
ENDBRANCH  15  18
ENDBRANCH   5   7
ENDBRANCH   4   5
ENDBRANCH   1   4
BRANCH   1  20
HETATM   20  C   UNK N   1      32.328  17.391   7.045  0.00  0.00    -0.015 A 
HETATM   21  C   UNK N   1      31.081  17.542   7.698  0.00  0.00     0.003 A 
HETATM   22  C   UNK N   1      29.942  16.858   7.202  0.00  0.00     0.079 A 
HETATM   23  C   UNK N   1      30.936  18.346   8.837  0.00  0.00     0.020 A 
HETATM   24  N   UNK N   1      28.743  16.987   7.829  0.00  0.00    -0.321 N 
HETATM   25  C   UNK N   1      30.057  16.044   6.066  0.00  0.00     0.093 A 
HETATM   26  C   UNK N   1      28.596  17.770   8.945  0.00  0.00     0.245 A 
HETATM   27  H   UNK N   1      27.960  16.507   7.474  0.00  0.00     0.169 HD
HETATM   28  O   UNK N   1      27.511  17.860   9.487  0.00  0.00    -0.268 OA
HETATM   29  C   UNK N   1      29.694  18.461   9.462  0.00  0.00     0.075 A 
HETATM   30  C   UNK N   1      31.289  15.904   5.429  0.00  0.00     0.039 A 
HETATM   31  C   UNK N   1      32.414  16.569   5.918  0.00  0.00     0.013 A 
BRANCH  25  32
HETATM   32  O   UNK N   1      28.985  15.389   5.586  0.00  0.00    -0.358 OA
HETATM   33  H   UNK N   1      28.193  15.321   6.082  0.00  0.00     0.217 HD
ENDBRANCH  25  32
ENDBRANCH   1  20
TORSDOF 8
ENDMDL
MODEL 3
REMARK VINA RESULT:      -7.9      5.786     12.087
REMARK  8 active torsions:
REMARK  status: ('A' for Active; 'I' for Inactive)
REMARK    1  A    between atoms: C_16  and  O_1 
REMARK    2  A    between atoms: O_2  and  C_27 
REMARK    3  A    between atoms: N_4  and  C_6 
REMARK    4  A    between atoms: N_4  and  C_13 
REMARK    5  A    between atoms: C_13  and  C_16 
REMARK    6  A    between atoms: C_14  and  C_17 
REMARK    7  A    between atoms: C_15  and  C_18 
REMARK    8  A    between atoms: C_16  and  C_19 
ROOT
HETATM    1  C   UNK N   1      29.563  17.037   4.969  0.00  0.00     0.169 C 
ENDROOT
BRANCH   1   2
HETATM    2  O   UNK N   1      30.370  17.838   4.162  0.00  0.00    -0.389 OA
HETATM    3  H   UNK N   1      30.798  17.910   3.294  0.00  0.00     0.210 HD
ENDBRANCH   1   2
BRANCH   1   4
HETATM    4  C   UNK N   1      28.133  17.047   4.439  0.00  0.00     0.150 C 
BRANCH   4   5
HETATM    5  N   UNK N   1      27.791  18.321   3.814  0.00  0.00    -0.414 N 
HETATM    6  H   UNK N   1      28.471  19.059   3.632  0.00  0.00     0.153 HD
BRANCH   5   7
HETATM    7  C   UNK N   1      26.369  18.430   3.475  0.00  0.00     0.085 C 
HETATM    8  C   UNK N   1      25.826  19.853   3.291  0.00  0.00     0.064 C 
HETATM    9  C   UNK N   1      24.380  19.574   3.407  0.00  0.00    -0.049 A 
HETATM   10  C   UNK N   1      24.123  18.347   3.960  0.00  0.00    -0.049 A 
HETATM   11  C   UNK N   1      23.350  20.398   2.961  0.00  0.00     0.015 A 
HETATM   12  C   UNK N   1      25.360  17.605   4.297  0.00  0.00     0.064 C 
HETATM   13  C   UNK N   1      22.816  17.883   4.101  0.00  0.00     0.015 A 
HETATM   14  C   UNK N   1      21.750  18.685   3.658  0.00  0.00    -0.052 A 
HETATM   15  C   UNK N   1      22.015  19.956   3.074  0.00  0.00    -0.052 A 
BRANCH  14  16
HETATM   16  C   UNK N   1      20.358  18.138   3.763  0.00  0.00     0.034 C 
HETATM   17  C   UNK N   1      20.089  17.079   2.708  0.00  0.00     0.010 C 
ENDBRANCH  14  16
BRANCH  15  18
HETATM   18  C   UNK N   1      20.880  20.800   2.548  0.00  0.00     0.034 C 
HETATM   19  C   UNK N   1      20.783  20.843   1.029  0.00  0.00     0.010 C 
ENDBRANCH  15  18
ENDBRANCH   5   7
ENDBRANCH   4   5
ENDBRANCH   1   4
BRANCH   1  20
HETATM   20  C   UNK N   1      29.690  17.444   6.414  0.00  0.00    -0.015 A 
HETATM   21  C   UNK N   1      30.920  17.460   7.116  0.00  0.00     0.003 A 
HETATM   22  C   UNK N   1      30.944  17.835   8.483  0.00  0.00     0.079 A 
HETATM   23  C   UNK N   1      32.126  17.103   6.498  0.00  0.00     0.020 A 
HETATM   24  N   UNK N   1      32.118  17.840   9.168  0.00  0.00    -0.321 N 
HETATM   25  C   UNK N   1      29.752  18.194   9.129  0.00  0.00     0.093 A 
HETATM   26  C   UNK N   1      33.301  17.489   8.569  0.00  0.00     0.245 A 
HETATM   27  H   UNK N   1      32.121  18.104  10.117  0.00  0.00     0.169 HD
HETATM   28  O   UNK N   1      34.334  17.498   9.211  0.00  0.00    -0.268 OA
HETATM   29  C   UNK N   1      33.318  17.117   7.223  0.00  0.00     0.075 A 
HETATM   30  C   UNK N   1      28.547  18.178   8.429  0.00  0.00     0.039 A 
HETATM   31  C   UNK N   1      28.518  17.803   7.086  0.00  0.00     0.013 A 
BRANCH  25  32
HETATM   32  O   UNK N   1      29.761  18.550  10.425  0.00  0.00    -0.358 OA
HETATM   33  H   UNK N   1      30.397  19.150  10.762  0.00  0.00     0.217 HD
ENDBRANCH  25  32
ENDBRANCH   1  20
TORSDOF 8
ENDMDL
MODEL 4
REMARK VINA RESULT:      -7.9     16.193     20.247
REMARK  8 active torsions:
REMARK  status: ('A' for Active; 'I' for Inactive)
REMARK    1  A    between atoms: C_16  and  O_1 
REMARK    2  A    between atoms: O_2  and  C_27 
REMARK    3  A    between atoms: N_4  and  C_6 
REMARK    4  A    between atoms: N_4  and  C_13 
REMARK    5  A    between atoms: C_13  and  C_16 
REMARK    6  A    between atoms: C_14  and  C_17 
REMARK    7  A    between atoms: C_15  and  C_18 
REMARK    8  A    between atoms: C_16  and  C_19 
ROOT
HETATM    1  C   UNK N   1      27.275  22.827  -6.720  0.00  0.00     0.169 C 
ENDROOT
BRANCH   1   2
HETATM    2  O   UNK N   1      27.802  23.327  -7.910  0.00  0.00    -0.389 OA
HETATM    3  H   UNK N   1      28.238  23.090  -8.745  0.00  0.00     0.210 HD
ENDBRANCH   1   2
BRANCH   1   4
HETATM    4  C   UNK N   1      25.916  23.463  -6.452  0.00  0.00     0.150 C 
BRANCH   4   5
HETATM    5  N   UNK N   1      25.564  24.450  -7.469  0.00  0.00    -0.414 N 
HETATM    6  H   UNK N   1      25.203  24.205  -8.390  0.00  0.00     0.153 HD
BRANCH   5   7
HETATM    7  C   UNK N   1      25.783  25.831  -7.028  0.00  0.00     0.085 C 
HETATM    8  C   UNK N   1      27.124  26.462  -7.425  0.00  0.00     0.064 C 
HETATM    9  C   UNK N   1      27.145  27.594  -6.477  0.00  0.00    -0.049 A 
HETATM   10  C   UNK N   1      26.245  27.444  -5.456  0.00  0.00    -0.049 A 
HETATM   11  C   UNK N   1      27.923  28.743  -6.594  0.00  0.00     0.015 A 
HETATM   12  C   UNK N   1      25.471  26.184  -5.561  0.00  0.00     0.064 C 
HETATM   13  C   UNK N   1      26.081  28.436  -4.490  0.00  0.00     0.015 A 
HETATM   14  C   UNK N   1      26.846  29.613  -4.578  0.00  0.00    -0.052 A 
HETATM   15  C   UNK N   1      27.774  29.776  -5.645  0.00  0.00    -0.052 A 
BRANCH  14  16
HETATM   16  C   UNK N   1      26.606  30.692  -3.565  0.00  0.00     0.034 C 
HETATM   17  C   UNK N   1      27.455  30.495  -2.322  0.00  0.00     0.010 C 
ENDBRANCH  14  16
BRANCH  15  18
HETATM   18  C   UNK N   1      28.560  31.058  -5.776  0.00  0.00     0.034 C 
HETATM   19  C   UNK N   1      29.977  30.984  -5.223  0.00  0.00     0.010 C 
ENDBRANCH  15  18
ENDBRANCH   5   7
ENDBRANCH   4   5
ENDBRANCH   1   4
BRANCH   1  20
HETATM   20  C   UNK N   1      28.266  22.984  -5.595  0.00  0.00    -0.015 A 
HETATM   21  C   UNK N   1      29.397  22.150  -5.429  0.00  0.00     0.003 A 
HETATM   22  C   UNK N   1      30.265  22.356  -4.326  0.00  0.00     0.079 A 
HETATM   23  C   UNK N   1      29.685  21.110  -6.323  0.00  0.00     0.020 A 
HETATM   24  N   UNK N   1      31.347  21.551  -4.151  0.00  0.00    -0.321 N 
HETATM   25  C   UNK N   1      30.001  23.387  -3.413  0.00  0.00     0.093 A 
HETATM   26  C   UNK N   1      31.631  20.530  -5.022  0.00  0.00     0.245 A 
HETATM   27  H   UNK N   1      31.942  21.706  -3.382  0.00  0.00     0.169 HD
HETATM   28  O   UNK N   1      32.604  19.824  -4.834  0.00  0.00    -0.268 OA
HETATM   29  C   UNK N   1      30.802  20.299  -6.120  0.00  0.00     0.075 A 
HETATM   30  C   UNK N   1      28.885  24.205  -3.588  0.00  0.00     0.039 A 
HETATM   31  C   UNK N   1      28.025  24.002  -4.667  0.00  0.00     0.013 A 
BRANCH  25  32
HETATM   32  O   UNK N   1      30.815  23.592  -2.363  0.00  0.00    -0.358 OA
HETATM   33  H   UNK N   1      31.268  24.404  -2.249  0.00  0.00     0.217 HD
ENDBRANCH  25  32
ENDBRANCH   1  20
TORSDOF 8
ENDMDL
MODEL 5
REMARK VINA RESULT:      -7.8      1.691      2.350
REMARK  8 active torsions:
REMARK  status: ('A' for Active; 'I' for Inactive)
REMARK    1  A    between atoms: C_16  and  O_1 
REMARK    2  A    between atoms: O_2  and  C_27 
REMARK    3  A    between atoms: N_4  and  C_6 
REMARK    4  A    between atoms: N_4  and  C_13 
REMARK    5  A    between atoms: C_13  and  C_16 
REMARK    6  A    between atoms: C_14  and  C_17 
REMARK    7  A    between atoms: C_15  and  C_18 
REMARK    8  A    between atoms: C_16  and  C_19 
ROOT
HETATM    1  C   UNK N   1      34.071  18.051   8.520  0.00  0.00     0.169 C 
ENDROOT
BRANCH   1   2
HETATM    2  O   UNK N   1      34.972  19.063   8.190  0.00  0.00    -0.389 OA
HETATM    3  H   UNK N   1      35.507  19.444   7.477  0.00  0.00     0.210 HD
ENDBRANCH   1   2
BRANCH   1   4
HETATM    4  C   UNK N   1      34.826  16.853   9.086  0.00  0.00     0.150 C 
BRANCH   4   5
HETATM    5  N   UNK N   1      35.324  17.109  10.434  0.00  0.00    -0.414 N 
HETATM    6  H   UNK N   1      35.523  18.042  10.793  0.00  0.00     0.153 HD
BRANCH   5   7
HETATM    7  C   UNK N   1      35.509  15.885  11.219  0.00  0.00     0.085 C 
HETATM    8  C   UNK N   1      36.804  15.105  10.959  0.00  0.00     0.064 C 
HETATM    9  C   UNK N   1      36.425  13.808  11.556  0.00  0.00    -0.049 A 
HETATM   10  C   UNK N   1      35.074  13.690  11.747  0.00  0.00    -0.049 A 
HETATM   11  C   UNK N   1      37.304  12.807  11.961  0.00  0.00     0.015 A 
HETATM   12  C   UNK N   1      34.331  14.896  11.312  0.00  0.00     0.064 C 
HETATM   13  C   UNK N   1      34.530  12.556  12.350  0.00  0.00     0.015 A 
HETATM   14  C   UNK N   1      35.387  11.526  12.777  0.00  0.00    -0.052 A 
HETATM   15  C   UNK N   1      36.792  11.651  12.588  0.00  0.00    -0.052 A 
BRANCH  14  16
HETATM   16  C   UNK N   1      34.785  10.347  13.478  0.00  0.00     0.034 C 
HETATM   17  C   UNK N   1      33.893  10.773  14.631  0.00  0.00     0.010 C 
ENDBRANCH  14  16
BRANCH  15  18
HETATM   18  C   UNK N   1      37.723  10.575  13.091  0.00  0.00     0.034 C 
HETATM   19  C   UNK N   1      38.313  10.848  14.468  0.00  0.00     0.010 C 
ENDBRANCH  15  18
ENDBRANCH   5   7
ENDBRANCH   4   5
ENDBRANCH   1   4
BRANCH   1  20
HETATM   20  C   UNK N   1      33.187  17.726   7.343  0.00  0.00    -0.015 A 
HETATM   21  C   UNK N   1      31.784  17.562   7.442  0.00  0.00     0.003 A 
HETATM   22  C   UNK N   1      31.032  17.233   6.286  0.00  0.00     0.079 A 
HETATM   23  C   UNK N   1      31.108  17.705   8.662  0.00  0.00     0.020 A 
HETATM   24  N   UNK N   1      29.686  17.061   6.374  0.00  0.00    -0.321 N 
HETATM   25  C   UNK N   1      31.681  17.079   5.052  0.00  0.00     0.093 A 
HETATM   26  C   UNK N   1      29.021  17.198   7.566  0.00  0.00     0.245 A 
HETATM   27  H   UNK N   1      29.176  16.833   5.563  0.00  0.00     0.169 HD
HETATM   28  O   UNK N   1      27.817  17.031   7.612  0.00  0.00    -0.268 OA
HETATM   29  C   UNK N   1      29.727  17.524   8.725  0.00  0.00     0.075 A 
HETATM   30  C   UNK N   1      33.062  17.246   4.965  0.00  0.00     0.039 A 
HETATM   31  C   UNK N   1      33.807  17.562   6.101  0.00  0.00     0.013 A 
BRANCH  25  32
HETATM   32  O   UNK N   1      30.980  16.766   3.948  0.00  0.00    -0.358 OA
HETATM   33  H   UNK N   1      31.388  16.731   3.106  0.00  0.00     0.217 HD
ENDBRANCH  25  32
ENDBRANCH   1  20
TORSDOF 8
ENDMDL
MODEL 6
REMARK VINA RESULT:      -7.8     17.294     20.588
REMARK  8 active torsions:
REMARK  status: ('A' for Active; 'I' for Inactive)
REMARK    1  A    between atoms: C_16  and  O_1 
REMARK    2  A    between atoms: O_2  and  C_27 
REMARK    3  A    between atoms: N_4  and  C_6 
REMARK    4  A    between atoms: N_4  and  C_13 
REMARK    5  A    between atoms: C_13  and  C_16 
REMARK    6  A    between atoms: C_14  and  C_17 
REMARK    7  A    between atoms: C_15  and  C_18 
REMARK    8  A    between atoms: C_16  and  C_19 
ROOT
HETATM    1  C   UNK N   1      26.551  22.838  -7.098  0.00  0.00     0.169 C 
ENDROOT
BRANCH   1   2
HETATM    2  O   UNK N   1      25.846  21.682  -7.431  0.00  0.00    -0.389 OA
HETATM    3  H   UNK N   1      25.103  21.328  -7.944  0.00  0.00     0.210 HD
ENDBRANCH   1   2
BRANCH   1   4
HETATM    4  C   UNK N   1      26.486  23.832  -8.252  0.00  0.00     0.150 C 
BRANCH   4   5
HETATM    5  N   UNK N   1      25.320  24.705  -8.158  0.00  0.00    -0.414 N 
HETATM    6  H   UNK N   1      24.386  24.432  -8.465  0.00  0.00     0.153 HD
BRANCH   5   7
HETATM    7  C   UNK N   1      25.628  26.014  -7.576  0.00  0.00     0.085 C 
HETATM    8  C   UNK N   1      27.022  26.577  -7.881  0.00  0.00     0.064 C 
HETATM    9  C   UNK N   1      27.101  27.605  -6.822  0.00  0.00    -0.049 A 
HETATM   10  C   UNK N   1      26.164  27.423  -5.839  0.00  0.00    -0.049 A 
HETATM   11  C   UNK N   1      27.964  28.697  -6.807  0.00  0.00     0.015 A 
HETATM   12  C   UNK N   1      25.303  26.243  -6.087  0.00  0.00     0.064 C 
HETATM   13  C   UNK N   1      26.047  28.324  -4.782  0.00  0.00     0.015 A 
HETATM   14  C   UNK N   1      26.899  29.442  -4.735  0.00  0.00    -0.052 A 
HETATM   15  C   UNK N   1      27.866  29.639  -5.761  0.00  0.00    -0.052 A 
BRANCH  14  16
HETATM   16  C   UNK N   1      26.712  30.431  -3.624  0.00  0.00     0.034 C 
HETATM   17  C   UNK N   1      27.600  30.112  -2.434  0.00  0.00     0.010 C 
ENDBRANCH  14  16
BRANCH  15  18
HETATM   18  C   UNK N   1      28.748  30.864  -5.746  0.00  0.00     0.034 C 
HETATM   19  C   UNK N   1      30.173  30.617  -6.222  0.00  0.00     0.010 C 
ENDBRANCH  15  18
ENDBRANCH   5   7
ENDBRANCH   4   5
ENDBRANCH   1   4
BRANCH   1  20
HETATM   20  C   UNK N   1      27.950  22.495  -6.653  0.00  0.00    -0.015 A 
HETATM   21  C   UNK N   1      28.667  23.242  -5.688  0.00  0.00     0.003 A 
HETATM   22  C   UNK N   1      29.990  22.862  -5.347  0.00  0.00     0.079 A 
HETATM   23  C   UNK N   1      28.110  24.365  -5.060  0.00  0.00     0.020 A 
HETATM   24  N   UNK N   1      30.691  23.581  -4.431  0.00  0.00    -0.321 N 
HETATM   25  C   UNK N   1      30.575  21.745  -5.961  0.00  0.00     0.093 A 
HETATM   26  C   UNK N   1      30.152  24.681  -3.815  0.00  0.00     0.245 A 
HETATM   27  H   UNK N   1      31.608  23.305  -4.202  0.00  0.00     0.169 HD
HETATM   28  O   UNK N   1      30.807  25.307  -3.004  0.00  0.00    -0.268 OA
HETATM   29  C   UNK N   1      28.851  25.085  -4.123  0.00  0.00     0.075 A 
HETATM   30  C   UNK N   1      29.859  21.014  -6.908  0.00  0.00     0.039 A 
HETATM   31  C   UNK N   1      28.560  21.390  -7.252  0.00  0.00     0.013 A 
BRANCH  25  32
HETATM   32  O   UNK N   1      31.829  21.374  -5.648  0.00  0.00    -0.358 OA
HETATM   33  H   UNK N   1      32.243  20.649  -6.073  0.00  0.00     0.217 HD
ENDBRANCH  25  32
ENDBRANCH   1  20
TORSDOF 8
ENDMDL
MODEL 7
REMARK VINA RESULT:      -7.8      9.579     13.871
REMARK  8 active torsions:
REMARK  status: ('A' for Active; 'I' for Inactive)
REMARK    1  A    between atoms: C_16  and  O_1 
REMARK    2  A    between atoms: O_2  and  C_27 
REMARK    3  A    between atoms: N_4  and  C_6 
REMARK    4  A    between atoms: N_4  and  C_13 
REMARK    5  A    between atoms: C_13  and  C_16 
REMARK    6  A    between atoms: C_14  and  C_17 
REMARK    7  A    between atoms: C_15  and  C_18 
REMARK    8  A    between atoms: C_16  and  C_19 
ROOT
HETATM    1  C   UNK N   1      21.063  13.067   7.646  0.00  0.00     0.169 C 
ENDROOT
BRANCH   1   2
HETATM    2  O   UNK N   1      20.950  11.872   6.937  0.00  0.00    -0.389 OA
HETATM    3  H   UNK N   1      20.343  11.161   6.675  0.00  0.00     0.210 HD
ENDBRANCH   1   2
BRANCH   1   4
HETATM    4  C   UNK N   1      20.862  14.247   6.702  0.00  0.00     0.150 C 
BRANCH   4   5
HETATM    5  N   UNK N   1      20.701  15.505   7.425  0.00  0.00    -0.414 N 
HETATM    6  H   UNK N   1      20.300  15.569   8.360  0.00  0.00     0.153 HD
BRANCH   5   7
HETATM    7  C   UNK N   1      21.176  16.667   6.669  0.00  0.00     0.085 C 
HETATM    8  C   UNK N   1      20.242  17.185   5.568  0.00  0.00     0.064 C 
HETATM    9  C   UNK N   1      21.205  18.001   4.801  0.00  0.00    -0.049 A 
HETATM   10  C   UNK N   1      22.508  17.706   5.108  0.00  0.00    -0.049 A 
HETATM   11  C   UNK N   1      20.885  19.015   3.903  0.00  0.00     0.015 A 
HETATM   12  C   UNK N   1      22.623  16.647   6.138  0.00  0.00     0.064 C 
HETATM   13  C   UNK N   1      23.560  18.411   4.525  0.00  0.00     0.015 A 
HETATM   14  C   UNK N   1      23.275  19.445   3.617  0.00  0.00    -0.052 A 
HETATM   15  C   UNK N   1      21.922  19.760   3.304  0.00  0.00    -0.052 A 
BRANCH  14  16
HETATM   16  C   UNK N   1      24.420  20.229   3.051  0.00  0.00     0.034 C 
HETATM   17  C   UNK N   1      25.723  19.914   3.764  0.00  0.00     0.010 C 
ENDBRANCH  14  16
BRANCH  15  18
HETATM   18  C   UNK N   1      21.606  20.904   2.371  0.00  0.00     0.034 C 
HETATM   19  C   UNK N   1      20.885  20.491   1.095  0.00  0.00     0.010 C 
ENDBRANCH  15  18
ENDBRANCH   5   7
ENDBRANCH   4   5
ENDBRANCH   1   4
BRANCH   1  20
HETATM   20  C   UNK N   1      22.358  13.104   8.416  0.00  0.00    -0.015 A 
HETATM   21  C   UNK N   1      22.470  12.721   9.774  0.00  0.00     0.003 A 
HETATM   22  C   UNK N   1      23.725  12.811  10.428  0.00  0.00     0.079 A 
HETATM   23  C   UNK N   1      21.366  12.261  10.505  0.00  0.00     0.020 A 
HETATM   24  N   UNK N   1      23.839  12.457  11.736  0.00  0.00    -0.321 N 
HETATM   25  C   UNK N   1      24.847  13.271   9.724  0.00  0.00     0.093 A 
HETATM   26  C   UNK N   1      22.762  12.009  12.456  0.00  0.00     0.245 A 
HETATM   27  H   UNK N   1      24.717  12.523  12.178  0.00  0.00     0.169 HD
HETATM   28  O   UNK N   1      22.895  11.706  13.626  0.00  0.00    -0.268 OA
HETATM   29  C   UNK N   1      21.510  11.904  11.845  0.00  0.00     0.075 A 
HETATM   30  C   UNK N   1      24.727  13.643   8.386  0.00  0.00     0.039 A 
HETATM   31  C   UNK N   1      23.493  13.563   7.741  0.00  0.00     0.013 A 
BRANCH  25  32
HETATM   32  O   UNK N   1      26.043  13.362  10.333  0.00  0.00    -0.358 OA
HETATM   33  H   UNK N   1      26.709  12.718  10.197  0.00  0.00     0.217 HD
ENDBRANCH  25  32
ENDBRANCH   1  20
TORSDOF 8
ENDMDL
MODEL 8
REMARK VINA RESULT:      -7.7      3.353      5.530
REMARK  8 active torsions:
REMARK  status: ('A' for Active; 'I' for Inactive)
REMARK    1  A    between atoms: C_16  and  O_1 
REMARK    2  A    between atoms: O_2  and  C_27 
REMARK    3  A    between atoms: N_4  and  C_6 
REMARK    4  A    between atoms: N_4  and  C_13 
REMARK    5  A    between atoms: C_13  and  C_16 
REMARK    6  A    between atoms: C_14  and  C_17 
REMARK    7  A    between atoms: C_15  and  C_18 
REMARK    8  A    between atoms: C_16  and  C_19 
ROOT
HETATM    1  C   UNK N   1      34.985  14.553  10.732  0.00  0.00     0.169 C 
ENDROOT
BRANCH   1   2
HETATM    2  O   UNK N   1      33.785  14.398  11.426  0.00  0.00    -0.389 OA
HETATM    3  H   UNK N   1      33.142  13.754  11.761  0.00  0.00     0.210 HD
ENDBRANCH   1   2
BRANCH   1   4
HETATM    4  C   UNK N   1      36.072  15.037  11.685  0.00  0.00     0.150 C 
BRANCH   4   5
HETATM    5  N   UNK N   1      37.032  13.982  12.001  0.00  0.00    -0.414 N 
HETATM    6  H   UNK N   1      37.912  13.855  11.501  0.00  0.00     0.153 HD
BRANCH   5   7
HETATM    7  C   UNK N   1      36.600  13.125  13.108  0.00  0.00     0.085 C 
HETATM    8  C   UNK N   1      36.242  13.841  14.417  0.00  0.00     0.064 C 
HETATM    9  C   UNK N   1      36.300  12.691  15.341  0.00  0.00    -0.049 A 
HETATM   10  C   UNK N   1      36.956  11.615  14.805  0.00  0.00    -0.049 A 
HETATM   11  C   UNK N   1      35.713  12.626  16.603  0.00  0.00     0.015 A 
HETATM   12  C   UNK N   1      37.439  11.873  13.428  0.00  0.00     0.064 C 
HETATM   13  C   UNK N   1      37.065  10.416  15.508  0.00  0.00     0.015 A 
HETATM   14  C   UNK N   1      36.481  10.312  16.783  0.00  0.00    -0.052 A 
HETATM   15  C   UNK N   1      35.789  11.425  17.338  0.00  0.00    -0.052 A 
BRANCH  14  16
HETATM   16  C   UNK N   1      36.557   8.993  17.493  0.00  0.00     0.034 C 
HETATM   17  C   UNK N   1      36.213   7.837  16.571  0.00  0.00     0.010 C 
ENDBRANCH  14  16
BRANCH  15  18
HETATM   18  C   UNK N   1      35.115  11.304  18.683  0.00  0.00     0.034 C 
HETATM   19  C   UNK N   1      35.321  12.503  19.599  0.00  0.00     0.010 C 
ENDBRANCH  15  18
ENDBRANCH   5   7
ENDBRANCH   4   5
ENDBRANCH   1   4
BRANCH   1  20
HETATM   20  C   UNK N   1      34.787  15.429   9.522  0.00  0.00    -0.015 A 
HETATM   21  C   UNK N   1      34.816  14.943   8.193  0.00  0.00     0.003 A 
HETATM   22  C   UNK N   1      34.644  15.845   7.112  0.00  0.00     0.079 A 
HETATM   23  C   UNK N   1      35.024  13.587   7.907  0.00  0.00     0.020 A 
HETATM   24  N   UNK N   1      34.684  15.389   5.832  0.00  0.00    -0.321 N 
HETATM   25  C   UNK N   1      34.438  17.208   7.366  0.00  0.00     0.093 A 
HETATM   26  C   UNK N   1      34.889  14.063   5.547  0.00  0.00     0.245 A 
HETATM   27  H   UNK N   1      34.562  16.025   5.090  0.00  0.00     0.169 HD
HETATM   28  O   UNK N   1      34.926  13.688   4.391  0.00  0.00    -0.268 OA
HETATM   29  C   UNK N   1      35.061  13.145   6.585  0.00  0.00     0.075 A 
HETATM   30  C   UNK N   1      34.407  17.676   8.679  0.00  0.00     0.039 A 
HETATM   31  C   UNK N   1      34.584  16.794   9.745  0.00  0.00     0.013 A 
BRANCH  25  32
HETATM   32  O   UNK N   1      34.274  18.074   6.350  0.00  0.00    -0.358 OA
HETATM   33  H   UNK N   1      33.725  17.869   5.620  0.00  0.00     0.217 HD
ENDBRANCH  25  32
ENDBRANCH   1  20
TORSDOF 8
ENDMDL
MODEL 9
REMARK VINA RESULT:      -7.7     18.345     21.035
REMARK  8 active torsions:
REMARK  status: ('A' for Active; 'I' for Inactive)
REMARK    1  A    between atoms: C_16  and  O_1 
REMARK    2  A    between atoms: O_2  and  C_27 
REMARK    3  A    between atoms: N_4  and  C_6 
REMARK    4  A    between atoms: N_4  and  C_13 
REMARK    5  A    between atoms: C_13  and  C_16 
REMARK    6  A    between atoms: C_14  and  C_17 
REMARK    7  A    between atoms: C_15  and  C_18 
REMARK    8  A    between atoms: C_16  and  C_19 
ROOT
HETATM    1  C   UNK N   1      26.540  28.344  -4.618  0.00  0.00     0.169 C 
ENDROOT
BRANCH   1   2
HETATM    2  O   UNK N   1      25.871  29.364  -3.943  0.00  0.00    -0.389 OA
HETATM    3  H   UNK N   1      25.530  29.653  -3.082  0.00  0.00     0.210 HD
ENDBRANCH   1   2
BRANCH   1   4
HETATM    4  C   UNK N   1      27.206  27.411  -3.612  0.00  0.00     0.150 C 
BRANCH   4   5
HETATM    5  N   UNK N   1      26.322  26.321  -3.209  0.00  0.00    -0.414 N 
HETATM    6  H   UNK N   1      25.635  26.402  -2.459  0.00  0.00     0.153 HD
BRANCH   5   7
HETATM    7  C   UNK N   1      26.524  25.099  -3.992  0.00  0.00     0.085 C 
HETATM    8  C   UNK N   1      27.937  24.877  -4.546  0.00  0.00     0.064 C 
HETATM    9  C   UNK N   1      27.633  23.861  -5.574  0.00  0.00    -0.049 A 
HETATM   10  C   UNK N   1      26.298  23.795  -5.872  0.00  0.00    -0.049 A 
HETATM   11  C   UNK N   1      28.550  22.994  -6.162  0.00  0.00     0.015 A 
HETATM   12  C   UNK N   1      25.491  24.756  -5.083  0.00  0.00     0.064 C 
HETATM   13  C   UNK N   1      25.810  22.858  -6.782  0.00  0.00     0.015 A 
HETATM   14  C   UNK N   1      26.706  21.962  -7.392  0.00  0.00    -0.052 A 
HETATM   15  C   UNK N   1      28.092  22.022  -7.076  0.00  0.00    -0.052 A 
BRANCH  14  16
HETATM   16  C   UNK N   1      26.149  20.922  -8.318  0.00  0.00     0.034 C 
HETATM   17  C   UNK N   1      25.923  21.476  -9.713  0.00  0.00     0.010 C 
ENDBRANCH  14  16
BRANCH  15  18
HETATM   18  C   UNK N   1      29.052  21.029  -7.686  0.00  0.00     0.034 C 
HETATM   19  C   UNK N   1      30.021  20.402  -6.693  0.00  0.00     0.010 C 
ENDBRANCH  15  18
ENDBRANCH   5   7
ENDBRANCH   4   5
ENDBRANCH   1   4
BRANCH   1  20
HETATM   20  C   UNK N   1      27.480  28.918  -5.647  0.00  0.00    -0.015 A 
HETATM   21  C   UNK N   1      27.710  28.325  -6.912  0.00  0.00     0.003 A 
HETATM   22  C   UNK N   1      28.631  28.921  -7.810  0.00  0.00     0.079 A 
HETATM   23  C   UNK N   1      27.058  27.148  -7.305  0.00  0.00     0.020 A 
HETATM   24  N   UNK N   1      28.868  28.351  -9.022  0.00  0.00    -0.321 N 
HETATM   25  C   UNK N   1      29.302  30.096  -7.443  0.00  0.00     0.093 A 
HETATM   26  C   UNK N   1      28.234  27.198  -9.410  0.00  0.00     0.245 A 
HETATM   27  H   UNK N   1      29.509  28.776  -9.636  0.00  0.00     0.169 HD
HETATM   28  O   UNK N   1      28.472  26.710 -10.498  0.00  0.00    -0.268 OA
HETATM   29  C   UNK N   1      27.318  26.584  -8.553  0.00  0.00     0.075 A 
HETATM   30  C   UNK N   1      29.066  30.674  -6.197  0.00  0.00     0.039 A 
HETATM   31  C   UNK N   1      28.167  30.087  -5.307  0.00  0.00     0.013 A 
BRANCH  25  32
HETATM   32  O   UNK N   1      30.179  30.671  -8.285  0.00  0.00    -0.358 OA
HETATM   33  H   UNK N   1      31.005  30.273  -8.474  0.00  0.00     0.217 HD
ENDBRANCH  25  32
ENDBRANCH   1  20
TORSDOF 8
ENDMDL
