MODEL 1
REMARK VINA RESULT:      -6.7      0.000      0.000
REMARK  5 active torsions:
REMARK  status: ('A' for Active; 'I' for Inactive)
REMARK    1  A    between atoms: O_1  and  C_2 
REMARK    2  A    between atoms: C_4  and  O_1 
REMARK    3  A    between atoms: C_12  and  N_14 
REMARK    4  A    between atoms: C_16  and  N_17 
REMARK    5  A    between atoms: N_17  and  S_18 
ROOT
HETATM    1  C   UNK N   1      26.356  25.507  -3.992  0.00  0.00     0.105 A 
HETATM    2  C   UNK N   1      26.667  26.729  -3.375  0.00  0.00     0.075 A 
HETATM    3  C   UNK N   1      25.423  27.937  -5.051  0.00  0.00     0.038 A 
HETATM    4  C   UNK N   1      25.091  26.729  -5.668  0.00  0.00     0.035 A 
HETATM    5  C   UNK N   1      26.205  27.943  -3.891  0.00  0.00     0.105 A 
HETATM    6  C   UNK N   1      25.549  25.512  -5.142  0.00  0.00     0.076 A 
ENDROOT
BRANCH   1   7
HETATM    7  O   UNK N   1      26.762  24.317  -3.463  0.00  0.00    -0.308 OA
BRANCH   7   8
HETATM    8  C   UNK N   1      28.040  23.882  -3.278  0.00  0.00     0.076 A 
HETATM    9  C   UNK N   1      28.466  23.291  -2.074  0.00  0.00     0.037 A 
HETATM   10  C   UNK N   1      29.783  22.852  -1.925  0.00  0.00     0.003 A 
HETATM   11  C   UNK N   1      30.687  22.997  -2.979  0.00  0.00     0.000 A 
HETATM   12  C   UNK N   1      30.277  23.591  -4.175  0.00  0.00     0.003 A 
HETATM   13  C   UNK N   1      28.960  24.036  -4.321  0.00  0.00     0.037 A 
ENDBRANCH   7   8
ENDBRANCH   1   7
BRANCH   6  14
HETATM   14  N   UNK N   1      25.168  24.282  -5.735  0.00  0.00    -0.282 N 
HETATM   15  H   UNK N   1      24.449  23.753  -5.319  0.00  0.00     0.178 HD
BRANCH  14  16
HETATM   16  S   UNK N   1      25.939  23.674  -7.192  0.00  0.00     0.227 S 
HETATM   17  O   UNK N   1      26.795  22.494  -6.711  0.00  0.00    -0.206 OA
HETATM   18  C   UNK N   1      26.845  24.830  -8.259  0.00  0.00     0.186 C 
HETATM   19  O   UNK N   1      24.804  22.949  -7.931  0.00  0.00    -0.206 OA
ENDBRANCH  14  16
ENDBRANCH   6  14
BRANCH   5  20
HETATM   20  N   UNK N   1      26.504  29.164  -3.224  0.00  0.00    -0.116 N 
HETATM   21  O   UNK N   1      27.229  29.157  -2.125  0.00  0.00    -0.532 OA
HETATM   22  O   UNK N   1      26.130  30.204  -3.675  0.00  0.00    -0.532 OA
ENDBRANCH   5  20
TORSDOF 5
ENDMDL
MODEL 2
REMARK VINA RESULT:      -6.5      2.574      5.210
REMARK  5 active torsions:
REMARK  status: ('A' for Active; 'I' for Inactive)
REMARK    1  A    between atoms: O_1  and  C_2 
REMARK    2  A    between atoms: C_4  and  O_1 
REMARK    3  A    between atoms: C_12  and  N_14 
REMARK    4  A    between atoms: C_16  and  N_17 
REMARK    5  A    between atoms: N_17  and  S_18 
ROOT
HETATM    1  C   UNK N   1      27.611  24.052  -4.630  0.00  0.00     0.105 A 
HETATM    2  C   UNK N   1      28.470  23.850  -3.538  0.00  0.00     0.075 A 
HETATM    3  C   UNK N   1      29.848  22.365  -4.848  0.00  0.00     0.038 A 
HETATM    4  C   UNK N   1      29.012  22.568  -5.948  0.00  0.00     0.035 A 
HETATM    5  C   UNK N   1      29.588  23.016  -3.637  0.00  0.00     0.105 A 
HETATM    6  C   UNK N   1      27.896  23.413  -5.848  0.00  0.00     0.076 A 
ENDROOT
BRANCH   1   7
HETATM    7  O   UNK N   1      26.549  24.905  -4.554  0.00  0.00    -0.308 OA
BRANCH   7   8
HETATM    8  C   UNK N   1      26.574  26.267  -4.579  0.00  0.00     0.076 A 
HETATM    9  C   UNK N   1      26.968  26.991  -5.719  0.00  0.00     0.037 A 
HETATM   10  C   UNK N   1      26.974  28.387  -5.708  0.00  0.00     0.003 A 
HETATM   11  C   UNK N   1      26.585  29.075  -4.558  0.00  0.00     0.000 A 
HETATM   12  C   UNK N   1      26.201  28.366  -3.417  0.00  0.00     0.003 A 
HETATM   13  C   UNK N   1      26.201  26.967  -3.427  0.00  0.00     0.037 A 
ENDBRANCH   7   8
ENDBRANCH   1   7
BRANCH   6  14
HETATM   14  N   UNK N   1      27.078  23.662  -6.979  0.00  0.00    -0.282 N 
HETATM   15  H   UNK N   1      27.214  24.491  -7.493  0.00  0.00     0.178 HD
BRANCH  14  16
HETATM   16  S   UNK N   1      25.832  22.536  -7.491  0.00  0.00     0.227 S 
HETATM   17  O   UNK N   1      24.953  22.342  -6.247  0.00  0.00    -0.206 OA
HETATM   18  C   UNK N   1      26.322  20.973  -8.273  0.00  0.00     0.186 C 
HETATM   19  O   UNK N   1      24.916  23.385  -8.386  0.00  0.00    -0.206 OA
ENDBRANCH  14  16
ENDBRANCH   6  14
BRANCH   5  20
HETATM   20  N   UNK N   1      30.463  22.859  -2.527  0.00  0.00    -0.116 N 
HETATM   21  O   UNK N   1      31.712  22.485  -2.716  0.00  0.00    -0.532 OA
HETATM   22  O   UNK N   1      30.083  23.099  -1.421  0.00  0.00    -0.532 OA
ENDBRANCH   5  20
TORSDOF 5
ENDMDL
MODEL 3
REMARK VINA RESULT:      -6.4     16.374     17.944
REMARK  5 active torsions:
REMARK  status: ('A' for Active; 'I' for Inactive)
REMARK    1  A    between atoms: O_1  and  C_2 
REMARK    2  A    between atoms: C_4  and  O_1 
REMARK    3  A    between atoms: C_12  and  N_14 
REMARK    4  A    between atoms: C_16  and  N_17 
REMARK    5  A    between atoms: N_17  and  S_18 
ROOT
HETATM    1  C   UNK N   1      20.634  14.734   8.260  0.00  0.00     0.105 A 
HETATM    2  C   UNK N   1      20.102  15.787   9.021  0.00  0.00     0.075 A 
HETATM    3  C   UNK N   1      20.495  17.340   7.217  0.00  0.00     0.038 A 
HETATM    4  C   UNK N   1      21.012  16.300   6.441  0.00  0.00     0.035 A 
HETATM    5  C   UNK N   1      20.026  17.086   8.510  0.00  0.00     0.105 A 
HETATM    6  C   UNK N   1      21.079  14.995   6.953  0.00  0.00     0.076 A 
ENDROOT
BRANCH   1   7
HETATM    7  O   UNK N   1      20.663  13.455   8.733  0.00  0.00    -0.308 OA
BRANCH   7   8
HETATM    8  C   UNK N   1      21.509  12.934   9.666  0.00  0.00     0.076 A 
HETATM    9  C   UNK N   1      22.894  12.820   9.446  0.00  0.00     0.037 A 
HETATM   10  C   UNK N   1      23.729  12.288  10.430  0.00  0.00     0.003 A 
HETATM   11  C   UNK N   1      23.189  11.864  11.645  0.00  0.00     0.000 A 
HETATM   12  C   UNK N   1      21.813  11.962  11.871  0.00  0.00     0.003 A 
HETATM   13  C   UNK N   1      20.977  12.491  10.882  0.00  0.00     0.037 A 
ENDBRANCH   7   8
ENDBRANCH   1   7
BRANCH   6  14
HETATM   14  N   UNK N   1      21.552  13.929   6.147  0.00  0.00    -0.282 N 
HETATM   15  H   UNK N   1      22.516  13.728   6.138  0.00  0.00     0.178 HD
BRANCH  14  16
HETATM   16  S   UNK N   1      20.469  12.954   5.167  0.00  0.00     0.227 S 
HETATM   17  O   UNK N   1      20.191  11.710   6.021  0.00  0.00    -0.206 OA
HETATM   18  C   UNK N   1      20.938  12.561   3.458  0.00  0.00     0.186 C 
HETATM   19  O   UNK N   1      19.126  13.695   5.257  0.00  0.00    -0.206 OA
ENDBRANCH  14  16
ENDBRANCH   6  14
BRANCH   5  20
HETATM   20  N   UNK N   1      19.448  18.127   9.289  0.00  0.00    -0.116 N 
HETATM   21  O   UNK N   1      18.208  18.022   9.720  0.00  0.00    -0.532 OA
HETATM   22  O   UNK N   1      20.094  19.086   9.588  0.00  0.00    -0.532 OA
ENDBRANCH   5  20
TORSDOF 5
ENDMDL
MODEL 4
REMARK VINA RESULT:      -6.2     16.196     17.885
REMARK  5 active torsions:
REMARK  status: ('A' for Active; 'I' for Inactive)
REMARK    1  A    between atoms: O_1  and  C_2 
REMARK    2  A    between atoms: C_4  and  O_1 
REMARK    3  A    between atoms: C_12  and  N_14 
REMARK    4  A    between atoms: C_16  and  N_17 
REMARK    5  A    between atoms: N_17  and  S_18 
ROOT
HETATM    1  C   UNK N   1      20.699  14.449   8.177  0.00  0.00     0.105 A 
HETATM    2  C   UNK N   1      20.124  15.509   8.897  0.00  0.00     0.075 A 
HETATM    3  C   UNK N   1      20.461  17.006   7.036  0.00  0.00     0.038 A 
HETATM    4  C   UNK N   1      21.020  15.959   6.301  0.00  0.00     0.035 A 
HETATM    5  C   UNK N   1      19.998  16.783   8.337  0.00  0.00     0.105 A 
HETATM    6  C   UNK N   1      21.137  14.678   6.862  0.00  0.00     0.076 A 
ENDROOT
BRANCH   1   7
HETATM    7  O   UNK N   1      20.777  13.191   8.699  0.00  0.00    -0.308 OA
BRANCH   7   8
HETATM    8  C   UNK N   1      21.563  12.766   9.728  0.00  0.00     0.076 A 
HETATM    9  C   UNK N   1      21.036  12.439  10.991  0.00  0.00     0.037 A 
HETATM   10  C   UNK N   1      21.873  12.000  12.018  0.00  0.00     0.003 A 
HETATM   11  C   UNK N   1      23.246  11.881  11.794  0.00  0.00     0.000 A 
HETATM   12  C   UNK N   1      23.781  12.213  10.546  0.00  0.00     0.003 A 
HETATM   13  C   UNK N   1      22.942  12.658   9.520  0.00  0.00     0.037 A 
ENDBRANCH   7   8
ENDBRANCH   1   7
BRANCH   6  14
HETATM   14  N   UNK N   1      21.654  13.601   6.099  0.00  0.00    -0.282 N 
HETATM   15  H   UNK N   1      21.028  12.949   5.708  0.00  0.00     0.178 HD
BRANCH  14  16
HETATM   16  S   UNK N   1      23.377  13.397   5.826  0.00  0.00     0.227 S 
HETATM   17  O   UNK N   1      23.611  13.948   4.412  0.00  0.00    -0.206 OA
HETATM   18  C   UNK N   1      24.126  11.766   6.094  0.00  0.00     0.186 C 
HETATM   19  O   UNK N   1      24.017  14.493   6.692  0.00  0.00    -0.206 OA
ENDBRANCH  14  16
ENDBRANCH   6  14
BRANCH   5  20
HETATM   20  N   UNK N   1      19.378  17.830   9.075  0.00  0.00    -0.116 N 
HETATM   21  O   UNK N   1      20.031  18.949   9.313  0.00  0.00    -0.532 OA
HETATM   22  O   UNK N   1      18.252  17.715   9.454  0.00  0.00    -0.532 OA
ENDBRANCH   5  20
TORSDOF 5
ENDMDL
MODEL 5
REMARK VINA RESULT:      -6.0     12.330     14.502
REMARK  5 active torsions:
REMARK  status: ('A' for Active; 'I' for Inactive)
REMARK    1  A    between atoms: O_1  and  C_2 
REMARK    2  A    between atoms: C_4  and  O_1 
REMARK    3  A    between atoms: C_12  and  N_14 
REMARK    4  A    between atoms: C_16  and  N_17 
REMARK    5  A    between atoms: N_17  and  S_18 
ROOT
HETATM    1  C   UNK N   1      31.247  17.073   6.257  0.00  0.00     0.105 A 
HETATM    2  C   UNK N   1      32.023  17.495   7.348  0.00  0.00     0.075 A 
HETATM    3  C   UNK N   1      34.049  17.194   6.073  0.00  0.00     0.038 A 
HETATM    4  C   UNK N   1      33.290  16.787   4.973  0.00  0.00     0.035 A 
HETATM    5  C   UNK N   1      33.417  17.562   7.265  0.00  0.00     0.105 A 
HETATM    6  C   UNK N   1      31.890  16.729   5.056  0.00  0.00     0.076 A 
ENDROOT
BRANCH   1   7
HETATM    7  O   UNK N   1      29.884  17.055   6.315  0.00  0.00    -0.308 OA
BRANCH   7   8
HETATM    8  C   UNK N   1      29.035  18.118   6.233  0.00  0.00     0.076 A 
HETATM    9  C   UNK N   1      28.483  18.728   7.374  0.00  0.00     0.037 A 
HETATM   10  C   UNK N   1      27.622  19.820   7.250  0.00  0.00     0.003 A 
HETATM   11  C   UNK N   1      27.305  20.315   5.983  0.00  0.00     0.000 A 
HETATM   12  C   UNK N   1      27.839  19.710   4.843  0.00  0.00     0.003 A 
HETATM   13  C   UNK N   1      28.697  18.612   4.969  0.00  0.00     0.037 A 
ENDBRANCH   7   8
ENDBRANCH   1   7
BRANCH   6  14
HETATM   14  N   UNK N   1      31.116  16.369   3.924  0.00  0.00    -0.282 N 
HETATM   15  H   UNK N   1      30.718  17.080   3.372  0.00  0.00     0.178 HD
BRANCH  14  16
HETATM   16  S   UNK N   1      30.847  14.692   3.478  0.00  0.00     0.227 S 
HETATM   17  O   UNK N   1      30.242  14.051   4.735  0.00  0.00    -0.206 OA
HETATM   18  C   UNK N   1      32.219  13.735   2.774  0.00  0.00     0.186 C 
HETATM   19  O   UNK N   1      29.626  14.753   2.546  0.00  0.00    -0.206 OA
ENDBRANCH  14  16
ENDBRANCH   6  14
BRANCH   5  20
HETATM   20  N   UNK N   1      34.177  18.030   8.374  0.00  0.00    -0.116 N 
HETATM   21  O   UNK N   1      34.882  19.138   8.273  0.00  0.00    -0.532 OA
HETATM   22  O   UNK N   1      34.152  17.441   9.412  0.00  0.00    -0.532 OA
ENDBRANCH   5  20
TORSDOF 5
ENDMDL
MODEL 6
REMARK VINA RESULT:      -6.0     13.052     15.204
REMARK  5 active torsions:
REMARK  status: ('A' for Active; 'I' for Inactive)
REMARK    1  A    between atoms: O_1  and  C_2 
REMARK    2  A    between atoms: C_4  and  O_1 
REMARK    3  A    between atoms: C_12  and  N_14 
REMARK    4  A    between atoms: C_16  and  N_17 
REMARK    5  A    between atoms: N_17  and  S_18 
ROOT
HETATM    1  C   UNK N   1      31.821  16.348   7.118  0.00  0.00     0.105 A 
HETATM    2  C   UNK N   1      32.608  17.158   7.953  0.00  0.00     0.075 A 
HETATM    3  C   UNK N   1      34.618  16.420   6.843  0.00  0.00     0.038 A 
HETATM    4  C   UNK N   1      33.849  15.621   5.994  0.00  0.00     0.035 A 
HETATM    5  C   UNK N   1      33.999  17.203   7.822  0.00  0.00     0.105 A 
HETATM    6  C   UNK N   1      32.452  15.585   6.121  0.00  0.00     0.076 A 
ENDROOT
BRANCH   1   7
HETATM    7  O   UNK N   1      30.460  16.340   7.207  0.00  0.00    -0.308 OA
BRANCH   7   8
HETATM    8  C   UNK N   1      29.603  17.360   6.922  0.00  0.00     0.076 A 
HETATM    9  C   UNK N   1      29.250  17.699   5.603  0.00  0.00     0.037 A 
HETATM   10  C   UNK N   1      28.362  18.746   5.351  0.00  0.00     0.003 A 
HETATM   11  C   UNK N   1      27.816  19.466   6.416  0.00  0.00     0.000 A 
HETATM   12  C   UNK N   1      28.168  19.144   7.729  0.00  0.00     0.003 A 
HETATM   13  C   UNK N   1      29.062  18.099   7.980  0.00  0.00     0.037 A 
ENDBRANCH   7   8
ENDBRANCH   1   7
BRANCH   6  14
HETATM   14  N   UNK N   1      31.666  14.818   5.225  0.00  0.00    -0.282 N 
HETATM   15  H   UNK N   1      31.262  13.978   5.542  0.00  0.00     0.178 HD
BRANCH  14  16
HETATM   16  S   UNK N   1      31.390  15.323   3.565  0.00  0.00     0.227 S 
HETATM   17  O   UNK N   1      31.867  16.781   3.523  0.00  0.00    -0.206 OA
HETATM   18  C   UNK N   1      29.748  15.083   2.832  0.00  0.00     0.186 C 
HETATM   19  O   UNK N   1      32.501  14.613   2.777  0.00  0.00    -0.206 OA
ENDBRANCH  14  16
ENDBRANCH   6  14
BRANCH   5  20
HETATM   20  N   UNK N   1      34.767  18.061   8.657  0.00  0.00    -0.116 N 
HETATM   21  O   UNK N   1      35.266  17.610   9.790  0.00  0.00    -0.532 OA
HETATM   22  O   UNK N   1      34.996  19.184   8.322  0.00  0.00    -0.532 OA
ENDBRANCH   5  20
TORSDOF 5
ENDMDL
MODEL 7
REMARK VINA RESULT:      -5.9     20.759     23.489
REMARK  5 active torsions:
REMARK  status: ('A' for Active; 'I' for Inactive)
REMARK    1  A    between atoms: O_1  and  C_2 
REMARK    2  A    between atoms: C_4  and  O_1 
REMARK    3  A    between atoms: C_12  and  N_14 
REMARK    4  A    between atoms: C_16  and  N_17 
REMARK    5  A    between atoms: N_17  and  S_18 
ROOT
HETATM    1  C   UNK N   1      36.337  13.637  12.805  0.00  0.00     0.105 A 
HETATM    2  C   UNK N   1      35.668  14.726  12.223  0.00  0.00     0.075 A 
HETATM    3  C   UNK N   1      36.950  14.481  10.195  0.00  0.00     0.038 A 
HETATM    4  C   UNK N   1      37.613  13.385  10.752  0.00  0.00     0.035 A 
HETATM    5  C   UNK N   1      35.963  15.151  10.924  0.00  0.00     0.105 A 
HETATM    6  C   UNK N   1      37.309  12.955  12.053  0.00  0.00     0.076 A 
ENDROOT
BRANCH   1   7
HETATM    7  O   UNK N   1      36.017  13.186  14.052  0.00  0.00    -0.308 OA
BRANCH   7   8
HETATM    8  C   UNK N   1      36.181  13.836  15.238  0.00  0.00     0.076 A 
HETATM    9  C   UNK N   1      37.110  14.881  15.400  0.00  0.00     0.037 A 
HETATM   10  C   UNK N   1      37.245  15.528  16.629  0.00  0.00     0.003 A 
HETATM   11  C   UNK N   1      36.451  15.139  17.710  0.00  0.00     0.000 A 
HETATM   12  C   UNK N   1      35.533  14.096  17.563  0.00  0.00     0.003 A 
HETATM   13  C   UNK N   1      35.403  13.445  16.333  0.00  0.00     0.037 A 
ENDBRANCH   7   8
ENDBRANCH   1   7
BRANCH   6  14
HETATM   14  N   UNK N   1      37.941  11.811  12.600  0.00  0.00    -0.282 N 
HETATM   15  H   UNK N   1      38.832  11.906  13.007  0.00  0.00     0.178 HD
BRANCH  14  16
HETATM   16  S   UNK N   1      37.181  10.228  12.574  0.00  0.00     0.227 S 
HETATM   17  O   UNK N   1      36.126  10.325  11.464  0.00  0.00    -0.206 OA
HETATM   18  C   UNK N   1      36.533   9.535  14.121  0.00  0.00     0.186 C 
HETATM   19  O   UNK N   1      38.237   9.325  11.917  0.00  0.00    -0.206 OA
ENDBRANCH  14  16
ENDBRANCH   6  14
BRANCH   5  20
HETATM   20  N   UNK N   1      35.244  16.234  10.346  0.00  0.00    -0.116 N 
HETATM   21  O   UNK N   1      34.110  16.013   9.713  0.00  0.00    -0.532 OA
HETATM   22  O   UNK N   1      35.643  17.353  10.461  0.00  0.00    -0.532 OA
ENDBRANCH   5  20
TORSDOF 5
ENDMDL
MODEL 8
REMARK VINA RESULT:      -5.9     10.695     12.482
REMARK  5 active torsions:
REMARK  status: ('A' for Active; 'I' for Inactive)
REMARK    1  A    between atoms: O_1  and  C_2 
REMARK    2  A    between atoms: C_4  and  O_1 
REMARK    3  A    between atoms: C_12  and  N_14 
REMARK    4  A    between atoms: C_16  and  N_17 
REMARK    5  A    between atoms: N_17  and  S_18 
ROOT
HETATM    1  C   UNK N   1      22.514  18.565   4.010  0.00  0.00     0.105 A 
HETATM    2  C   UNK N   1      22.270  19.544   3.034  0.00  0.00     0.075 A 
HETATM    3  C   UNK N   1      20.334  18.336   2.251  0.00  0.00     0.038 A 
HETATM    4  C   UNK N   1      20.554  17.361   3.227  0.00  0.00     0.035 A 
HETATM    5  C   UNK N   1      21.186  19.441   2.157  0.00  0.00     0.105 A 
HETATM    6  C   UNK N   1      21.637  17.472   4.112  0.00  0.00     0.076 A 
ENDROOT
BRANCH   1   7
HETATM    7  O   UNK N   1      23.539  18.686   4.902  0.00  0.00    -0.308 OA
BRANCH   7   8
HETATM    8  C   UNK N   1      24.870  18.792   4.628  0.00  0.00     0.076 A 
HETATM    9  C   UNK N   1      25.584  19.989   4.823  0.00  0.00     0.037 A 
HETATM   10  C   UNK N   1      26.949  20.057   4.538  0.00  0.00     0.003 A 
HETATM   11  C   UNK N   1      27.616  18.929   4.056  0.00  0.00     0.000 A 
HETATM   12  C   UNK N   1      26.914  17.739   3.849  0.00  0.00     0.003 A 
HETATM   13  C   UNK N   1      25.545  17.673   4.129  0.00  0.00     0.037 A 
ENDBRANCH   7   8
ENDBRANCH   1   7
BRANCH   6  14
HETATM   14  N   UNK N   1      21.830  16.513   5.138  0.00  0.00    -0.282 N 
HETATM   15  H   UNK N   1      22.476  15.784   4.996  0.00  0.00     0.178 HD
BRANCH  14  16
HETATM   16  S   UNK N   1      20.951  16.588   6.657  0.00  0.00     0.227 S 
HETATM   17  O   UNK N   1      21.011  18.067   7.064  0.00  0.00    -0.206 OA
HETATM   18  C   UNK N   1      21.411  15.457   8.000  0.00  0.00     0.186 C 
HETATM   19  O   UNK N   1      19.481  16.443   6.238  0.00  0.00    -0.206 OA
ENDBRANCH  14  16
ENDBRANCH   6  14
BRANCH   5  20
HETATM   20  N   UNK N   1      20.940  20.466   1.202  0.00  0.00    -0.116 N 
HETATM   21  O   UNK N   1      20.842  21.722   1.589  0.00  0.00    -0.532 OA
HETATM   22  O   UNK N   1      20.857  20.202   0.041  0.00  0.00    -0.532 OA
ENDBRANCH   5  20
TORSDOF 5
ENDMDL
MODEL 9
REMARK VINA RESULT:      -5.7     21.801     24.486
REMARK  5 active torsions:
REMARK  status: ('A' for Active; 'I' for Inactive)
REMARK    1  A    between atoms: O_1  and  C_2 
REMARK    2  A    between atoms: C_4  and  O_1 
REMARK    3  A    between atoms: C_12  and  N_14 
REMARK    4  A    between atoms: C_16  and  N_17 
REMARK    5  A    between atoms: N_17  and  S_18 
ROOT
HETATM    1  C   UNK N   1      35.012  12.779  14.880  0.00  0.00     0.105 A 
HETATM    2  C   UNK N   1      34.786  13.036  16.241  0.00  0.00     0.075 A 
HETATM    3  C   UNK N   1      36.702  14.499  16.324  0.00  0.00     0.038 A 
HETATM    4  C   UNK N   1      36.931  14.267  14.966  0.00  0.00     0.035 A 
HETATM    5  C   UNK N   1      35.618  13.892  16.968  0.00  0.00     0.105 A 
HETATM    6  C   UNK N   1      36.088  13.414  14.237  0.00  0.00     0.076 A 
ENDROOT
BRANCH   1   7
HETATM    7  O   UNK N   1      34.173  11.986  14.154  0.00  0.00    -0.308 OA
BRANCH   7   8
HETATM    8  C   UNK N   1      34.444  10.763  13.616  0.00  0.00     0.076 A 
HETATM    9  C   UNK N   1      33.978  10.381  12.344  0.00  0.00     0.037 A 
HETATM   10  C   UNK N   1      34.282   9.122  11.824  0.00  0.00     0.003 A 
HETATM   11  C   UNK N   1      35.058   8.231  12.568  0.00  0.00     0.000 A 
HETATM   12  C   UNK N   1      35.517   8.597  13.836  0.00  0.00     0.003 A 
HETATM   13  C   UNK N   1      35.206   9.856  14.359  0.00  0.00     0.037 A 
ENDBRANCH   7   8
ENDBRANCH   1   7
BRANCH   6  14
HETATM   14  N   UNK N   1      36.286  13.221  12.847  0.00  0.00    -0.282 N 
HETATM   15  H   UNK N   1      36.759  12.414  12.539  0.00  0.00     0.178 HD
BRANCH  14  16
HETATM   16  S   UNK N   1      35.711  14.377  11.657  0.00  0.00     0.227 S 
HETATM   17  O   UNK N   1      34.181  14.334  11.786  0.00  0.00    -0.206 OA
HETATM   18  C   UNK N   1      36.290  14.241   9.942  0.00  0.00     0.186 C 
HETATM   19  O   UNK N   1      36.034  15.741  12.285  0.00  0.00    -0.206 OA
ENDBRANCH  14  16
ENDBRANCH   6  14
BRANCH   5  20
HETATM   20  N   UNK N   1      35.344  14.164  18.337  0.00  0.00    -0.116 N 
HETATM   21  O   UNK N   1      35.156  15.403  18.742  0.00  0.00    -0.532 OA
HETATM   22  O   UNK N   1      35.248  13.269  19.122  0.00  0.00    -0.532 OA
ENDBRANCH   5  20
TORSDOF 5
ENDMDL
