REMARK  7 active torsions:
REMARK  status: ('A' for Active; 'I' for Inactive)
REMARK    1  A    between atoms: N_3  and  C_12 
REMARK    2  A    between atoms: N_4  and  C_15 
REMARK       I    between atoms: N_6  and  C_32 
REMARK    3  A    between atoms: C_12  and  C_13 
REMARK    4  A    between atoms: C_13  and  C_14 
REMARK    5  A    between atoms: C_14  and  C_16 
REMARK    6  A    between atoms: C_16  and  C_17 
REMARK    7  A    between atoms: C_29  and  C_32 
ROOT
HETATM    1  N   UNK N   1       2.284   3.226   0.093  0.00  0.00    -0.365 N 
HETATM    2  N   UNK N   1       0.809  -3.280   0.375  0.00  0.00    -0.191 NA
HETATM    3  C   UNK N   1       3.764   1.772   0.909  0.00  0.00    -0.030 A 
HETATM    4  C   UNK N   1       2.664   1.082   0.523  0.00  0.00    -0.000 A 
HETATM    5  C   UNK N   1       3.522   3.106   0.644  0.00  0.00     0.096 A 
HETATM    6  C   UNK N   1       1.790   1.972   0.010  0.00  0.00     0.043 A 
HETATM    7  C   UNK N   1       2.435  -0.281   0.546  0.00  0.00     0.037 A 
HETATM    8  C   UNK N   1       0.590   1.547  -0.563  0.00  0.00     0.032 A 
HETATM    9  C   UNK N   1       1.239  -0.751   0.032  0.00  0.00     0.045 A 
HETATM   10  C   UNK N   1       0.309   0.155  -0.544  0.00  0.00     0.025 A 
HETATM   11  C   UNK N   1       0.965  -2.146   0.207  0.00  0.00     0.099 C 
HETATM   12  H   UNK N   1       1.839   4.058  -0.188  0.00  0.00     0.165 HD
ENDROOT
BRANCH   3  13
HETATM   13  C   UNK N   1       5.036   1.129   1.274  0.00  0.00     0.041 C 
BRANCH  13  14
HETATM   14  C   UNK N   1       5.296   0.160   0.129  0.00  0.00     0.006 C 
BRANCH  14  15
HETATM   15  C   UNK N   1       5.293   0.818  -1.262  0.00  0.00     0.030 C 
BRANCH  15  16
HETATM   16  C   UNK N   1       6.436   1.820  -1.409  0.00  0.00     0.272 C 
BRANCH  16  17
HETATM   17  N   UNK N   1       7.769   1.219  -1.553  0.00  0.00     0.091 N 
HETATM   18  C   UNK N   1       7.802  -0.233  -1.851  0.00  0.00     0.292 C 
HETATM   19  C   UNK N   1       7.509  -1.089  -0.609  0.00  0.00     0.153 C 
HETATM   20  N   UNK N   1       8.391  -0.646   0.420  0.00  0.00    -0.377 N 
HETATM   21  C   UNK N   1       8.304   0.752   0.807  0.00  0.00     0.153 C 
HETATM   22  C   UNK N   1       8.610   1.612  -0.418  0.00  0.00     0.292 C 
BRANCH  20  23
HETATM   23  C   UNK N   1       9.642  -1.252   0.337  0.00  0.00     0.031 A 
HETATM   24  C   UNK N   1      10.749  -0.444   0.118  0.00  0.00     0.043 A 
HETATM   25  C   UNK N   1      11.931  -1.056  -0.106  0.00  0.00     0.003 A 
HETATM   26  C   UNK N   1      12.078  -2.411  -0.105  0.00  0.00     0.086 A 
HETATM   27  C   UNK N   1      13.146  -0.480  -0.171  0.00  0.00     0.057 A 
HETATM   28  O   UNK N   1      13.345  -2.701  -0.126  0.00  0.00    -0.304 OA
HETATM   29  C   UNK N   1      10.998  -3.269   0.064  0.00  0.00     0.040 A 
HETATM   30  C   UNK N   1      14.005  -1.554  -0.143  0.00  0.00     0.144 A 
HETATM   31  C   UNK N   1       9.747  -2.668   0.262  0.00  0.00     0.032 A 
BRANCH  30  32
HETATM   32  C   UNK N   1      15.391  -1.396   0.245  0.00  0.00     0.273 C 
HETATM   33  O   UNK N   1      15.849  -0.273   0.389  0.00  0.00    -0.266 OA
HETATM   34  N   UNK N   1      16.089  -2.464   0.663  0.00  0.00    -0.364 N 
HETATM   35  H   UNK N   1      15.667  -3.299   0.970  0.00  0.00     0.159 HD
HETATM   36  H   UNK N   1      17.072  -2.410   0.663  0.00  0.00     0.159 HD
ENDBRANCH  30  32
ENDBRANCH  20  23
ENDBRANCH  16  17
ENDBRANCH  15  16
ENDBRANCH  14  15
ENDBRANCH  13  14
ENDBRANCH   3  13
TORSDOF 7
