MODEL 1
REMARK VINA RESULT:      -7.2      0.000      0.000
REMARK  1 active torsions:
REMARK  status: ('A' for Active; 'I' for Inactive)
REMARK    1  A    between atoms: C_20  and  O_22 
ROOT
HETATM    1  C   UNK N   1      36.457  13.728  14.933  0.00  0.00     0.009 C 
HETATM    2  C   UNK N   1      35.194  12.996  17.721  0.00  0.00     0.010 C 
HETATM    3  C   UNK N   1      35.396  10.150  14.413  0.00  0.00     0.013 C 
HETATM    4  C   UNK N   1      36.686  13.600  13.410  0.00  0.00     0.038 C 
HETATM    5  C   UNK N   1      35.474   9.593  15.846  0.00  0.00     0.007 C 
HETATM    6  C   UNK N   1      34.309   8.830  18.525  0.00  0.00     0.022 C 
HETATM    7  C   UNK N   1      34.556  10.734  20.643  0.00  0.00     0.053 C 
HETATM    8  C   UNK N   1      35.815  11.970  16.767  0.00  0.00    -0.004 C 
HETATM    9  C   UNK N   1      35.039  10.629  16.914  0.00  0.00     0.002 C 
HETATM   10  C   UNK N   1      36.228  11.431  14.317  0.00  0.00    -0.009 C 
HETATM   11  C   UNK N   1      37.706  11.076  14.591  0.00  0.00     0.018 C 
HETATM   12  C   UNK N   1      35.698  12.460  15.315  0.00  0.00     0.001 C 
HETATM   13  C   UNK N   1      35.221  10.057  18.347  0.00  0.00    -0.016 C 
HETATM   14  C   UNK N   1      36.676   9.633  18.569  0.00  0.00     0.020 C 
HETATM   15  C   UNK N   1      34.364   8.243  19.938  0.00  0.00     0.084 C 
HETATM   16  C   UNK N   1      34.358   9.312  20.996  0.00  0.00     0.149 C 
HETATM   17  O   UNK N   1      34.226   8.996  22.166  0.00  0.00    -0.293 OA
HETATM   18  C   UNK N   1      34.866  11.110  19.391  0.00  0.00    -0.068 C 
HETATM   19  C   UNK N   1      35.255  12.552  19.182  0.00  0.00     0.035 C 
HETATM   20  C   UNK N   1      36.133  12.225  13.006  0.00  0.00     0.062 C 
HETATM   21  C   UNK N   1      34.696  12.405  12.516  0.00  0.00     0.046 C 
ENDROOT
BRANCH  20  22
HETATM   22  O   UNK N   1      36.886  11.648  11.979  0.00  0.00    -0.389 OA
HETATM   23  H   UNK N   1      37.584  12.144  11.525  0.00  0.00     0.210 HD
ENDBRANCH  20  22
TORSDOF 1
ENDMDL
MODEL 2
REMARK VINA RESULT:      -7.1      1.242      6.479
REMARK  1 active torsions:
REMARK  status: ('A' for Active; 'I' for Inactive)
REMARK    1  A    between atoms: C_20  and  O_22 
ROOT
HETATM    1  C   UNK N   1      34.164  10.902  20.976  0.00  0.00     0.009 C 
HETATM    2  C   UNK N   1      35.265  12.751  18.681  0.00  0.00     0.010 C 
HETATM    3  C   UNK N   1      36.125   8.473  18.867  0.00  0.00     0.013 C 
HETATM    4  C   UNK N   1      34.136   9.662  21.900  0.00  0.00     0.038 C 
HETATM    5  C   UNK N   1      36.035   9.128  17.477  0.00  0.00     0.007 C 
HETATM    6  C   UNK N   1      37.061  10.855  15.223  0.00  0.00     0.022 C 
HETATM    7  C   UNK N   1      36.128  13.555  15.122  0.00  0.00     0.053 C 
HETATM    8  C   UNK N   1      35.022  11.247  18.525  0.00  0.00    -0.004 C 
HETATM    9  C   UNK N   1      36.084  10.676  17.541  0.00  0.00     0.002 C 
HETATM   10  C   UNK N   1      35.017   9.027  19.765  0.00  0.00    -0.009 C 
HETATM   11  C   UNK N   1      33.652   8.633  19.160  0.00  0.00     0.018 C 
HETATM   12  C   UNK N   1      35.167  10.544  19.884  0.00  0.00     0.001 C 
HETATM   13  C   UNK N   1      35.899  11.297  16.130  0.00  0.00    -0.016 C 
HETATM   14  C   UNK N   1      34.579  10.825  15.512  0.00  0.00     0.020 C 
HETATM   15  C   UNK N   1      37.004  11.483  13.827  0.00  0.00     0.084 C 
HETATM   16  C   UNK N   1      36.633  12.939  13.876  0.00  0.00     0.149 C 
HETATM   17  O   UNK N   1      36.714  13.613  12.863  0.00  0.00    -0.293 OA
HETATM   18  C   UNK N   1      35.869  12.819  16.215  0.00  0.00    -0.068 C 
HETATM   19  C   UNK N   1      35.161  13.504  17.355  0.00  0.00     0.035 C 
HETATM   20  C   UNK N   1      35.052   8.618  21.245  0.00  0.00     0.062 C 
HETATM   21  C   UNK N   1      36.443   8.733  21.868  0.00  0.00     0.046 C 
ENDROOT
BRANCH  20  22
HETATM   22  O   UNK N   1      34.578   7.318  21.448  0.00  0.00    -0.389 OA
HETATM   23  H   UNK N   1      34.650   6.641  20.758  0.00  0.00     0.210 HD
ENDBRANCH  20  22
TORSDOF 1
ENDMDL
MODEL 3
REMARK VINA RESULT:      -7.1     23.401     26.094
REMARK  1 active torsions:
REMARK  status: ('A' for Active; 'I' for Inactive)
REMARK    1  A    between atoms: C_20  and  O_22 
ROOT
HETATM    1  C   UNK N   1      26.327  23.920  -6.168  0.00  0.00     0.009 C 
HETATM    2  C   UNK N   1      28.820  22.082  -6.726  0.00  0.00     0.010 C 
HETATM    3  C   UNK N   1      28.999  25.539  -4.062  0.00  0.00     0.013 C 
HETATM    4  C   UNK N   1      25.593  25.216  -5.754  0.00  0.00     0.038 C 
HETATM    5  C   UNK N   1      29.913  24.342  -3.747  0.00  0.00     0.007 C 
HETATM    6  C   UNK N   1      32.312  22.568  -4.207  0.00  0.00     0.022 C 
HETATM    7  C   UNK N   1      31.899  20.188  -5.734  0.00  0.00     0.053 C 
HETATM    8  C   UNK N   1      28.627  22.896  -5.443  0.00  0.00    -0.004 C 
HETATM    9  C   UNK N   1      30.026  23.349  -4.932  0.00  0.00     0.002 C 
HETATM   10  C   UNK N   1      27.622  25.031  -4.495  0.00  0.00    -0.009 C 
HETATM   11  C   UNK N   1      26.986  24.269  -3.313  0.00  0.00     0.018 C 
HETATM   12  C   UNK N   1      27.772  24.141  -5.729  0.00  0.00     0.001 C 
HETATM   13  C   UNK N   1      30.881  22.112  -4.540  0.00  0.00    -0.016 C 
HETATM   14  C   UNK N   1      30.281  21.420  -3.312  0.00  0.00     0.020 C 
HETATM   15  C   UNK N   1      33.252  21.403  -3.882  0.00  0.00     0.084 C 
HETATM   16  C   UNK N   1      33.058  20.242  -4.817  0.00  0.00     0.149 C 
HETATM   17  O   UNK N   1      33.848  19.313  -4.791  0.00  0.00    -0.293 OA
HETATM   18  C   UNK N   1      30.920  21.105  -5.684  0.00  0.00    -0.068 C 
HETATM   19  C   UNK N   1      29.688  20.843  -6.511  0.00  0.00     0.035 C 
HETATM   20  C   UNK N   1      26.626  26.079  -5.016  0.00  0.00     0.062 C 
HETATM   21  C   UNK N   1      27.248  27.054  -6.016  0.00  0.00     0.046 C 
ENDROOT
BRANCH  20  22
HETATM   22  O   UNK N   1      26.039  26.814  -3.982  0.00  0.00    -0.389 OA
HETATM   23  H   UNK N   1      25.979  27.781  -4.021  0.00  0.00     0.210 HD
ENDBRANCH  20  22
TORSDOF 1
ENDMDL
MODEL 4
REMARK VINA RESULT:      -7.0      2.070      4.170
REMARK  1 active torsions:
REMARK  status: ('A' for Active; 'I' for Inactive)
REMARK    1  A    between atoms: C_20  and  O_22 
ROOT
HETATM    1  C   UNK N   1      37.507  10.514  11.137  0.00  0.00     0.009 C 
HETATM    2  C   UNK N   1      37.497  10.229  14.271  0.00  0.00     0.010 C 
HETATM    3  C   UNK N   1      36.455  13.957  12.248  0.00  0.00     0.013 C 
HETATM    4  C   UNK N   1      37.582  11.265   9.788  0.00  0.00     0.038 C 
HETATM    5  C   UNK N   1      35.768  13.652  13.592  0.00  0.00     0.007 C 
HETATM    6  C   UNK N   1      35.687  13.404  16.599  0.00  0.00     0.022 C 
HETATM    7  C   UNK N   1      36.100  10.800  17.703  0.00  0.00     0.053 C 
HETATM    8  C   UNK N   1      36.633  11.231  13.501  0.00  0.00    -0.004 C 
HETATM    9  C   UNK N   1      36.465  12.509  14.373  0.00  0.00     0.002 C 
HETATM   10  C   UNK N   1      36.531  12.677  11.412  0.00  0.00    -0.009 C 
HETATM   11  C   UNK N   1      35.093  12.212  11.096  0.00  0.00     0.018 C 
HETATM   12  C   UNK N   1      37.317  11.613  12.179  0.00  0.00     0.001 C 
HETATM   13  C   UNK N   1      35.688  12.173  15.675  0.00  0.00    -0.016 C 
HETATM   14  C   UNK N   1      34.240  11.796  15.347  0.00  0.00     0.020 C 
HETATM   15  C   UNK N   1      35.006  13.141  17.946  0.00  0.00     0.084 C 
HETATM   16  C   UNK N   1      35.382  11.803  18.519  0.00  0.00     0.149 C 
HETATM   17  O   UNK N   1      35.056  11.526  19.661  0.00  0.00    -0.293 OA
HETATM   18  C   UNK N   1      36.336  10.996  16.396  0.00  0.00    -0.068 C 
HETATM   19  C   UNK N   1      36.881   9.830  15.612  0.00  0.00     0.035 C 
HETATM   20  C   UNK N   1      37.339  12.747  10.107  0.00  0.00     0.062 C 
HETATM   21  C   UNK N   1      38.693  13.436  10.275  0.00  0.00     0.046 C 
ENDROOT
BRANCH  20  22
HETATM   22  O   UNK N   1      36.637  13.386   9.081  0.00  0.00    -0.389 OA
HETATM   23  H   UNK N   1      37.098  13.802   8.337  0.00  0.00     0.210 HD
ENDBRANCH  20  22
TORSDOF 1
ENDMDL
MODEL 5
REMARK VINA RESULT:      -6.9     11.864     14.787
REMARK  1 active torsions:
REMARK  status: ('A' for Active; 'I' for Inactive)
REMARK    1  A    between atoms: C_20  and  O_22 
ROOT
HETATM    1  C   UNK N   1      28.652  14.953   2.084  0.00  0.00     0.009 C 
HETATM    2  C   UNK N   1      31.144  16.553   3.149  0.00  0.00     0.010 C 
HETATM    3  C   UNK N   1      27.491  16.063   5.492  0.00  0.00     0.013 C 
HETATM    4  C   UNK N   1      27.161  14.554   2.002  0.00  0.00     0.038 C 
HETATM    5  C   UNK N   1      28.824  16.169   6.254  0.00  0.00     0.007 C 
HETATM    6  C   UNK N   1      31.215  17.660   7.338  0.00  0.00     0.022 C 
HETATM    7  C   UNK N   1      33.608  17.597   5.775  0.00  0.00     0.053 C 
HETATM    8  C   UNK N   1      30.122  15.860   4.055  0.00  0.00    -0.004 C 
HETATM    9  C   UNK N   1      29.981  16.690   5.364  0.00  0.00     0.002 C 
HETATM   10  C   UNK N   1      27.679  15.184   4.254  0.00  0.00    -0.009 C 
HETATM   11  C   UNK N   1      28.056  13.760   4.717  0.00  0.00     0.018 C 
HETATM   12  C   UNK N   1      28.755  15.792   3.355  0.00  0.00     0.001 C 
HETATM   13  C   UNK N   1      31.324  16.694   6.145  0.00  0.00    -0.016 C 
HETATM   14  C   UNK N   1      31.638  15.289   6.668  0.00  0.00     0.020 C 
HETATM   15  C   UNK N   1      32.523  17.788   8.126  0.00  0.00     0.084 C 
HETATM   16  C   UNK N   1      33.721  17.881   7.223  0.00  0.00     0.149 C 
HETATM   17  O   UNK N   1      34.810  18.158   7.697  0.00  0.00    -0.293 OA
HETATM   18  C   UNK N   1      32.469  17.132   5.238  0.00  0.00    -0.068 C 
HETATM   19  C   UNK N   1      32.521  16.675   3.802  0.00  0.00     0.035 C 
HETATM   20  C   UNK N   1      26.498  15.101   3.274  0.00  0.00     0.062 C 
HETATM   21  C   UNK N   1      25.887  16.465   2.955  0.00  0.00     0.046 C 
ENDROOT
BRANCH  20  22
HETATM   22  O   UNK N   1      25.486  14.254   3.733  0.00  0.00    -0.389 OA
HETATM   23  H   UNK N   1      24.946  13.733   3.118  0.00  0.00     0.210 HD
ENDBRANCH  20  22
TORSDOF 1
ENDMDL
MODEL 6
REMARK VINA RESULT:      -6.9     23.266     26.645
REMARK  1 active torsions:
REMARK  status: ('A' for Active; 'I' for Inactive)
REMARK    1  A    between atoms: C_20  and  O_22 
ROOT
HETATM    1  C   UNK N   1      28.174  27.926  -5.818  0.00  0.00     0.009 C 
HETATM    2  C   UNK N   1      30.628  26.208  -4.855  0.00  0.00     0.010 C 
HETATM    3  C   UNK N   1      26.496  25.097  -3.980  0.00  0.00     0.013 C 
HETATM    4  C   UNK N   1      26.720  28.450  -5.791  0.00  0.00     0.038 C 
HETATM    5  C   UNK N   1      27.524  23.964  -4.151  0.00  0.00     0.007 C 
HETATM    6  C   UNK N   1      29.848  22.255  -3.261  0.00  0.00     0.022 C 
HETATM    7  C   UNK N   1      32.444  22.993  -4.202  0.00  0.00     0.053 C 
HETATM    8  C   UNK N   1      29.230  25.636  -5.105  0.00  0.00    -0.004 C 
HETATM    9  C   UNK N   1      28.987  24.472  -4.100  0.00  0.00     0.002 C 
HETATM   10  C   UNK N   1      26.746  26.177  -5.034  0.00  0.00    -0.009 C 
HETATM   11  C   UNK N   1      26.519  25.560  -6.432  0.00  0.00     0.018 C 
HETATM   12  C   UNK N   1      28.166  26.722  -4.880  0.00  0.00     0.001 C 
HETATM   13  C   UNK N   1      29.987  23.314  -4.369  0.00  0.00    -0.016 C 
HETATM   14  C   UNK N   1      29.690  22.660  -5.722  0.00  0.00     0.020 C 
HETATM   15  C   UNK N   1      30.852  21.107  -3.400  0.00  0.00     0.084 C 
HETATM   16  C   UNK N   1      32.224  21.596  -3.769  0.00  0.00     0.149 C 
HETATM   17  O   UNK N   1      33.164  20.819  -3.749  0.00  0.00    -0.293 OA
HETATM   18  C   UNK N   1      31.418  23.838  -4.396  0.00  0.00    -0.068 C 
HETATM   19  C   UNK N   1      31.731  25.166  -5.038  0.00  0.00     0.035 C 
HETATM   20  C   UNK N   1      25.926  27.471  -4.913  0.00  0.00     0.062 C 
HETATM   21  C   UNK N   1      25.882  28.022  -3.488  0.00  0.00     0.046 C 
ENDROOT
BRANCH  20  22
HETATM   22  O   UNK N   1      24.615  27.314  -5.372  0.00  0.00    -0.389 OA
HETATM   23  H   UNK N   1      24.409  27.311  -6.319  0.00  0.00     0.210 HD
ENDBRANCH  20  22
TORSDOF 1
ENDMDL
MODEL 7
REMARK VINA RESULT:      -6.9      1.486      2.869
REMARK  1 active torsions:
REMARK  status: ('A' for Active; 'I' for Inactive)
REMARK    1  A    between atoms: C_20  and  O_22 
ROOT
HETATM    1  C   UNK N   1      36.413  10.338  13.206  0.00  0.00     0.009 C 
HETATM    2  C   UNK N   1      37.487   9.313  15.981  0.00  0.00     0.010 C 
HETATM    3  C   UNK N   1      35.066  12.928  15.587  0.00  0.00     0.013 C 
HETATM    4  C   UNK N   1      35.882  11.380  12.195  0.00  0.00     0.038 C 
HETATM    5  C   UNK N   1      34.937  12.115  16.888  0.00  0.00     0.007 C 
HETATM    6  C   UNK N   1      35.896  11.133  19.577  0.00  0.00     0.022 C 
HETATM    7  C   UNK N   1      37.195   8.588  19.648  0.00  0.00     0.053 C 
HETATM    8  C   UNK N   1      36.224  10.164  15.814  0.00  0.00    -0.004 C 
HETATM    9  C   UNK N   1      36.079  11.081  17.063  0.00  0.00     0.002 C 
HETATM   10  C   UNK N   1      35.139  11.973  14.394  0.00  0.00    -0.009 C 
HETATM   11  C   UNK N   1      33.813  11.188  14.312  0.00  0.00     0.018 C 
HETATM   12  C   UNK N   1      36.341  11.042  14.558  0.00  0.00     0.001 C 
HETATM   13  C   UNK N   1      35.860  10.222  18.338  0.00  0.00    -0.016 C 
HETATM   14  C   UNK N   1      34.501   9.518  18.277  0.00  0.00     0.020 C 
HETATM   15  C   UNK N   1      35.764  10.360  20.893  0.00  0.00     0.084 C 
HETATM   16  C   UNK N   1      36.584   9.100  20.894  0.00  0.00     0.149 C 
HETATM   17  O   UNK N   1      36.715   8.470  21.930  0.00  0.00    -0.293 OA
HETATM   18  C   UNK N   1      36.944   9.157  18.457  0.00  0.00    -0.068 C 
HETATM   19  C   UNK N   1      37.442   8.435  17.231  0.00  0.00     0.035 C 
HETATM   20  C   UNK N   1      35.443  12.597  13.023  0.00  0.00     0.062 C 
HETATM   21  C   UNK N   1      36.596  13.599  13.061  0.00  0.00     0.046 C 
ENDROOT
BRANCH  20  22
HETATM   22  O   UNK N   1      34.325  13.223  12.465  0.00  0.00    -0.389 OA
HETATM   23  H   UNK N   1      34.405  14.054  11.971  0.00  0.00     0.210 HD
ENDBRANCH  20  22
TORSDOF 1
ENDMDL
MODEL 8
REMARK VINA RESULT:      -6.8     12.078     15.137
REMARK  1 active torsions:
REMARK  status: ('A' for Active; 'I' for Inactive)
REMARK    1  A    between atoms: C_20  and  O_22 
ROOT
HETATM    1  C   UNK N   1      27.156  16.337   3.065  0.00  0.00     0.009 C 
HETATM    2  C   UNK N   1      30.293  16.110   2.983  0.00  0.00     0.010 C 
HETATM    3  C   UNK N   1      28.179  18.349   6.081  0.00  0.00     0.013 C 
HETATM    4  C   UNK N   1      25.795  16.968   3.440  0.00  0.00     0.038 C 
HETATM    5  C   UNK N   1      29.513  17.680   6.461  0.00  0.00     0.007 C 
HETATM    6  C   UNK N   1      32.522  17.436   6.455  0.00  0.00     0.022 C 
HETATM    7  C   UNK N   1      33.682  15.674   4.527  0.00  0.00     0.053 C 
HETATM    8  C   UNK N   1      29.486  16.344   4.263  0.00  0.00    -0.004 C 
HETATM    9  C   UNK N   1      30.331  17.231   5.223  0.00  0.00     0.002 C 
HETATM   10  C   UNK N   1      27.369  17.403   5.192  0.00  0.00    -0.009 C 
HETATM   11  C   UNK N   1      27.029  16.136   6.006  0.00  0.00     0.018 C 
HETATM   12  C   UNK N   1      28.172  17.071   3.935  0.00  0.00     0.001 C 
HETATM   13  C   UNK N   1      31.621  16.481   5.653  0.00  0.00    -0.016 C 
HETATM   14  C   UNK N   1      31.267  15.276   6.530  0.00  0.00     0.020 C 
HETATM   15  C   UNK N   1      33.858  16.804   6.857  0.00  0.00     0.084 C 
HETATM   16  C   UNK N   1      34.463  16.001   5.739  0.00  0.00     0.149 C 
HETATM   17  O   UNK N   1      35.602  15.581   5.851  0.00  0.00    -0.293 OA
HETATM   18  C   UNK N   1      32.377  15.975   4.429  0.00  0.00    -0.068 C 
HETATM   19  C   UNK N   1      31.627  15.413   3.249  0.00  0.00     0.035 C 
HETATM   20  C   UNK N   1      26.081  17.966   4.571  0.00  0.00     0.062 C 
HETATM   21  C   UNK N   1      26.266  19.354   3.959  0.00  0.00     0.046 C 
ENDROOT
BRANCH  20  22
HETATM   22  O   UNK N   1      25.028  18.020   5.489  0.00  0.00    -0.389 OA
HETATM   23  H   UNK N   1      24.551  17.220   5.757  0.00  0.00     0.210 HD
ENDBRANCH  20  22
TORSDOF 1
ENDMDL
MODEL 9
REMARK VINA RESULT:      -6.7     14.361     17.871
REMARK  1 active torsions:
REMARK  status: ('A' for Active; 'I' for Inactive)
REMARK    1  A    between atoms: C_20  and  O_22 
ROOT
HETATM    1  C   UNK N   1      20.668  13.494  10.174  0.00  0.00     0.009 C 
HETATM    2  C   UNK N   1      20.749  16.230   8.622  0.00  0.00     0.010 C 
HETATM    3  C   UNK N   1      23.803  13.149   8.113  0.00  0.00     0.013 C 
HETATM    4  C   UNK N   1      21.253  12.203  10.791  0.00  0.00     0.038 C 
HETATM    5  C   UNK N   1      23.479  14.046   6.905  0.00  0.00     0.007 C 
HETATM    6  C   UNK N   1      23.562  16.632   5.350  0.00  0.00     0.022 C 
HETATM    7  C   UNK N   1      21.309  18.374   5.597  0.00  0.00     0.053 C 
HETATM    8  C   UNK N   1      21.387  14.936   8.108  0.00  0.00    -0.004 C 
HETATM    9  C   UNK N   1      22.663  15.304   7.297  0.00  0.00     0.002 C 
HETATM   10  C   UNK N   1      22.505  12.769   8.829  0.00  0.00    -0.009 C 
HETATM   11  C   UNK N   1      21.636  11.937   7.861  0.00  0.00     0.018 C 
HETATM   12  C   UNK N   1      21.786  14.037   9.289  0.00  0.00     0.001 C 
HETATM   13  C   UNK N   1      22.280  16.131   6.039  0.00  0.00    -0.016 C 
HETATM   14  C   UNK N   1      21.492  15.263   5.053  0.00  0.00     0.020 C 
HETATM   15  C   UNK N   1      23.281  17.525   4.138  0.00  0.00     0.084 C 
HETATM   16  C   UNK N   1      22.167  18.501   4.400  0.00  0.00     0.149 C 
HETATM   17  O   UNK N   1      21.945  19.388   3.593  0.00  0.00    -0.293 OA
HETATM   18  C   UNK N   1      21.411  17.322   6.426  0.00  0.00    -0.068 C 
HETATM   19  C   UNK N   1      20.354  17.180   7.492  0.00  0.00     0.035 C 
HETATM   20  C   UNK N   1      22.641  12.016  10.162  0.00  0.00     0.062 C 
HETATM   21  C   UNK N   1      23.684  12.630  11.095  0.00  0.00     0.046 C 
ENDROOT
BRANCH  20  22
HETATM   22  O   UNK N   1      22.946  10.664   9.979  0.00  0.00    -0.389 OA
HETATM   23  H   UNK N   1      23.818  10.381   9.665  0.00  0.00     0.210 HD
ENDBRANCH  20  22
TORSDOF 1
ENDMDL
