MODEL 1
REMARK VINA RESULT:      -8.5      0.000      0.000
REMARK  7 active torsions:
REMARK  status: ('A' for Active; 'I' for Inactive)
REMARK    1  A    between atoms: N_3  and  C_12 
REMARK    2  A    between atoms: N_4  and  C_15 
REMARK       I    between atoms: N_6  and  C_32 
REMARK    3  A    between atoms: C_12  and  C_13 
REMARK    4  A    between atoms: C_13  and  C_14 
REMARK    5  A    between atoms: C_14  and  C_16 
REMARK    6  A    between atoms: C_16  and  C_17 
REMARK    7  A    between atoms: C_29  and  C_32 
ROOT
HETATM    1  N   UNK N   1      20.726  14.129   7.153  0.00  0.00    -0.365 N 
HETATM    2  N   UNK N   1      24.671  11.884  12.049  0.00  0.00    -0.191 NA
HETATM    3  C   UNK N   1      22.872  13.680   6.750  0.00  0.00    -0.030 A 
HETATM    4  C   UNK N   1      22.618  13.395   8.050  0.00  0.00    -0.000 A 
HETATM    5  C   UNK N   1      21.693  14.141   6.196  0.00  0.00     0.096 A 
HETATM    6  C   UNK N   1      21.312  13.649   8.270  0.00  0.00     0.043 A 
HETATM    7  C   UNK N   1      23.462  12.869   9.010  0.00  0.00     0.037 A 
HETATM    8  C   UNK N   1      20.725  13.360   9.504  0.00  0.00     0.032 A 
HETATM    9  C   UNK N   1      22.941  12.608  10.265  0.00  0.00     0.045 A 
HETATM   10  C   UNK N   1      21.563  12.834  10.523  0.00  0.00     0.025 A 
HETATM   11  C   UNK N   1      23.871  12.208  11.280  0.00  0.00     0.099 C 
HETATM   12  H   UNK N   1      19.789  14.414   7.050  0.00  0.00     0.165 HD
ENDROOT
BRANCH   3  13
HETATM   13  C   UNK N   1      24.113  13.289   6.063  0.00  0.00     0.041 C 
BRANCH  13  14
HETATM   14  C   UNK N   1      24.327  14.395   5.039  0.00  0.00     0.006 C 
BRANCH  14  15
HETATM   15  C   UNK N   1      25.186  15.564   5.550  0.00  0.00     0.030 C 
BRANCH  15  16
HETATM   16  C   UNK N   1      26.028  16.171   4.429  0.00  0.00     0.272 C 
BRANCH  16  17
HETATM   17  N   UNK N   1      27.252  16.851   4.875  0.00  0.00     0.091 N 
HETATM   18  C   UNK N   1      28.179  17.294   3.807  0.00  0.00     0.292 C 
HETATM   19  C   UNK N   1      28.993  16.130   3.222  0.00  0.00     0.153 C 
HETATM   20  N   UNK N   1      29.594  15.448   4.321  0.00  0.00    -0.377 N 
HETATM   21  C   UNK N   1      28.699  14.908   5.331  0.00  0.00     0.153 C 
HETATM   22  C   UNK N   1      27.895  16.061   5.930  0.00  0.00     0.292 C 
BRANCH  20  23
HETATM   23  C   UNK N   1      30.788  16.043   4.719  0.00  0.00     0.031 A 
HETATM   24  C   UNK N   1      30.883  16.519   6.020  0.00  0.00     0.043 A 
HETATM   25  C   UNK N   1      31.989  17.220   6.346  0.00  0.00     0.003 A 
HETATM   26  C   UNK N   1      33.005  17.457   5.468  0.00  0.00     0.086 A 
HETATM   27  C   UNK N   1      32.364  17.623   7.575  0.00  0.00     0.057 A 
HETATM   28  O   UNK N   1      34.017  17.956   6.114  0.00  0.00    -0.304 OA
HETATM   29  C   UNK N   1      32.944  17.044   4.143  0.00  0.00     0.040 A 
HETATM   30  C   UNK N   1      33.660  18.043   7.386  0.00  0.00     0.144 A 
HETATM   31  C   UNK N   1      31.792  16.344   3.758  0.00  0.00     0.032 A 
BRANCH  30  32
HETATM   32  C   UNK N   1      34.586  18.141   8.495  0.00  0.00     0.273 C 
HETATM   33  O   UNK N   1      35.325  19.110   8.574  0.00  0.00    -0.266 OA
HETATM   34  N   UNK N   1      34.467  17.301   9.535  0.00  0.00    -0.364 N 
HETATM   35  H   UNK N   1      33.648  16.789   9.726  0.00  0.00     0.159 HD
HETATM   36  H   UNK N   1      35.237  17.191  10.139  0.00  0.00     0.159 HD
ENDBRANCH  30  32
ENDBRANCH  20  23
ENDBRANCH  16  17
ENDBRANCH  15  16
ENDBRANCH  14  15
ENDBRANCH  13  14
ENDBRANCH   3  13
TORSDOF 7
ENDMDL
MODEL 2
REMARK VINA RESULT:      -8.4      7.898     11.706
REMARK  7 active torsions:
REMARK  status: ('A' for Active; 'I' for Inactive)
REMARK    1  A    between atoms: N_3  and  C_12 
REMARK    2  A    between atoms: N_4  and  C_15 
REMARK       I    between atoms: N_6  and  C_32 
REMARK    3  A    between atoms: C_12  and  C_13 
REMARK    4  A    between atoms: C_13  and  C_14 
REMARK    5  A    between atoms: C_14  and  C_16 
REMARK    6  A    between atoms: C_16  and  C_17 
REMARK    7  A    between atoms: C_29  and  C_32 
ROOT
HETATM    1  N   UNK N   1      35.380  13.440  19.276  0.00  0.00    -0.365 N 
HETATM    2  N   UNK N   1      35.356   7.000  17.511  0.00  0.00    -0.191 NA
HETATM    3  C   UNK N   1      35.030  12.857  17.152  0.00  0.00    -0.030 A 
HETATM    4  C   UNK N   1      35.188  11.725  17.879  0.00  0.00    -0.000 A 
HETATM    5  C   UNK N   1      35.155  13.922  18.024  0.00  0.00     0.096 A 
HETATM    6  C   UNK N   1      35.374  12.094  19.163  0.00  0.00     0.043 A 
HETATM    7  C   UNK N   1      35.110  10.407  17.471  0.00  0.00     0.037 A 
HETATM    8  C   UNK N   1      35.472  11.137  20.175  0.00  0.00     0.032 A 
HETATM    9  C   UNK N   1      35.249   9.417  18.429  0.00  0.00     0.045 A 
HETATM   10  C   UNK N   1      35.415   9.770  19.795  0.00  0.00     0.025 A 
HETATM   11  C   UNK N   1      35.316   8.067  17.957  0.00  0.00     0.099 C 
HETATM   12  H   UNK N   1      35.519  13.965  20.096  0.00  0.00     0.165 HD
ENDROOT
BRANCH   3  13
HETATM   13  C   UNK N   1      34.548  12.866  15.762  0.00  0.00     0.041 C 
BRANCH  13  14
HETATM   14  C   UNK N   1      35.824  12.801  14.934  0.00  0.00     0.006 C 
BRANCH  14  15
HETATM   15  C   UNK N   1      35.879  13.824  13.786  0.00  0.00     0.030 C 
BRANCH  15  16
HETATM   16  C   UNK N   1      35.605  13.165  12.436  0.00  0.00     0.272 C 
BRANCH  16  17
HETATM   17  N   UNK N   1      34.696  13.914  11.557  0.00  0.00     0.091 N 
HETATM   18  C   UNK N   1      34.536  13.386  10.181  0.00  0.00     0.292 C 
HETATM   19  C   UNK N   1      35.738  13.722   9.286  0.00  0.00     0.153 C 
HETATM   20  N   UNK N   1      35.956  15.127   9.390  0.00  0.00    -0.377 N 
HETATM   21  C   UNK N   1      36.222  15.656  10.717  0.00  0.00     0.153 C 
HETATM   22  C   UNK N   1      35.025  15.341  11.612  0.00  0.00     0.292 C 
BRANCH  20  23
HETATM   23  C   UNK N   1      35.146  15.851   8.519  0.00  0.00     0.031 A 
HETATM   24  C   UNK N   1      35.016  15.397   7.214  0.00  0.00     0.043 A 
HETATM   25  C   UNK N   1      34.349  16.185   6.345  0.00  0.00     0.003 A 
HETATM   26  C   UNK N   1      33.793  17.378   6.700  0.00  0.00     0.086 A 
HETATM   27  C   UNK N   1      33.961  15.872   5.095  0.00  0.00     0.057 A 
HETATM   28  O   UNK N   1      33.038  17.800   5.730  0.00  0.00    -0.304 OA
HETATM   29  C   UNK N   1      33.930  17.903   7.980  0.00  0.00     0.040 A 
HETATM   30  C   UNK N   1      33.107  16.898   4.764  0.00  0.00     0.144 A 
HETATM   31  C   UNK N   1      34.649  17.128   8.900  0.00  0.00     0.032 A 
BRANCH  30  32
HETATM   32  C   UNK N   1      32.131  16.750   3.705  0.00  0.00     0.273 C 
HETATM   33  O   UNK N   1      32.090  15.708   3.069  0.00  0.00    -0.266 OA
HETATM   34  N   UNK N   1      31.143  17.650   3.582  0.00  0.00    -0.364 N 
HETATM   35  H   UNK N   1      30.876  18.262   4.306  0.00  0.00     0.159 HD
HETATM   36  H   UNK N   1      30.659  17.701   2.726  0.00  0.00     0.159 HD
ENDBRANCH  30  32
ENDBRANCH  20  23
ENDBRANCH  16  17
ENDBRANCH  15  16
ENDBRANCH  14  15
ENDBRANCH  13  14
ENDBRANCH   3  13
TORSDOF 7
ENDMDL
MODEL 3
REMARK VINA RESULT:      -8.1      6.319     10.479
REMARK  7 active torsions:
REMARK  status: ('A' for Active; 'I' for Inactive)
REMARK    1  A    between atoms: N_3  and  C_12 
REMARK    2  A    between atoms: N_4  and  C_15 
REMARK       I    between atoms: N_6  and  C_32 
REMARK    3  A    between atoms: C_12  and  C_13 
REMARK    4  A    between atoms: C_13  and  C_14 
REMARK    5  A    between atoms: C_14  and  C_16 
REMARK    6  A    between atoms: C_16  and  C_17 
REMARK    7  A    between atoms: C_29  and  C_32 
ROOT
HETATM    1  N   UNK N   1      34.721   9.987  14.084  0.00  0.00    -0.365 N 
HETATM    2  N   UNK N   1      35.257  14.728  18.755  0.00  0.00    -0.191 NA
HETATM    3  C   UNK N   1      34.941  12.126  13.495  0.00  0.00    -0.030 A 
HETATM    4  C   UNK N   1      34.966  12.056  14.848  0.00  0.00    -0.000 A 
HETATM    5  C   UNK N   1      34.784  10.837  13.024  0.00  0.00     0.096 A 
HETATM    6  C   UNK N   1      34.857  10.755  15.186  0.00  0.00     0.043 A 
HETATM    7  C   UNK N   1      35.144  13.069  15.771  0.00  0.00     0.037 A 
HETATM    8  C   UNK N   1      34.947  10.353  16.520  0.00  0.00     0.032 A 
HETATM    9  C   UNK N   1      35.194  12.729  17.112  0.00  0.00     0.045 A 
HETATM   10  C   UNK N   1      35.113  11.366  17.502  0.00  0.00     0.025 A 
HETATM   11  C   UNK N   1      35.225  13.810  18.051  0.00  0.00     0.099 C 
HETATM   12  H   UNK N   1      34.601   9.010  14.054  0.00  0.00     0.165 HD
ENDROOT
BRANCH   3  13
HETATM   13  C   UNK N   1      35.295  13.338  12.740  0.00  0.00     0.041 C 
BRANCH  13  14
HETATM   14  C   UNK N   1      35.650  12.814  11.355  0.00  0.00     0.006 C 
BRANCH  14  15
HETATM   15  C   UNK N   1      36.901  13.465  10.741  0.00  0.00     0.030 C 
BRANCH  15  16
HETATM   16  C   UNK N   1      36.530  14.586   9.772  0.00  0.00     0.272 C 
BRANCH  16  17
HETATM   17  N   UNK N   1      35.113  14.624   9.386  0.00  0.00     0.091 N 
HETATM   18  C   UNK N   1      34.814  14.327   7.965  0.00  0.00     0.292 C 
HETATM   19  C   UNK N   1      35.136  15.513   7.042  0.00  0.00     0.153 C 
HETATM   20  N   UNK N   1      34.482  16.656   7.589  0.00  0.00    -0.377 N 
HETATM   21  C   UNK N   1      34.837  17.034   8.947  0.00  0.00     0.153 C 
HETATM   22  C   UNK N   1      34.505  15.866   9.875  0.00  0.00     0.292 C 
BRANCH  20  23
HETATM   23  C   UNK N   1      33.152  16.744   7.185  0.00  0.00     0.031 A 
HETATM   24  C   UNK N   1      32.276  17.484   7.967  0.00  0.00     0.043 A 
HETATM   25  C   UNK N   1      30.966  17.440   7.645  0.00  0.00     0.003 A 
HETATM   26  C   UNK N   1      30.484  16.725   6.589  0.00  0.00     0.086 A 
HETATM   27  C   UNK N   1      29.978  18.201   8.151  0.00  0.00     0.057 A 
HETATM   28  O   UNK N   1      29.239  17.044   6.393  0.00  0.00    -0.304 OA
HETATM   29  C   UNK N   1      31.307  15.931   5.800  0.00  0.00     0.040 A 
HETATM   30  C   UNK N   1      28.922  17.947   7.307  0.00  0.00     0.144 A 
HETATM   31  C   UNK N   1      32.670  15.923   6.128  0.00  0.00     0.032 A 
BRANCH  30  32
HETATM   32  C   UNK N   1      27.805  18.863   7.206  0.00  0.00     0.273 C 
HETATM   33  O   UNK N   1      27.175  18.928   6.162  0.00  0.00    -0.266 OA
HETATM   34  N   UNK N   1      27.332  19.457   8.313  0.00  0.00    -0.364 N 
HETATM   35  H   UNK N   1      27.515  19.128   9.223  0.00  0.00     0.159 HD
HETATM   36  H   UNK N   1      26.773  20.261   8.211  0.00  0.00     0.159 HD
ENDBRANCH  30  32
ENDBRANCH  20  23
ENDBRANCH  16  17
ENDBRANCH  15  16
ENDBRANCH  14  15
ENDBRANCH  13  14
ENDBRANCH   3  13
TORSDOF 7
ENDMDL
MODEL 4
REMARK VINA RESULT:      -8.1      1.513      2.502
REMARK  7 active torsions:
REMARK  status: ('A' for Active; 'I' for Inactive)
REMARK    1  A    between atoms: N_3  and  C_12 
REMARK    2  A    between atoms: N_4  and  C_15 
REMARK       I    between atoms: N_6  and  C_32 
REMARK    3  A    between atoms: C_12  and  C_13 
REMARK    4  A    between atoms: C_13  and  C_14 
REMARK    5  A    between atoms: C_14  and  C_16 
REMARK    6  A    between atoms: C_16  and  C_17 
REMARK    7  A    between atoms: C_29  and  C_32 
ROOT
HETATM    1  N   UNK N   1      23.458  11.201   8.554  0.00  0.00    -0.365 N 
HETATM    2  N   UNK N   1      18.951  16.106   9.007  0.00  0.00    -0.191 NA
HETATM    3  C   UNK N   1      23.151  12.606   6.851  0.00  0.00    -0.030 A 
HETATM    4  C   UNK N   1      22.321  12.975   7.856  0.00  0.00    -0.000 A 
HETATM    5  C   UNK N   1      23.853  11.500   7.287  0.00  0.00     0.096 A 
HETATM    6  C   UNK N   1      22.537  12.131   8.886  0.00  0.00     0.043 A 
HETATM    7  C   UNK N   1      21.448  14.044   7.921  0.00  0.00     0.037 A 
HETATM    8  C   UNK N   1      21.892  12.317  10.110  0.00  0.00     0.032 A 
HETATM    9  C   UNK N   1      20.748  14.246   9.097  0.00  0.00     0.045 A 
HETATM   10  C   UNK N   1      20.973  13.395  10.212  0.00  0.00     0.025 A 
HETATM   11  C   UNK N   1      19.742  15.265   9.083  0.00  0.00     0.099 C 
HETATM   12  H   UNK N   1      23.779  10.458   9.115  0.00  0.00     0.165 HD
ENDROOT
BRANCH   3  13
HETATM   13  C   UNK N   1      23.399  13.436   5.661  0.00  0.00     0.041 C 
BRANCH  13  14
HETATM   14  C   UNK N   1      24.893  13.725   5.724  0.00  0.00     0.006 C 
BRANCH  14  15
HETATM   15  C   UNK N   1      25.237  15.132   6.243  0.00  0.00     0.030 C 
BRANCH  15  16
HETATM   16  C   UNK N   1      26.372  15.762   5.439  0.00  0.00     0.272 C 
BRANCH  16  17
HETATM   17  N   UNK N   1      27.703  15.639   6.049  0.00  0.00     0.091 N 
HETATM   18  C   UNK N   1      28.199  16.828   6.782  0.00  0.00     0.292 C 
HETATM   19  C   UNK N   1      28.694  17.931   5.834  0.00  0.00     0.153 C 
HETATM   20  N   UNK N   1      29.621  17.325   4.936  0.00  0.00    -0.377 N 
HETATM   21  C   UNK N   1      29.129  16.223   4.125  0.00  0.00     0.153 C 
HETATM   22  C   UNK N   1      28.649  15.113   5.059  0.00  0.00     0.292 C 
BRANCH  20  23
HETATM   23  C   UNK N   1      30.904  17.254   5.473  0.00  0.00     0.031 A 
HETATM   24  C   UNK N   1      31.060  17.491   6.831  0.00  0.00     0.043 A 
HETATM   25  C   UNK N   1      32.321  17.564   7.309  0.00  0.00     0.003 A 
HETATM   26  C   UNK N   1      33.423  17.398   6.525  0.00  0.00     0.086 A 
HETATM   27  C   UNK N   1      32.700  17.614   8.599  0.00  0.00     0.057 A 
HETATM   28  O   UNK N   1      34.474  17.301   7.284  0.00  0.00    -0.304 OA
HETATM   29  C   UNK N   1      33.328  17.203   5.152  0.00  0.00     0.040 A 
HETATM   30  C   UNK N   1      34.059  17.406   8.536  0.00  0.00     0.144 A 
HETATM   31  C   UNK N   1      32.034  17.159   4.615  0.00  0.00     0.032 A 
BRANCH  30  32
HETATM   32  C   UNK N   1      34.802  16.947   9.691  0.00  0.00     0.273 C 
HETATM   33  O   UNK N   1      35.698  17.644  10.142  0.00  0.00    -0.266 OA
HETATM   34  N   UNK N   1      34.359  15.889  10.388  0.00  0.00    -0.364 N 
HETATM   35  H   UNK N   1      33.435  15.554  10.332  0.00  0.00     0.159 HD
HETATM   36  H   UNK N   1      34.989  15.425  10.985  0.00  0.00     0.159 HD
ENDBRANCH  30  32
ENDBRANCH  20  23
ENDBRANCH  16  17
ENDBRANCH  15  16
ENDBRANCH  14  15
ENDBRANCH  13  14
ENDBRANCH   3  13
TORSDOF 7
ENDMDL
MODEL 5
REMARK VINA RESULT:      -8.0      5.638      7.857
REMARK  7 active torsions:
REMARK  status: ('A' for Active; 'I' for Inactive)
REMARK    1  A    between atoms: N_3  and  C_12 
REMARK    2  A    between atoms: N_4  and  C_15 
REMARK       I    between atoms: N_6  and  C_32 
REMARK    3  A    between atoms: C_12  and  C_13 
REMARK    4  A    between atoms: C_13  and  C_14 
REMARK    5  A    between atoms: C_14  and  C_16 
REMARK    6  A    between atoms: C_16  and  C_17 
REMARK    7  A    between atoms: C_29  and  C_32 
ROOT
HETATM    1  N   UNK N   1      28.623  17.657   3.591  0.00  0.00    -0.365 N 
HETATM    2  N   UNK N   1      29.577  18.670  10.122  0.00  0.00    -0.191 NA
HETATM    3  C   UNK N   1      30.163  16.484   4.698  0.00  0.00    -0.030 A 
HETATM    4  C   UNK N   1      29.551  17.312   5.578  0.00  0.00    -0.000 A 
HETATM    5  C   UNK N   1      29.586  16.704   3.462  0.00  0.00     0.096 A 
HETATM    6  C   UNK N   1      28.607  17.996   4.898  0.00  0.00     0.043 A 
HETATM    7  C   UNK N   1      29.746  17.437   6.941  0.00  0.00     0.037 A 
HETATM    8  C   UNK N   1      27.739  18.866   5.560  0.00  0.00     0.032 A 
HETATM    9  C   UNK N   1      28.941  18.323   7.637  0.00  0.00     0.045 A 
HETATM   10  C   UNK N   1      27.917  19.036   6.958  0.00  0.00     0.025 A 
HETATM   11  C   UNK N   1      29.266  18.543   9.015  0.00  0.00     0.099 C 
HETATM   12  H   UNK N   1      28.053  18.024   2.877  0.00  0.00     0.165 HD
ENDROOT
BRANCH   3  13
HETATM   13  C   UNK N   1      31.064  15.395   5.104  0.00  0.00     0.041 C 
BRANCH  13  14
HETATM   14  C   UNK N   1      32.076  15.317   3.970  0.00  0.00     0.006 C 
BRANCH  14  15
HETATM   15  C   UNK N   1      33.495  15.764   4.364  0.00  0.00     0.030 C 
BRANCH  15  16
HETATM   16  C   UNK N   1      33.462  16.955   5.319  0.00  0.00     0.272 C 
BRANCH  16  17
HETATM   17  N   UNK N   1      34.398  16.867   6.448  0.00  0.00     0.091 N 
HETATM   18  C   UNK N   1      34.889  15.510   6.785  0.00  0.00     0.292 C 
HETATM   19  C   UNK N   1      33.839  14.683   7.543  0.00  0.00     0.153 C 
HETATM   20  N   UNK N   1      33.399  15.475   8.644  0.00  0.00    -0.377 N 
HETATM   21  C   UNK N   1      32.814  16.769   8.333  0.00  0.00     0.153 C 
HETATM   22  C   UNK N   1      33.856  17.605   7.593  0.00  0.00     0.292 C 
BRANCH  20  23
HETATM   23  C   UNK N   1      34.241  15.357   9.746  0.00  0.00     0.031 A 
HETATM   24  C   UNK N   1      34.151  14.209  10.521  0.00  0.00     0.043 A 
HETATM   25  C   UNK N   1      34.865  14.173  11.665  0.00  0.00     0.003 A 
HETATM   26  C   UNK N   1      35.672  15.194  12.070  0.00  0.00     0.086 A 
HETATM   27  C   UNK N   1      35.059  13.112  12.471  0.00  0.00     0.057 A 
HETATM   28  O   UNK N   1      36.393  14.794  13.075  0.00  0.00    -0.304 OA
HETATM   29  C   UNK N   1      35.767  16.384  11.358  0.00  0.00     0.040 A 
HETATM   30  C   UNK N   1      36.056  13.537  13.317  0.00  0.00     0.144 A 
HETATM   31  C   UNK N   1      35.009  16.472  10.182  0.00  0.00     0.032 A 
BRANCH  30  32
HETATM   32  C   UNK N   1      36.874  12.592  14.048  0.00  0.00     0.273 C 
HETATM   33  O   UNK N   1      36.521  12.226  15.158  0.00  0.00    -0.266 OA
HETATM   34  N   UNK N   1      37.876  11.956  13.419  0.00  0.00    -0.364 N 
HETATM   35  H   UNK N   1      37.941  11.888  12.439  0.00  0.00     0.159 HD
HETATM   36  H   UNK N   1      38.579  11.537  13.964  0.00  0.00     0.159 HD
ENDBRANCH  30  32
ENDBRANCH  20  23
ENDBRANCH  16  17
ENDBRANCH  15  16
ENDBRANCH  14  15
ENDBRANCH  13  14
ENDBRANCH   3  13
TORSDOF 7
ENDMDL
MODEL 6
REMARK VINA RESULT:      -7.9      5.677      9.586
REMARK  7 active torsions:
REMARK  status: ('A' for Active; 'I' for Inactive)
REMARK    1  A    between atoms: N_3  and  C_12 
REMARK    2  A    between atoms: N_4  and  C_15 
REMARK       I    between atoms: N_6  and  C_32 
REMARK    3  A    between atoms: C_12  and  C_13 
REMARK    4  A    between atoms: C_13  and  C_14 
REMARK    5  A    between atoms: C_14  and  C_16 
REMARK    6  A    between atoms: C_16  and  C_17 
REMARK    7  A    between atoms: C_29  and  C_32 
ROOT
HETATM    1  N   UNK N   1      29.920  15.400   5.505  0.00  0.00    -0.365 N 
HETATM    2  N   UNK N   1      26.838  21.176   6.817  0.00  0.00    -0.191 NA
HETATM    3  C   UNK N   1      30.758  16.802   7.023  0.00  0.00    -0.030 A 
HETATM    4  C   UNK N   1      29.617  17.344   6.532  0.00  0.00    -0.000 A 
HETATM    5  C   UNK N   1      30.945  15.595   6.378  0.00  0.00     0.096 A 
HETATM    6  C   UNK N   1      29.111  16.474   5.635  0.00  0.00     0.043 A 
HETATM    7  C   UNK N   1      28.987  18.522   6.888  0.00  0.00     0.037 A 
HETATM    8  C   UNK N   1      27.879  16.712   5.024  0.00  0.00     0.032 A 
HETATM    9  C   UNK N   1      27.784  18.829   6.276  0.00  0.00     0.045 A 
HETATM   10  C   UNK N   1      27.207  17.920   5.349  0.00  0.00     0.025 A 
HETATM   11  C   UNK N   1      27.232  20.122   6.549  0.00  0.00     0.099 C 
HETATM   12  H   UNK N   1      29.794  14.633   4.902  0.00  0.00     0.165 HD
ENDROOT
BRANCH   3  13
HETATM   13  C   UNK N   1      31.458  17.324   8.207  0.00  0.00     0.041 C 
BRANCH  13  14
HETATM   14  C   UNK N   1      32.738  17.921   7.639  0.00  0.00     0.006 C 
BRANCH  14  15
HETATM   15  C   UNK N   1      34.003  17.572   8.444  0.00  0.00     0.030 C 
BRANCH  15  16
HETATM   16  C   UNK N   1      34.515  16.174   8.102  0.00  0.00     0.272 C 
BRANCH  16  17
HETATM   17  N   UNK N   1      34.341  15.176   9.166  0.00  0.00     0.091 N 
HETATM   18  C   UNK N   1      34.304  15.700  10.553  0.00  0.00     0.292 C 
HETATM   19  C   UNK N   1      35.702  16.067  11.075  0.00  0.00     0.153 C 
HETATM   20  N   UNK N   1      36.537  14.931  10.862  0.00  0.00    -0.377 N 
HETATM   21  C   UNK N   1      36.677  14.462   9.493  0.00  0.00     0.153 C 
HETATM   22  C   UNK N   1      35.294  14.079   8.971  0.00  0.00     0.292 C 
BRANCH  20  23
HETATM   23  C   UNK N   1      36.432  14.001  11.892  0.00  0.00     0.031 A 
HETATM   24  C   UNK N   1      36.305  14.472  13.191  0.00  0.00     0.043 A 
HETATM   25  C   UNK N   1      36.352  13.565  14.190  0.00  0.00     0.003 A 
HETATM   26  C   UNK N   1      36.497  12.228  13.972  0.00  0.00     0.086 A 
HETATM   27  C   UNK N   1      36.082  13.774  15.492  0.00  0.00     0.057 A 
HETATM   28  O   UNK N   1      36.287  11.590  15.085  0.00  0.00    -0.304 OA
HETATM   29  C   UNK N   1      36.674  11.704  12.697  0.00  0.00     0.040 A 
HETATM   30  C   UNK N   1      36.014  12.500  16.007  0.00  0.00     0.144 A 
HETATM   31  C   UNK N   1      36.668  12.622  11.637  0.00  0.00     0.032 A 
BRANCH  30  32
HETATM   32  C   UNK N   1      35.325  12.230  17.251  0.00  0.00     0.273 C 
HETATM   33  O   UNK N   1      35.262  11.083  17.665  0.00  0.00    -0.266 OA
HETATM   34  N   UNK N   1      34.966  13.251  18.046  0.00  0.00    -0.364 N 
HETATM   35  H   UNK N   1      35.357  14.152  17.978  0.00  0.00     0.159 HD
HETATM   36  H   UNK N   1      34.278  13.091  18.732  0.00  0.00     0.159 HD
ENDBRANCH  30  32
ENDBRANCH  20  23
ENDBRANCH  16  17
ENDBRANCH  15  16
ENDBRANCH  14  15
ENDBRANCH  13  14
ENDBRANCH   3  13
TORSDOF 7
ENDMDL
MODEL 7
REMARK VINA RESULT:      -7.8      7.485     11.345
REMARK  7 active torsions:
REMARK  status: ('A' for Active; 'I' for Inactive)
REMARK    1  A    between atoms: N_3  and  C_12 
REMARK    2  A    between atoms: N_4  and  C_15 
REMARK       I    between atoms: N_6  and  C_32 
REMARK    3  A    between atoms: C_12  and  C_13 
REMARK    4  A    between atoms: C_13  and  C_14 
REMARK    5  A    between atoms: C_14  and  C_16 
REMARK    6  A    between atoms: C_16  and  C_17 
REMARK    7  A    between atoms: C_29  and  C_32 
ROOT
HETATM    1  N   UNK N   1      35.937   8.400  15.299  0.00  0.00    -0.365 N 
HETATM    2  N   UNK N   1      34.962  13.114  19.927  0.00  0.00    -0.191 NA
HETATM    3  C   UNK N   1      34.610  10.139  14.870  0.00  0.00    -0.030 A 
HETATM    4  C   UNK N   1      35.107  10.287  16.122  0.00  0.00    -0.000 A 
HETATM    5  C   UNK N   1      35.125   8.962  14.364  0.00  0.00     0.096 A 
HETATM    6  C   UNK N   1      35.926   9.242  16.356  0.00  0.00     0.043 A 
HETATM    7  C   UNK N   1      34.921  11.322  17.019  0.00  0.00     0.037 A 
HETATM    8  C   UNK N   1      36.666   9.163  17.537  0.00  0.00     0.032 A 
HETATM    9  C   UNK N   1      35.596  11.270  18.226  0.00  0.00     0.045 A 
HETATM   10  C   UNK N   1      36.490  10.198  18.493  0.00  0.00     0.025 A 
HETATM   11  C   UNK N   1      35.268  12.273  19.194  0.00  0.00     0.099 C 
HETATM   12  H   UNK N   1      36.432   7.553  15.222  0.00  0.00     0.165 HD
ENDROOT
BRANCH   3  13
HETATM   13  C   UNK N   1      33.888  11.203  14.155  0.00  0.00     0.041 C 
BRANCH  13  14
HETATM   14  C   UNK N   1      34.766  11.488  12.944  0.00  0.00     0.006 C 
BRANCH  14  15
HETATM   15  C   UNK N   1      35.862  12.537  13.197  0.00  0.00     0.030 C 
BRANCH  15  16
HETATM   16  C   UNK N   1      36.247  13.265  11.911  0.00  0.00     0.272 C 
BRANCH  16  17
HETATM   17  N   UNK N   1      35.115  13.655  11.060  0.00  0.00     0.091 N 
HETATM   18  C   UNK N   1      35.275  13.410   9.606  0.00  0.00     0.292 C 
HETATM   19  C   UNK N   1      36.185  14.452   8.938  0.00  0.00     0.153 C 
HETATM   20  N   UNK N   1      35.683  15.737   9.299  0.00  0.00    -0.377 N 
HETATM   21  C   UNK N   1      35.616  16.044  10.718  0.00  0.00     0.153 C 
HETATM   22  C   UNK N   1      34.700  15.022  11.390  0.00  0.00     0.292 C 
BRANCH  20  23
HETATM   23  C   UNK N   1      34.648  16.151   8.464  0.00  0.00     0.031 A 
HETATM   24  C   UNK N   1      34.754  15.884   7.107  0.00  0.00     0.043 A 
HETATM   25  C   UNK N   1      33.819  16.418   6.293  0.00  0.00     0.003 A 
HETATM   26  C   UNK N   1      32.784  17.178   6.749  0.00  0.00     0.086 A 
HETATM   27  C   UNK N   1      33.631  16.153   4.986  0.00  0.00     0.057 A 
HETATM   28  O   UNK N   1      31.935  17.364   5.782  0.00  0.00    -0.304 OA
HETATM   29  C   UNK N   1      32.653  17.515   8.091  0.00  0.00     0.040 A 
HETATM   30  C   UNK N   1      32.414  16.737   4.720  0.00  0.00     0.144 A 
HETATM   31  C   UNK N   1      33.629  17.009   8.961  0.00  0.00     0.032 A 
BRANCH  30  32
HETATM   32  C   UNK N   1      31.623  16.333   3.576  0.00  0.00     0.273 C 
HETATM   33  O   UNK N   1      31.774  15.216   3.107  0.00  0.00    -0.266 OA
HETATM   34  N   UNK N   1      30.582  17.088   3.190  0.00  0.00    -0.364 N 
HETATM   35  H   UNK N   1      30.155  17.758   3.771  0.00  0.00     0.159 HD
HETATM   36  H   UNK N   1      30.227  16.965   2.280  0.00  0.00     0.159 HD
ENDBRANCH  30  32
ENDBRANCH  20  23
ENDBRANCH  16  17
ENDBRANCH  15  16
ENDBRANCH  14  15
ENDBRANCH  13  14
ENDBRANCH   3  13
TORSDOF 7
ENDMDL
MODEL 8
REMARK VINA RESULT:      -7.7      3.019      4.953
REMARK  7 active torsions:
REMARK  status: ('A' for Active; 'I' for Inactive)
REMARK    1  A    between atoms: N_3  and  C_12 
REMARK    2  A    between atoms: N_4  and  C_15 
REMARK       I    between atoms: N_6  and  C_32 
REMARK    3  A    between atoms: C_12  and  C_13 
REMARK    4  A    between atoms: C_13  and  C_14 
REMARK    5  A    between atoms: C_14  and  C_16 
REMARK    6  A    between atoms: C_16  and  C_17 
REMARK    7  A    between atoms: C_29  and  C_32 
ROOT
HETATM    1  N   UNK N   1      19.652  15.755   3.296  0.00  0.00    -0.365 N 
HETATM    2  N   UNK N   1      23.238  21.365   2.798  0.00  0.00    -0.191 NA
HETATM    3  C   UNK N   1      21.865  15.702   3.561  0.00  0.00    -0.030 A 
HETATM    4  C   UNK N   1      21.498  16.986   3.331  0.00  0.00    -0.000 A 
HETATM    5  C   UNK N   1      20.713  14.939   3.534  0.00  0.00     0.096 A 
HETATM    6  C   UNK N   1      20.156  17.004   3.198  0.00  0.00     0.043 A 
HETATM    7  C   UNK N   1      22.280  18.126   3.301  0.00  0.00     0.037 A 
HETATM    8  C   UNK N   1      19.469  18.209   3.045  0.00  0.00     0.032 A 
HETATM    9  C   UNK N   1      21.652  19.343   3.106  0.00  0.00     0.045 A 
HETATM   10  C   UNK N   1      20.237  19.402   2.992  0.00  0.00     0.025 A 
HETATM   11  C   UNK N   1      22.499  20.485   2.928  0.00  0.00     0.099 C 
HETATM   12  H   UNK N   1      18.707  15.489   3.212  0.00  0.00     0.165 HD
ENDROOT
BRANCH   3  13
HETATM   13  C   UNK N   1      23.208  15.313   4.017  0.00  0.00     0.041 C 
BRANCH  13  14
HETATM   14  C   UNK N   1      23.174  15.573   5.516  0.00  0.00     0.006 C 
BRANCH  14  15
HETATM   15  C   UNK N   1      24.556  15.525   6.192  0.00  0.00     0.030 C 
BRANCH  15  16
HETATM   16  C   UNK N   1      25.563  16.415   5.469  0.00  0.00     0.272 C 
BRANCH  16  17
HETATM   17  N   UNK N   1      26.879  16.510   6.115  0.00  0.00     0.091 N 
HETATM   18  C   UNK N   1      27.565  17.820   6.012  0.00  0.00     0.292 C 
HETATM   19  C   UNK N   1      28.188  18.043   4.625  0.00  0.00     0.153 C 
HETATM   20  N   UNK N   1      28.989  16.899   4.339  0.00  0.00    -0.377 N 
HETATM   21  C   UNK N   1      28.318  15.610   4.328  0.00  0.00     0.153 C 
HETATM   22  C   UNK N   1      27.709  15.371   5.708  0.00  0.00     0.292 C 
BRANCH  20  23
HETATM   23  C   UNK N   1      30.264  16.998   4.892  0.00  0.00     0.031 A 
HETATM   24  C   UNK N   1      30.372  17.134   6.269  0.00  0.00     0.043 A 
HETATM   25  C   UNK N   1      31.600  17.375   6.775  0.00  0.00     0.003 A 
HETATM   26  C   UNK N   1      32.718  17.468   6.000  0.00  0.00     0.086 A 
HETATM   27  C   UNK N   1      31.960  17.372   8.072  0.00  0.00     0.057 A 
HETATM   28  O   UNK N   1      33.767  17.482   6.768  0.00  0.00    -0.304 OA
HETATM   29  C   UNK N   1      32.663  17.384   4.614  0.00  0.00     0.040 A 
HETATM   30  C   UNK N   1      33.335  17.402   8.016  0.00  0.00     0.144 A 
HETATM   31  C   UNK N   1      31.397  17.171   4.051  0.00  0.00     0.032 A 
BRANCH  30  32
HETATM   32  C   UNK N   1      34.140  16.974   9.141  0.00  0.00     0.273 C 
HETATM   33  O   UNK N   1      35.065  17.676   9.518  0.00  0.00    -0.266 OA
HETATM   34  N   UNK N   1      33.731  15.941   9.895  0.00  0.00    -0.364 N 
HETATM   35  H   UNK N   1      32.803  15.612   9.903  0.00  0.00     0.159 HD
HETATM   36  H   UNK N   1      34.391  15.491  10.470  0.00  0.00     0.159 HD
ENDBRANCH  30  32
ENDBRANCH  20  23
ENDBRANCH  16  17
ENDBRANCH  15  16
ENDBRANCH  14  15
ENDBRANCH  13  14
ENDBRANCH   3  13
TORSDOF 7
ENDMDL
MODEL 9
REMARK VINA RESULT:      -7.6      3.519      5.901
REMARK  7 active torsions:
REMARK  status: ('A' for Active; 'I' for Inactive)
REMARK    1  A    between atoms: N_3  and  C_12 
REMARK    2  A    between atoms: N_4  and  C_15 
REMARK       I    between atoms: N_6  and  C_32 
REMARK    3  A    between atoms: C_12  and  C_13 
REMARK    4  A    between atoms: C_13  and  C_14 
REMARK    5  A    between atoms: C_14  and  C_16 
REMARK    6  A    between atoms: C_16  and  C_17 
REMARK    7  A    between atoms: C_29  and  C_32 
ROOT
HETATM    1  N   UNK N   1      23.171  15.773   6.427  0.00  0.00    -0.365 N 
HETATM    2  N   UNK N   1      22.258  20.831   2.165  0.00  0.00    -0.191 NA
HETATM    3  C   UNK N   1      24.869  16.524   5.193  0.00  0.00    -0.030 A 
HETATM    4  C   UNK N   1      23.777  17.272   4.906  0.00  0.00    -0.000 A 
HETATM    5  C   UNK N   1      24.487  15.590   6.136  0.00  0.00     0.096 A 
HETATM    6  C   UNK N   1      22.766  16.821   5.678  0.00  0.00     0.043 A 
HETATM    7  C   UNK N   1      23.658  18.355   4.056  0.00  0.00     0.037 A 
HETATM    8  C   UNK N   1      21.525  17.460   5.676  0.00  0.00     0.032 A 
HETATM    9  C   UNK N   1      22.434  18.996   3.982  0.00  0.00     0.045 A 
HETATM   10  C   UNK N   1      21.357  18.568   4.803  0.00  0.00     0.025 A 
HETATM   11  C   UNK N   1      22.298  20.015   2.984  0.00  0.00     0.099 C 
HETATM   12  H   UNK N   1      22.625  15.248   7.055  0.00  0.00     0.165 HD
ENDROOT
BRANCH   3  13
HETATM   13  C   UNK N   1      26.228  16.875   4.753  0.00  0.00     0.041 C 
BRANCH  13  14
HETATM   14  C   UNK N   1      27.121  16.341   5.865  0.00  0.00     0.006 C 
BRANCH  14  15
HETATM   15  C   UNK N   1      27.772  17.437   6.726  0.00  0.00     0.030 C 
BRANCH  15  16
HETATM   16  C   UNK N   1      29.255  17.597   6.399  0.00  0.00     0.272 C 
BRANCH  16  17
HETATM   17  N   UNK N   1      30.139  16.615   7.041  0.00  0.00     0.091 N 
HETATM   18  C   UNK N   1      30.658  16.981   8.381  0.00  0.00     0.292 C 
HETATM   19  C   UNK N   1      31.797  18.009   8.303  0.00  0.00     0.153 C 
HETATM   20  N   UNK N   1      32.758  17.497   7.382  0.00  0.00    -0.377 N 
HETATM   21  C   UNK N   1      32.300  17.230   6.030  0.00  0.00     0.153 C 
HETATM   22  C   UNK N   1      31.178  16.196   6.095  0.00  0.00     0.292 C 
BRANCH  20  23
HETATM   23  C   UNK N   1      33.645  16.609   7.988  0.00  0.00     0.031 A 
HETATM   24  C   UNK N   1      34.022  16.853   9.301  0.00  0.00     0.043 A 
HETATM   25  C   UNK N   1      34.990  16.071   9.825  0.00  0.00     0.003 A 
HETATM   26  C   UNK N   1      35.584  15.060   9.131  0.00  0.00     0.086 A 
HETATM   27  C   UNK N   1      35.386  16.018  11.110  0.00  0.00     0.057 A 
HETATM   28  O   UNK N   1      36.306  14.351   9.948  0.00  0.00    -0.304 OA
HETATM   29  C   UNK N   1      35.279  14.799   7.801  0.00  0.00     0.040 A 
HETATM   30  C   UNK N   1      36.182  14.897  11.147  0.00  0.00     0.144 A 
HETATM   31  C   UNK N   1      34.303  15.616   7.212  0.00  0.00     0.032 A 
BRANCH  30  32
HETATM   32  C   UNK N   1      36.461  14.216  12.394  0.00  0.00     0.273 C 
HETATM   33  O   UNK N   1      36.887  13.072  12.370  0.00  0.00    -0.266 OA
HETATM   34  N   UNK N   1      36.470  14.911  13.543  0.00  0.00    -0.364 N 
HETATM   35  H   UNK N   1      36.554  15.892  13.580  0.00  0.00     0.159 HD
HETATM   36  H   UNK N   1      36.389  14.417  14.390  0.00  0.00     0.159 HD
ENDBRANCH  30  32
ENDBRANCH  20  23
ENDBRANCH  16  17
ENDBRANCH  15  16
ENDBRANCH  14  15
ENDBRANCH  13  14
ENDBRANCH   3  13
TORSDOF 7
ENDMDL
