REMARK  15 active torsions:
REMARK  status: ('A' for Active; 'I' for Inactive)
REMARK    1  A    between atoms: C_10  and  O_3 
REMARK    2  A    between atoms: C_11  and  O_4 
REMARK    3  A    between atoms: O_5  and  C_20 
REMARK    4  A    between atoms: O_5  and  C_24 
REMARK    5  A    between atoms: O_6  and  C_23 
REMARK    6  A    between atoms: O_6  and  C_25 
REMARK    7  A    between atoms: C_8  and  C_13 
REMARK    8  A    between atoms: C_9  and  C_14 
REMARK    9  A    between atoms: C_13  and  C_15 
REMARK   10  A    between atoms: C_16  and  C_18 
REMARK   11  A    between atoms: C_17  and  C_19 
REMARK   12  A    between atoms: C_18  and  C_20 
REMARK   13  A    between atoms: C_19  and  C_21 
REMARK   14  A    between atoms: C_21  and  C_22 
REMARK   15  A    between atoms: C_22  and  C_23 
ROOT
HETATM    1  C   UNK N   1       3.761   4.276   0.247  0.00  0.00     0.028 C 
HETATM    2  C   UNK N   1       2.694   3.259  -0.067  0.00  0.00     0.043 C 
HETATM    3  C   UNK N   1       3.058   5.547  -0.193  0.00  0.00     0.125 C 
HETATM    4  C   UNK N   1       1.448   3.880   0.525  0.00  0.00     0.128 C 
HETATM    5  C   UNK N   1       1.620   5.380   0.282  0.00  0.00     0.064 C 
ENDROOT
BRANCH   2   6
HETATM    6  C   UNK N   1       2.966   1.830   0.345  0.00  0.00    -0.017 C 
HETATM    7  C   UNK N   1       3.253   0.974  -0.643  0.00  0.00     0.049 C 
BRANCH   7   8
HETATM    8  C   UNK N   1       3.532  -0.511  -0.585  0.00  0.00     0.283 C 
HETATM    9  F   UNK N   1       2.815  -1.095  -1.615  0.00  0.00    -0.199 F 
HETATM   10  F   UNK N   1       4.874  -0.682  -0.863  0.00  0.00    -0.199 F 
BRANCH   8  11
HETATM   11  C   UNK N   1       3.232  -1.247   0.732  0.00  0.00     0.259 C 
BRANCH  11  12
HETATM   12  O   UNK N   1       2.122  -2.072   0.615  0.00  0.00    -0.345 OA
BRANCH  12  13
HETATM   13  C   UNK N   1       2.175  -3.415   0.382  0.00  0.00     0.069 A 
HETATM   14  C   UNK N   1       3.396  -4.098   0.210  0.00  0.00     0.037 A 
HETATM   15  C   UNK N   1       3.405  -5.478  -0.042  0.00  0.00     0.003 A 
HETATM   16  C   UNK N   1       2.202  -6.185  -0.124  0.00  0.00     0.000 A 
HETATM   17  C   UNK N   1       0.988  -5.516   0.046  0.00  0.00     0.003 A 
HETATM   18  C   UNK N   1       0.976  -4.138   0.297  0.00  0.00     0.037 A 
ENDBRANCH  12  13
ENDBRANCH  11  12
ENDBRANCH   8  11
ENDBRANCH   7   8
ENDBRANCH   2   6
BRANCH   1  19
HETATM   19  C   UNK N   1       5.007   4.034  -0.582  0.00  0.00     0.034 C 
BRANCH  19  20
HETATM   20  C   UNK N   1       6.219   4.471   0.173  0.00  0.00    -0.030 C 
HETATM   21  C   UNK N   1       7.105   3.582   0.635  0.00  0.00    -0.031 C 
BRANCH  21  22
HETATM   22  C   UNK N   1       6.923   2.107   0.453  0.00  0.00     0.027 C 
BRANCH  22  23
HETATM   23  C   UNK N   1       8.057   1.569  -0.389  0.00  0.00     0.013 C 
BRANCH  23  24
HETATM   24  C   UNK N   1       8.052   0.048  -0.380  0.00  0.00     0.111 C 
BRANCH  24  25
HETATM   25  C   UNK N   1       9.385  -0.513   0.027  0.00  0.00     0.259 C 
HETATM   26  O   UNK N   1      10.279   0.229   0.412  0.00  0.00    -0.265 OA
BRANCH  25  27
HETATM   27  O   UNK N   1       9.584  -1.855  -0.041  0.00  0.00    -0.317 OA
BRANCH  27  28
HETATM   28  C   UNK N   1      10.771  -2.468   0.314  0.00  0.00     0.123 C 
HETATM   29  C   UNK N   1      11.905  -2.037  -0.602  0.00  0.00     0.040 C 
HETATM   30  C   UNK N   1      10.607  -3.970   0.206  0.00  0.00     0.040 C 
ENDBRANCH  27  28
ENDBRANCH  25  27
ENDBRANCH  24  25
ENDBRANCH  23  24
ENDBRANCH  22  23
ENDBRANCH  21  22
ENDBRANCH  19  20
ENDBRANCH   1  19
BRANCH   4  31
HETATM   31  O   UNK N   1       0.311   3.404  -0.125  0.00  0.00    -0.395 OA
HETATM   32  H   UNK N   1      -0.372   3.924  -0.578  0.00  0.00     0.210 HD
ENDBRANCH   4  31
BRANCH   3  33
HETATM   33  O   UNK N   1       3.649   6.688   0.350  0.00  0.00    -0.395 OA
HETATM   34  H   UNK N   1       4.541   6.730   0.728  0.00  0.00     0.210 HD
ENDBRANCH   3  33
TORSDOF 15
