MODEL 1
REMARK VINA RESULT:      -6.5      0.000      0.000
REMARK  15 active torsions:
REMARK  status: ('A' for Active; 'I' for Inactive)
REMARK    1  A    between atoms: C_10  and  O_3 
REMARK    2  A    between atoms: C_11  and  O_4 
REMARK    3  A    between atoms: O_5  and  C_20 
REMARK    4  A    between atoms: O_5  and  C_24 
REMARK    5  A    between atoms: O_6  and  C_23 
REMARK    6  A    between atoms: O_6  and  C_25 
REMARK    7  A    between atoms: C_8  and  C_13 
REMARK    8  A    between atoms: C_9  and  C_14 
REMARK    9  A    between atoms: C_13  and  C_15 
REMARK   10  A    between atoms: C_16  and  C_18 
REMARK   11  A    between atoms: C_17  and  C_19 
REMARK   12  A    between atoms: C_18  and  C_20 
REMARK   13  A    between atoms: C_19  and  C_21 
REMARK   14  A    between atoms: C_21  and  C_22 
REMARK   15  A    between atoms: C_22  and  C_23 
ROOT
HETATM    1  C   UNK N   1      29.483  17.940   7.274  0.00  0.00     0.028 C 
HETATM    2  C   UNK N   1      30.049  17.033   8.336  0.00  0.00     0.043 C 
HETATM    3  C   UNK N   1      28.050  18.058   7.757  0.00  0.00     0.125 C 
HETATM    4  C   UNK N   1      29.554  17.663   9.619  0.00  0.00     0.128 C 
HETATM    5  C   UNK N   1      28.159  18.186   9.271  0.00  0.00     0.064 C 
ENDROOT
BRANCH   2   6
HETATM    6  C   UNK N   1      31.534  16.754   8.281  0.00  0.00    -0.017 C 
HETATM    7  C   UNK N   1      32.340  17.817   8.386  0.00  0.00     0.049 C 
BRANCH   7   8
HETATM    8  C   UNK N   1      33.849  17.896   8.330  0.00  0.00     0.283 C 
HETATM    9  F   UNK N   1      34.178  19.238   8.255  0.00  0.00    -0.199 F 
HETATM   10  F   UNK N   1      34.324  17.418   9.535  0.00  0.00    -0.199 F 
BRANCH   8  11
HETATM   11  C   UNK N   1      34.567  17.127   7.208  0.00  0.00     0.259 C 
BRANCH  11  12
HETATM   12  O   UNK N   1      34.223  17.613   5.954  0.00  0.00    -0.345 OA
BRANCH  12  13
HETATM   13  C   UNK N   1      33.437  16.953   5.055  0.00  0.00     0.069 A 
HETATM   14  C   UNK N   1      32.764  17.624   4.014  0.00  0.00     0.037 A 
HETATM   15  C   UNK N   1      31.954  16.909   3.120  0.00  0.00     0.003 A 
HETATM   16  C   UNK N   1      31.809  15.526   3.255  0.00  0.00     0.000 A 
HETATM   17  C   UNK N   1      32.473  14.853   4.283  0.00  0.00     0.003 A 
HETATM   18  C   UNK N   1      33.282  15.565   5.179  0.00  0.00     0.037 A 
ENDBRANCH  12  13
ENDBRANCH  11  12
ENDBRANCH   8  11
ENDBRANCH   7   8
ENDBRANCH   2   6
BRANCH   1  19
HETATM   19  C   UNK N   1      29.540  17.283   5.908  0.00  0.00     0.034 C 
BRANCH  19  20
HETATM   20  C   UNK N   1      29.338  15.809   6.039  0.00  0.00    -0.030 C 
HETATM   21  C   UNK N   1      28.569  15.137   5.176  0.00  0.00    -0.031 C 
BRANCH  21  22
HETATM   22  C   UNK N   1      27.845  15.817   4.055  0.00  0.00     0.027 C 
BRANCH  22  23
HETATM   23  C   UNK N   1      26.363  15.561   4.197  0.00  0.00     0.013 C 
BRANCH  23  24
HETATM   24  C   UNK N   1      25.584  16.349   3.155  0.00  0.00     0.111 C 
BRANCH  24  25
HETATM   25  C   UNK N   1      24.680  17.370   3.787  0.00  0.00     0.259 C 
HETATM   26  O   UNK N   1      23.494  17.125   3.963  0.00  0.00    -0.265 OA
BRANCH  25  27
HETATM   27  O   UNK N   1      25.199  18.570   4.157  0.00  0.00    -0.317 OA
BRANCH  27  28
HETATM   28  C   UNK N   1      25.756  19.467   3.265  0.00  0.00     0.123 C 
HETATM   29  C   UNK N   1      26.990  20.130   3.854  0.00  0.00     0.040 C 
HETATM   30  C   UNK N   1      24.739  20.541   2.939  0.00  0.00     0.040 C 
ENDBRANCH  27  28
ENDBRANCH  25  27
ENDBRANCH  24  25
ENDBRANCH  23  24
ENDBRANCH  22  23
ENDBRANCH  21  22
ENDBRANCH  19  20
ENDBRANCH   1  19
BRANCH   4  31
HETATM   31  O   UNK N   1      29.482  16.710  10.633  0.00  0.00    -0.395 OA
HETATM   32  H   UNK N   1      29.497  15.744  10.539  0.00  0.00     0.210 HD
ENDBRANCH   4  31
BRANCH   3  33
HETATM   33  O   UNK N   1      27.395  19.154   7.195  0.00  0.00    -0.395 OA
HETATM   34  H   UNK N   1      27.708  20.071   7.231  0.00  0.00     0.210 HD
ENDBRANCH   3  33
TORSDOF 15
ENDMDL
MODEL 2
REMARK VINA RESULT:      -6.4      1.654      2.213
REMARK  15 active torsions:
REMARK  status: ('A' for Active; 'I' for Inactive)
REMARK    1  A    between atoms: C_10  and  O_3 
REMARK    2  A    between atoms: C_11  and  O_4 
REMARK    3  A    between atoms: O_5  and  C_20 
REMARK    4  A    between atoms: O_5  and  C_24 
REMARK    5  A    between atoms: O_6  and  C_23 
REMARK    6  A    between atoms: O_6  and  C_25 
REMARK    7  A    between atoms: C_8  and  C_13 
REMARK    8  A    between atoms: C_9  and  C_14 
REMARK    9  A    between atoms: C_13  and  C_15 
REMARK   10  A    between atoms: C_16  and  C_18 
REMARK   11  A    between atoms: C_17  and  C_19 
REMARK   12  A    between atoms: C_18  and  C_20 
REMARK   13  A    between atoms: C_19  and  C_21 
REMARK   14  A    between atoms: C_21  and  C_22 
REMARK   15  A    between atoms: C_22  and  C_23 
ROOT
HETATM    1  C   UNK N   1      29.082  17.902   7.195  0.00  0.00     0.028 C 
HETATM    2  C   UNK N   1      30.041  16.830   7.645  0.00  0.00     0.043 C 
HETATM    3  C   UNK N   1      28.262  18.076   8.459  0.00  0.00     0.125 C 
HETATM    4  C   UNK N   1      30.511  17.337   8.990  0.00  0.00     0.128 C 
HETATM    5  C   UNK N   1      29.277  18.010   9.594  0.00  0.00     0.064 C 
ENDROOT
BRANCH   2   6
HETATM    6  C   UNK N   1      31.137  16.441   6.679  0.00  0.00    -0.017 C 
HETATM    7  C   UNK N   1      32.173  17.284   6.589  0.00  0.00     0.049 C 
BRANCH   7   8
HETATM    8  C   UNK N   1      33.399  17.219   5.705  0.00  0.00     0.283 C 
HETATM    9  F   UNK N   1      33.291  18.253   4.792  0.00  0.00    -0.199 F 
HETATM   10  F   UNK N   1      34.491  17.484   6.508  0.00  0.00    -0.199 F 
BRANCH   8  11
HETATM   11  C   UNK N   1      33.678  15.902   4.961  0.00  0.00     0.259 C 
BRANCH  11  12
HETATM   12  O   UNK N   1      33.176  15.929   3.667  0.00  0.00    -0.345 OA
BRANCH  12  13
HETATM   13  C   UNK N   1      31.893  15.615   3.327  0.00  0.00     0.069 A 
HETATM   14  C   UNK N   1      30.926  16.605   3.053  0.00  0.00     0.037 A 
HETATM   15  C   UNK N   1      29.614  16.238   2.720  0.00  0.00     0.003 A 
HETATM   16  C   UNK N   1      29.256  14.888   2.657  0.00  0.00     0.000 A 
HETATM   17  C   UNK N   1      30.207  13.902   2.926  0.00  0.00     0.003 A 
HETATM   18  C   UNK N   1      31.518  14.265   3.259  0.00  0.00     0.037 A 
ENDBRANCH  12  13
ENDBRANCH  11  12
ENDBRANCH   8  11
ENDBRANCH   7   8
ENDBRANCH   2   6
BRANCH   1  19
HETATM   19  C   UNK N   1      28.215  17.414   6.051  0.00  0.00     0.034 C 
BRANCH  19  20
HETATM   20  C   UNK N   1      27.220  16.418   6.551  0.00  0.00    -0.030 C 
HETATM   21  C   UNK N   1      26.328  15.858   5.727  0.00  0.00    -0.031 C 
BRANCH  21  22
HETATM   22  C   UNK N   1      26.250  16.214   4.275  0.00  0.00     0.027 C 
BRANCH  22  23
HETATM   23  C   UNK N   1      24.810  16.495   3.911  0.00  0.00     0.013 C 
BRANCH  23  24
HETATM   24  C   UNK N   1      24.169  17.409   4.944  0.00  0.00     0.111 C 
BRANCH  24  25
HETATM   25  C   UNK N   1      24.401  18.859   4.628  0.00  0.00     0.259 C 
HETATM   26  O   UNK N   1      23.701  19.435   3.805  0.00  0.00    -0.265 OA
BRANCH  25  27
HETATM   27  O   UNK N   1      25.400  19.521   5.268  0.00  0.00    -0.317 OA
BRANCH  27  28
HETATM   28  C   UNK N   1      26.187  20.482   4.662  0.00  0.00     0.123 C 
HETATM   29  C   UNK N   1      27.131  19.856   3.648  0.00  0.00     0.040 C 
HETATM   30  C   UNK N   1      27.011  21.189   5.718  0.00  0.00     0.040 C 
ENDBRANCH  27  28
ENDBRANCH  25  27
ENDBRANCH  24  25
ENDBRANCH  23  24
ENDBRANCH  22  23
ENDBRANCH  21  22
ENDBRANCH  19  20
ENDBRANCH   1  19
BRANCH   4  31
HETATM   31  O   UNK N   1      30.933  16.277   9.790  0.00  0.00    -0.395 OA
HETATM   32  H   UNK N   1      30.389  15.724  10.373  0.00  0.00     0.210 HD
ENDBRANCH   4  31
BRANCH   3  33
HETATM   33  O   UNK N   1      27.560  19.282   8.468  0.00  0.00    -0.395 OA
HETATM   34  H   UNK N   1      27.402  19.843   7.692  0.00  0.00     0.210 HD
ENDBRANCH   3  33
TORSDOF 15
ENDMDL
MODEL 3
REMARK VINA RESULT:      -6.4      5.168      8.949
REMARK  15 active torsions:
REMARK  status: ('A' for Active; 'I' for Inactive)
REMARK    1  A    between atoms: C_10  and  O_3 
REMARK    2  A    between atoms: C_11  and  O_4 
REMARK    3  A    between atoms: O_5  and  C_20 
REMARK    4  A    between atoms: O_5  and  C_24 
REMARK    5  A    between atoms: O_6  and  C_23 
REMARK    6  A    between atoms: O_6  and  C_25 
REMARK    7  A    between atoms: C_8  and  C_13 
REMARK    8  A    between atoms: C_9  and  C_14 
REMARK    9  A    between atoms: C_13  and  C_15 
REMARK   10  A    between atoms: C_16  and  C_18 
REMARK   11  A    between atoms: C_17  and  C_19 
REMARK   12  A    between atoms: C_18  and  C_20 
REMARK   13  A    between atoms: C_19  and  C_21 
REMARK   14  A    between atoms: C_21  and  C_22 
REMARK   15  A    between atoms: C_22  and  C_23 
ROOT
HETATM    1  C   UNK N   1      21.420  18.269   3.284  0.00  0.00     0.028 C 
HETATM    2  C   UNK N   1      22.357  19.434   3.473  0.00  0.00     0.043 C 
HETATM    3  C   UNK N   1      20.090  18.998   3.237  0.00  0.00     0.125 C 
HETATM    4  C   UNK N   1      21.881  20.425   2.433  0.00  0.00     0.128 C 
HETATM    5  C   UNK N   1      20.362  20.248   2.409  0.00  0.00     0.064 C 
ENDROOT
BRANCH   2   6
HETATM    6  C   UNK N   1      23.838  19.134   3.453  0.00  0.00    -0.017 C 
HETATM    7  C   UNK N   1      24.562  19.659   4.448  0.00  0.00     0.049 C 
BRANCH   7   8
HETATM    8  C   UNK N   1      26.051  19.589   4.702  0.00  0.00     0.283 C 
HETATM    9  F   UNK N   1      26.631  20.615   3.977  0.00  0.00    -0.199 F 
HETATM   10  F   UNK N   1      26.247  19.865   6.042  0.00  0.00    -0.199 F 
BRANCH   8  11
HETATM   11  C   UNK N   1      26.771  18.267   4.389  0.00  0.00     0.259 C 
BRANCH  11  12
HETATM   12  O   UNK N   1      26.860  17.455   5.512  0.00  0.00    -0.345 OA
BRANCH  12  13
HETATM   13  C   UNK N   1      26.075  16.365   5.744  0.00  0.00     0.069 A 
HETATM   14  C   UNK N   1      26.217  15.571   6.901  0.00  0.00     0.037 A 
HETATM   15  C   UNK N   1      25.398  14.449   7.094  0.00  0.00     0.003 A 
HETATM   16  C   UNK N   1      24.433  14.111   6.141  0.00  0.00     0.000 A 
HETATM   17  C   UNK N   1      24.284  14.893   4.993  0.00  0.00     0.003 A 
HETATM   18  C   UNK N   1      25.102  16.013   4.797  0.00  0.00     0.037 A 
ENDBRANCH  12  13
ENDBRANCH  11  12
ENDBRANCH   8  11
ENDBRANCH   7   8
ENDBRANCH   2   6
BRANCH   1  19
HETATM   19  C   UNK N   1      21.476  17.326   4.470  0.00  0.00     0.034 C 
BRANCH  19  20
HETATM   20  C   UNK N   1      21.218  18.075   5.735  0.00  0.00    -0.030 C 
HETATM   21  C   UNK N   1      21.223  17.456   6.920  0.00  0.00    -0.031 C 
BRANCH  21  22
HETATM   22  C   UNK N   1      21.455  15.982   7.049  0.00  0.00     0.027 C 
BRANCH  22  23
HETATM   23  C   UNK N   1      20.919  15.511   8.381  0.00  0.00     0.013 C 
BRANCH  23  24
HETATM   24  C   UNK N   1      20.843  13.993   8.418  0.00  0.00     0.111 C 
BRANCH  24  25
HETATM   25  C   UNK N   1      21.000  13.458   9.813  0.00  0.00     0.259 C 
HETATM   26  O   UNK N   1      20.026  13.057  10.437  0.00  0.00    -0.265 OA
BRANCH  25  27
HETATM   27  O   UNK N   1      22.237  13.430  10.373  0.00  0.00    -0.317 OA
BRANCH  27  28
HETATM   28  C   UNK N   1      22.947  12.265  10.594  0.00  0.00     0.123 C 
HETATM   29  C   UNK N   1      22.982  11.917  12.073  0.00  0.00     0.040 C 
HETATM   30  C   UNK N   1      24.370  12.450  10.107  0.00  0.00     0.040 C 
ENDBRANCH  27  28
ENDBRANCH  25  27
ENDBRANCH  24  25
ENDBRANCH  23  24
ENDBRANCH  22  23
ENDBRANCH  21  22
ENDBRANCH  19  20
ENDBRANCH   1  19
BRANCH   4  31
HETATM   31  O   UNK N   1      22.219  21.724   2.807  0.00  0.00    -0.395 OA
HETATM   32  H   UNK N   1      21.903  22.553   2.414  0.00  0.00     0.210 HD
ENDBRANCH   4  31
BRANCH   3  33
HETATM   33  O   UNK N   1      19.083  18.217   2.672  0.00  0.00    -0.395 OA
HETATM   34  H   UNK N   1      18.268  18.558   2.271  0.00  0.00     0.210 HD
ENDBRANCH   3  33
TORSDOF 15
ENDMDL
MODEL 4
REMARK VINA RESULT:      -6.3      1.864      2.925
REMARK  15 active torsions:
REMARK  status: ('A' for Active; 'I' for Inactive)
REMARK    1  A    between atoms: C_10  and  O_3 
REMARK    2  A    between atoms: C_11  and  O_4 
REMARK    3  A    between atoms: O_5  and  C_20 
REMARK    4  A    between atoms: O_5  and  C_24 
REMARK    5  A    between atoms: O_6  and  C_23 
REMARK    6  A    between atoms: O_6  and  C_25 
REMARK    7  A    between atoms: C_8  and  C_13 
REMARK    8  A    between atoms: C_9  and  C_14 
REMARK    9  A    between atoms: C_13  and  C_15 
REMARK   10  A    between atoms: C_16  and  C_18 
REMARK   11  A    between atoms: C_17  and  C_19 
REMARK   12  A    between atoms: C_18  and  C_20 
REMARK   13  A    between atoms: C_19  and  C_21 
REMARK   14  A    between atoms: C_21  and  C_22 
REMARK   15  A    between atoms: C_22  and  C_23 
ROOT
HETATM    1  C   UNK N   1      29.405  17.803   7.289  0.00  0.00     0.028 C 
HETATM    2  C   UNK N   1      30.011  16.995   8.409  0.00  0.00     0.043 C 
HETATM    3  C   UNK N   1      27.993  17.976   7.817  0.00  0.00     0.125 C 
HETATM    4  C   UNK N   1      29.570  17.747   9.646  0.00  0.00     0.128 C 
HETATM    5  C   UNK N   1      28.165  18.245   9.307  0.00  0.00     0.064 C 
ENDROOT
BRANCH   2   6
HETATM    6  C   UNK N   1      31.491  16.701   8.320  0.00  0.00    -0.017 C 
HETATM    7  C   UNK N   1      32.310  17.756   8.414  0.00  0.00     0.049 C 
BRANCH   7   8
HETATM    8  C   UNK N   1      33.818  17.819   8.326  0.00  0.00     0.283 C 
HETATM    9  F   UNK N   1      34.159  19.157   8.223  0.00  0.00    -0.199 F 
HETATM   10  F   UNK N   1      34.314  17.355   9.529  0.00  0.00    -0.199 F 
BRANCH   8  11
HETATM   11  C   UNK N   1      34.506  17.026   7.202  0.00  0.00     0.259 C 
BRANCH  11  12
HETATM   12  O   UNK N   1      34.193  17.537   5.950  0.00  0.00    -0.345 OA
BRANCH  12  13
HETATM   13  C   UNK N   1      33.380  16.923   5.043  0.00  0.00     0.069 A 
HETATM   14  C   UNK N   1      32.931  17.577   3.877  0.00  0.00     0.037 A 
HETATM   15  C   UNK N   1      32.084  16.914   2.977  0.00  0.00     0.003 A 
HETATM   16  C   UNK N   1      31.680  15.600   3.230  0.00  0.00     0.000 A 
HETATM   17  C   UNK N   1      32.121  14.945   4.382  0.00  0.00     0.003 A 
HETATM   18  C   UNK N   1      32.967  15.605   5.283  0.00  0.00     0.037 A 
ENDBRANCH  12  13
ENDBRANCH  11  12
ENDBRANCH   8  11
ENDBRANCH   7   8
ENDBRANCH   2   6
BRANCH   1  19
HETATM   19  C   UNK N   1      29.404  17.020   5.991  0.00  0.00     0.034 C 
BRANCH  19  20
HETATM   20  C   UNK N   1      29.302  17.953   4.829  0.00  0.00    -0.030 C 
HETATM   21  C   UNK N   1      28.370  17.784   3.884  0.00  0.00    -0.031 C 
BRANCH  21  22
HETATM   22  C   UNK N   1      27.402  16.642   3.916  0.00  0.00     0.027 C 
BRANCH  22  23
HETATM   23  C   UNK N   1      27.887  15.557   2.981  0.00  0.00     0.013 C 
BRANCH  23  24
HETATM   24  C   UNK N   1      27.224  14.230   3.317  0.00  0.00     0.111 C 
BRANCH  24  25
HETATM   25  C   UNK N   1      27.713  13.676   4.625  0.00  0.00     0.259 C 
HETATM   26  O   UNK N   1      28.906  13.688   4.897  0.00  0.00    -0.265 OA
BRANCH  25  27
HETATM   27  O   UNK N   1      26.812  13.160   5.501  0.00  0.00    -0.317 OA
BRANCH  27  28
HETATM   28  C   UNK N   1      25.685  13.840   5.924  0.00  0.00     0.123 C 
HETATM   29  C   UNK N   1      26.056  15.008   6.823  0.00  0.00     0.040 C 
HETATM   30  C   UNK N   1      24.796  12.893   6.703  0.00  0.00     0.040 C 
ENDBRANCH  27  28
ENDBRANCH  25  27
ENDBRANCH  24  25
ENDBRANCH  23  24
ENDBRANCH  22  23
ENDBRANCH  21  22
ENDBRANCH  19  20
ENDBRANCH   1  19
BRANCH   4  31
HETATM   31  O   UNK N   1      29.537  16.893  10.747  0.00  0.00    -0.395 OA
HETATM   32  H   UNK N   1      29.504  15.923  10.742  0.00  0.00     0.210 HD
ENDBRANCH   4  31
BRANCH   3  33
HETATM   33  O   UNK N   1      27.320  19.020   7.181  0.00  0.00    -0.395 OA
HETATM   34  H   UNK N   1      27.711  19.875   6.943  0.00  0.00     0.210 HD
ENDBRANCH   3  33
TORSDOF 15
ENDMDL
MODEL 5
REMARK VINA RESULT:      -6.3      1.550      2.565
REMARK  15 active torsions:
REMARK  status: ('A' for Active; 'I' for Inactive)
REMARK    1  A    between atoms: C_10  and  O_3 
REMARK    2  A    between atoms: C_11  and  O_4 
REMARK    3  A    between atoms: O_5  and  C_20 
REMARK    4  A    between atoms: O_5  and  C_24 
REMARK    5  A    between atoms: O_6  and  C_23 
REMARK    6  A    between atoms: O_6  and  C_25 
REMARK    7  A    between atoms: C_8  and  C_13 
REMARK    8  A    between atoms: C_9  and  C_14 
REMARK    9  A    between atoms: C_13  and  C_15 
REMARK   10  A    between atoms: C_16  and  C_18 
REMARK   11  A    between atoms: C_17  and  C_19 
REMARK   12  A    between atoms: C_18  and  C_20 
REMARK   13  A    between atoms: C_19  and  C_21 
REMARK   14  A    between atoms: C_21  and  C_22 
REMARK   15  A    between atoms: C_22  and  C_23 
ROOT
HETATM    1  C   UNK N   1      29.527  17.952   7.310  0.00  0.00     0.028 C 
HETATM    2  C   UNK N   1      30.040  17.037   8.392  0.00  0.00     0.043 C 
HETATM    3  C   UNK N   1      28.075  18.079   7.733  0.00  0.00     0.125 C 
HETATM    4  C   UNK N   1      29.495  17.665   9.655  0.00  0.00     0.128 C 
HETATM    5  C   UNK N   1      28.121  18.200   9.251  0.00  0.00     0.064 C 
ENDROOT
BRANCH   2   6
HETATM    6  C   UNK N   1      31.524  16.746   8.398  0.00  0.00    -0.017 C 
HETATM    7  C   UNK N   1      32.335  17.810   8.359  0.00  0.00     0.049 C 
BRANCH   7   8
HETATM    8  C   UNK N   1      33.845  17.874   8.313  0.00  0.00     0.283 C 
HETATM    9  F   UNK N   1      34.190  19.214   8.301  0.00  0.00    -0.199 F 
HETATM   10  F   UNK N   1      34.309  17.336   9.497  0.00  0.00    -0.199 F 
BRANCH   8  11
HETATM   11  C   UNK N   1      34.559  17.148   7.160  0.00  0.00     0.259 C 
BRANCH  11  12
HETATM   12  O   UNK N   1      34.157  17.633   5.924  0.00  0.00    -0.345 OA
BRANCH  12  13
HETATM   13  C   UNK N   1      33.359  16.957   5.047  0.00  0.00     0.069 A 
HETATM   14  C   UNK N   1      32.789  17.580   3.919  0.00  0.00     0.037 A 
HETATM   15  C   UNK N   1      31.963  16.851   3.051  0.00  0.00     0.003 A 
HETATM   16  C   UNK N   1      31.700  15.501   3.299  0.00  0.00     0.000 A 
HETATM   17  C   UNK N   1      32.262  14.876   4.414  0.00  0.00     0.003 A 
HETATM   18  C   UNK N   1      33.087  15.601   5.283  0.00  0.00     0.037 A 
ENDBRANCH  12  13
ENDBRANCH  11  12
ENDBRANCH   8  11
ENDBRANCH   7   8
ENDBRANCH   2   6
BRANCH   1  19
HETATM   19  C   UNK N   1      29.636  17.301   5.946  0.00  0.00     0.034 C 
BRANCH  19  20
HETATM   20  C   UNK N   1      28.979  15.960   5.962  0.00  0.00    -0.030 C 
HETATM   21  C   UNK N   1      28.316  15.500   4.896  0.00  0.00    -0.031 C 
BRANCH  21  22
HETATM   22  C   UNK N   1      28.166  16.306   3.642  0.00  0.00     0.027 C 
BRANCH  22  23
HETATM   23  C   UNK N   1      27.383  15.503   2.629  0.00  0.00     0.013 C 
BRANCH  23  24
HETATM   24  C   UNK N   1      25.977  16.064   2.477  0.00  0.00     0.111 C 
BRANCH  24  25
HETATM   25  C   UNK N   1      24.956  15.211   3.176  0.00  0.00     0.259 C 
HETATM   26  O   UNK N   1      24.839  15.254   4.393  0.00  0.00    -0.265 OA
BRANCH  25  27
HETATM   27  O   UNK N   1      24.167  14.388   2.436  0.00  0.00    -0.317 OA
BRANCH  27  28
HETATM   28  C   UNK N   1      24.573  13.809   1.248  0.00  0.00     0.123 C 
HETATM   29  C   UNK N   1      23.392  13.586   0.317  0.00  0.00     0.040 C 
HETATM   30  C   UNK N   1      25.216  12.470   1.542  0.00  0.00     0.040 C 
ENDBRANCH  27  28
ENDBRANCH  25  27
ENDBRANCH  24  25
ENDBRANCH  23  24
ENDBRANCH  22  23
ENDBRANCH  21  22
ENDBRANCH  19  20
ENDBRANCH   1  19
BRANCH   4  31
HETATM   31  O   UNK N   1      29.374  16.708  10.661  0.00  0.00    -0.395 OA
HETATM   32  H   UNK N   1      29.386  15.742  10.563  0.00  0.00     0.210 HD
ENDBRANCH   4  31
BRANCH   3  33
HETATM   33  O   UNK N   1      27.453  19.183   7.149  0.00  0.00    -0.395 OA
HETATM   34  H   UNK N   1      26.496  19.336   7.120  0.00  0.00     0.210 HD
ENDBRANCH   3  33
TORSDOF 15
ENDMDL
MODEL 6
REMARK VINA RESULT:      -6.3      6.653      8.785
REMARK  15 active torsions:
REMARK  status: ('A' for Active; 'I' for Inactive)
REMARK    1  A    between atoms: C_10  and  O_3 
REMARK    2  A    between atoms: C_11  and  O_4 
REMARK    3  A    between atoms: O_5  and  C_20 
REMARK    4  A    between atoms: O_5  and  C_24 
REMARK    5  A    between atoms: O_6  and  C_23 
REMARK    6  A    between atoms: O_6  and  C_25 
REMARK    7  A    between atoms: C_8  and  C_13 
REMARK    8  A    between atoms: C_9  and  C_14 
REMARK    9  A    between atoms: C_13  and  C_15 
REMARK   10  A    between atoms: C_16  and  C_18 
REMARK   11  A    between atoms: C_17  and  C_19 
REMARK   12  A    between atoms: C_18  and  C_20 
REMARK   13  A    between atoms: C_19  and  C_21 
REMARK   14  A    between atoms: C_21  and  C_22 
REMARK   15  A    between atoms: C_22  and  C_23 
ROOT
HETATM    1  C   UNK N   1      21.388  16.060   7.374  0.00  0.00     0.028 C 
HETATM    2  C   UNK N   1      20.437  15.086   8.021  0.00  0.00     0.043 C 
HETATM    3  C   UNK N   1      20.488  17.276   7.255  0.00  0.00     0.125 C 
HETATM    4  C   UNK N   1      19.827  15.900   9.141  0.00  0.00     0.128 C 
HETATM    5  C   UNK N   1      19.707  17.311   8.563  0.00  0.00     0.064 C 
ENDROOT
BRANCH   2   6
HETATM    6  C   UNK N   1      21.000  13.743   8.426  0.00  0.00    -0.017 C 
HETATM    7  C   UNK N   1      21.461  13.649   9.679  0.00  0.00     0.049 C 
BRANCH   7   8
HETATM    8  C   UNK N   1      22.116  12.481  10.383  0.00  0.00     0.283 C 
HETATM    9  F   UNK N   1      23.031  13.012  11.275  0.00  0.00    -0.199 F 
HETATM   10  F   UNK N   1      21.133  11.850  11.120  0.00  0.00    -0.199 F 
BRANCH   8  11
HETATM   11  C   UNK N   1      22.804  11.414   9.515  0.00  0.00     0.259 C 
BRANCH  11  12
HETATM   12  O   UNK N   1      24.106  11.774   9.198  0.00  0.00    -0.345 OA
BRANCH  12  13
HETATM   13  C   UNK N   1      24.466  12.490   8.094  0.00  0.00     0.069 A 
HETATM   14  C   UNK N   1      24.186  12.043   6.787  0.00  0.00     0.037 A 
HETATM   15  C   UNK N   1      24.587  12.803   5.678  0.00  0.00     0.003 A 
HETATM   16  C   UNK N   1      25.266  14.011   5.863  0.00  0.00     0.000 A 
HETATM   17  C   UNK N   1      25.547  14.462   7.155  0.00  0.00     0.003 A 
HETATM   18  C   UNK N   1      25.149  13.704   8.264  0.00  0.00     0.037 A 
ENDBRANCH  12  13
ENDBRANCH  11  12
ENDBRANCH   8  11
ENDBRANCH   7   8
ENDBRANCH   2   6
BRANCH   1  19
HETATM   19  C   UNK N   1      21.821  15.573   6.005  0.00  0.00     0.034 C 
BRANCH  19  20
HETATM   20  C   UNK N   1      22.872  16.476   5.448  0.00  0.00    -0.030 C 
HETATM   21  C   UNK N   1      22.717  17.068   4.259  0.00  0.00    -0.031 C 
BRANCH  21  22
HETATM   22  C   UNK N   1      21.506  16.841   3.407  0.00  0.00     0.027 C 
BRANCH  22  23
HETATM   23  C   UNK N   1      21.078  18.155   2.795  0.00  0.00     0.013 C 
BRANCH  23  24
HETATM   24  C   UNK N   1      21.548  19.320   3.653  0.00  0.00     0.111 C 
BRANCH  24  25
HETATM   25  C   UNK N   1      22.387  20.289   2.868  0.00  0.00     0.259 C 
HETATM   26  O   UNK N   1      22.006  20.699   1.780  0.00  0.00    -0.265 OA
BRANCH  25  27
HETATM   27  O   UNK N   1      23.574  20.702   3.384  0.00  0.00    -0.317 OA
BRANCH  27  28
HETATM   28  C   UNK N   1      24.735  19.955   3.314  0.00  0.00     0.123 C 
HETATM   29  C   UNK N   1      25.251  19.613   4.702  0.00  0.00     0.040 C 
HETATM   30  C   UNK N   1      25.797  20.754   2.587  0.00  0.00     0.040 C 
ENDBRANCH  27  28
ENDBRANCH  25  27
ENDBRANCH  24  25
ENDBRANCH  23  24
ENDBRANCH  22  23
ENDBRANCH  21  22
ENDBRANCH  19  20
ENDBRANCH   1  19
BRANCH   4  31
HETATM   31  O   UNK N   1      18.572  15.399   9.479  0.00  0.00    -0.395 OA
HETATM   32  H   UNK N   1      18.274  15.090  10.350  0.00  0.00     0.210 HD
ENDBRANCH   4  31
BRANCH   3  33
HETATM   33  O   UNK N   1      21.216  18.450   7.060  0.00  0.00    -0.395 OA
HETATM   34  H   UNK N   1      21.981  18.543   6.471  0.00  0.00     0.210 HD
ENDBRANCH   3  33
TORSDOF 15
ENDMDL
MODEL 7
REMARK VINA RESULT:      -6.2      6.859      8.707
REMARK  15 active torsions:
REMARK  status: ('A' for Active; 'I' for Inactive)
REMARK    1  A    between atoms: C_10  and  O_3 
REMARK    2  A    between atoms: C_11  and  O_4 
REMARK    3  A    between atoms: O_5  and  C_20 
REMARK    4  A    between atoms: O_5  and  C_24 
REMARK    5  A    between atoms: O_6  and  C_23 
REMARK    6  A    between atoms: O_6  and  C_25 
REMARK    7  A    between atoms: C_8  and  C_13 
REMARK    8  A    between atoms: C_9  and  C_14 
REMARK    9  A    between atoms: C_13  and  C_15 
REMARK   10  A    between atoms: C_16  and  C_18 
REMARK   11  A    between atoms: C_17  and  C_19 
REMARK   12  A    between atoms: C_18  and  C_20 
REMARK   13  A    between atoms: C_19  and  C_21 
REMARK   14  A    between atoms: C_21  and  C_22 
REMARK   15  A    between atoms: C_22  and  C_23 
ROOT
HETATM    1  C   UNK N   1      21.530  16.243   7.282  0.00  0.00     0.028 C 
HETATM    2  C   UNK N   1      20.555  15.252   7.864  0.00  0.00     0.043 C 
HETATM    3  C   UNK N   1      20.621  17.446   7.110  0.00  0.00     0.125 C 
HETATM    4  C   UNK N   1      19.863  16.052   8.945  0.00  0.00     0.128 C 
HETATM    5  C   UNK N   1      19.758  17.463   8.365  0.00  0.00     0.064 C 
ENDROOT
BRANCH   2   6
HETATM    6  C   UNK N   1      21.112  13.916   8.299  0.00  0.00    -0.017 C 
HETATM    7  C   UNK N   1      21.709  13.887   9.497  0.00  0.00     0.049 C 
BRANCH   7   8
HETATM    8  C   UNK N   1      22.397  12.742  10.206  0.00  0.00     0.283 C 
HETATM    9  F   UNK N   1      21.855  12.673  11.478  0.00  0.00    -0.199 F 
HETATM   10  F   UNK N   1      22.046  11.584   9.541  0.00  0.00    -0.199 F 
BRANCH   8  11
HETATM   11  C   UNK N   1      23.932  12.776  10.303  0.00  0.00     0.259 C 
BRANCH  11  12
HETATM   12  O   UNK N   1      24.526  12.124   9.232  0.00  0.00    -0.345 OA
BRANCH  12  13
HETATM   13  C   UNK N   1      24.661  12.651   7.981  0.00  0.00     0.069 A 
HETATM   14  C   UNK N   1      25.301  13.886   7.753  0.00  0.00     0.037 A 
HETATM   15  C   UNK N   1      25.406  14.399   6.452  0.00  0.00     0.003 A 
HETATM   16  C   UNK N   1      24.876  13.688   5.371  0.00  0.00     0.000 A 
HETATM   17  C   UNK N   1      24.242  12.463   5.588  0.00  0.00     0.003 A 
HETATM   18  C   UNK N   1      24.135  11.949   6.887  0.00  0.00     0.037 A 
ENDBRANCH  12  13
ENDBRANCH  11  12
ENDBRANCH   8  11
ENDBRANCH   7   8
ENDBRANCH   2   6
BRANCH   1  19
HETATM   19  C   UNK N   1      22.056  15.768   5.941  0.00  0.00     0.034 C 
BRANCH  19  20
HETATM   20  C   UNK N   1      21.610  16.693   4.858  0.00  0.00    -0.030 C 
HETATM   21  C   UNK N   1      22.489  17.259   4.023  0.00  0.00    -0.031 C 
BRANCH  21  22
HETATM   22  C   UNK N   1      23.964  17.026   4.142  0.00  0.00     0.027 C 
BRANCH  22  23
HETATM   23  C   UNK N   1      24.700  18.203   3.544  0.00  0.00     0.013 C 
BRANCH  23  24
HETATM   24  C   UNK N   1      24.114  19.511   4.051  0.00  0.00     0.111 C 
BRANCH  24  25
HETATM   25  C   UNK N   1      23.844  20.475   2.930  0.00  0.00     0.259 C 
HETATM   26  O   UNK N   1      24.745  20.816   2.176  0.00  0.00    -0.265 OA
BRANCH  25  27
HETATM   27  O   UNK N   1      22.587  20.963   2.769  0.00  0.00    -0.317 OA
BRANCH  27  28
HETATM   28  C   UNK N   1      21.511  20.184   2.384  0.00  0.00     0.123 C 
HETATM   29  C   UNK N   1      20.947  20.650   1.052  0.00  0.00     0.040 C 
HETATM   30  C   UNK N   1      20.422  20.288   3.432  0.00  0.00     0.040 C 
ENDBRANCH  27  28
ENDBRANCH  25  27
ENDBRANCH  24  25
ENDBRANCH  23  24
ENDBRANCH  22  23
ENDBRANCH  21  22
ENDBRANCH  19  20
ENDBRANCH   1  19
BRANCH   4  31
HETATM   31  O   UNK N   1      18.597  15.530   9.202  0.00  0.00    -0.395 OA
HETATM   32  H   UNK N   1      18.162  15.430  10.064  0.00  0.00     0.210 HD
ENDBRANCH   4  31
BRANCH   3  33
HETATM   33  O   UNK N   1      21.341  18.631   6.965  0.00  0.00    -0.395 OA
HETATM   34  H   UNK N   1      21.071  19.387   6.421  0.00  0.00     0.210 HD
ENDBRANCH   3  33
TORSDOF 15
ENDMDL
MODEL 8
REMARK VINA RESULT:      -6.2      5.557     10.031
REMARK  15 active torsions:
REMARK  status: ('A' for Active; 'I' for Inactive)
REMARK    1  A    between atoms: C_10  and  O_3 
REMARK    2  A    between atoms: C_11  and  O_4 
REMARK    3  A    between atoms: O_5  and  C_20 
REMARK    4  A    between atoms: O_5  and  C_24 
REMARK    5  A    between atoms: O_6  and  C_23 
REMARK    6  A    between atoms: O_6  and  C_25 
REMARK    7  A    between atoms: C_8  and  C_13 
REMARK    8  A    between atoms: C_9  and  C_14 
REMARK    9  A    between atoms: C_13  and  C_15 
REMARK   10  A    between atoms: C_16  and  C_18 
REMARK   11  A    between atoms: C_17  and  C_19 
REMARK   12  A    between atoms: C_18  and  C_20 
REMARK   13  A    between atoms: C_19  and  C_21 
REMARK   14  A    between atoms: C_21  and  C_22 
REMARK   15  A    between atoms: C_22  and  C_23 
ROOT
HETATM    1  C   UNK N   1      21.672  19.093   3.933  0.00  0.00     0.028 C 
HETATM    2  C   UNK N   1      21.245  17.709   3.515  0.00  0.00     0.043 C 
HETATM    3  C   UNK N   1      21.020  19.917   2.838  0.00  0.00     0.125 C 
HETATM    4  C   UNK N   1      19.767  17.879   3.240  0.00  0.00     0.128 C 
HETATM    5  C   UNK N   1      19.653  19.278   2.633  0.00  0.00     0.064 C 
ENDROOT
BRANCH   2   6
HETATM    6  C   UNK N   1      21.607  16.571   4.442  0.00  0.00    -0.017 C 
HETATM    7  C   UNK N   1      21.148  16.660   5.696  0.00  0.00     0.049 C 
BRANCH   7   8
HETATM    8  C   UNK N   1      21.355  15.730   6.870  0.00  0.00     0.283 C 
HETATM    9  F   UNK N   1      22.722  15.605   7.046  0.00  0.00    -0.199 F 
HETATM   10  F   UNK N   1      20.848  16.367   7.985  0.00  0.00    -0.199 F 
BRANCH   8  11
HETATM   11  C   UNK N   1      20.716  14.333   6.801  0.00  0.00     0.259 C 
BRANCH  11  12
HETATM   12  O   UNK N   1      20.395  13.855   8.064  0.00  0.00    -0.345 OA
BRANCH  12  13
HETATM   13  C   UNK N   1      21.227  13.106   8.844  0.00  0.00     0.069 A 
HETATM   14  C   UNK N   1      22.282  12.347   8.300  0.00  0.00     0.037 A 
HETATM   15  C   UNK N   1      23.106  11.580   9.138  0.00  0.00     0.003 A 
HETATM   16  C   UNK N   1      22.885  11.564  10.518  0.00  0.00     0.000 A 
HETATM   17  C   UNK N   1      21.842  12.315  11.065  0.00  0.00     0.003 A 
HETATM   18  C   UNK N   1      21.017  13.081  10.231  0.00  0.00     0.037 A 
ENDBRANCH  12  13
ENDBRANCH  11  12
ENDBRANCH   8  11
ENDBRANCH   7   8
ENDBRANCH   2   6
BRANCH   1  19
HETATM   19  C   UNK N   1      23.181  19.235   3.889  0.00  0.00     0.034 C 
BRANCH  19  20
HETATM   20  C   UNK N   1      23.563  20.392   3.026  0.00  0.00    -0.030 C 
HETATM   21  C   UNK N   1      24.839  20.621   2.699  0.00  0.00    -0.031 C 
BRANCH  21  22
HETATM   22  C   UNK N   1      25.957  19.758   3.198  0.00  0.00     0.027 C 
BRANCH  22  23
HETATM   23  C   UNK N   1      26.488  20.334   4.490  0.00  0.00     0.013 C 
BRANCH  23  24
HETATM   24  C   UNK N   1      27.957  19.982   4.666  0.00  0.00     0.111 C 
BRANCH  24  25
HETATM   25  C   UNK N   1      28.136  18.624   5.284  0.00  0.00     0.259 C 
HETATM   26  O   UNK N   1      29.232  18.078   5.275  0.00  0.00    -0.265 OA
BRANCH  25  27
HETATM   27  O   UNK N   1      27.065  18.010   5.849  0.00  0.00    -0.317 OA
BRANCH  27  28
HETATM   28  C   UNK N   1      26.718  16.696   5.596  0.00  0.00     0.123 C 
HETATM   29  C   UNK N   1      25.305  16.600   5.044  0.00  0.00     0.040 C 
HETATM   30  C   UNK N   1      26.787  15.906   6.887  0.00  0.00     0.040 C 
ENDBRANCH  27  28
ENDBRANCH  25  27
ENDBRANCH  24  25
ENDBRANCH  23  24
ENDBRANCH  22  23
ENDBRANCH  21  22
ENDBRANCH  19  20
ENDBRANCH   1  19
BRANCH   4  31
HETATM   31  O   UNK N   1      19.326  16.913   2.337  0.00  0.00    -0.395 OA
HETATM   32  H   UNK N   1      18.652  17.015   1.646  0.00  0.00     0.210 HD
ENDBRANCH   4  31
BRANCH   3  33
HETATM   33  O   UNK N   1      20.910  21.263   3.190  0.00  0.00    -0.395 OA
HETATM   34  H   UNK N   1      20.830  21.999   2.564  0.00  0.00     0.210 HD
ENDBRANCH   3  33
TORSDOF 15
ENDMDL
MODEL 9
REMARK VINA RESULT:      -6.2      1.569      2.083
REMARK  15 active torsions:
REMARK  status: ('A' for Active; 'I' for Inactive)
REMARK    1  A    between atoms: C_10  and  O_3 
REMARK    2  A    between atoms: C_11  and  O_4 
REMARK    3  A    between atoms: O_5  and  C_20 
REMARK    4  A    between atoms: O_5  and  C_24 
REMARK    5  A    between atoms: O_6  and  C_23 
REMARK    6  A    between atoms: O_6  and  C_25 
REMARK    7  A    between atoms: C_8  and  C_13 
REMARK    8  A    between atoms: C_9  and  C_14 
REMARK    9  A    between atoms: C_13  and  C_15 
REMARK   10  A    between atoms: C_16  and  C_18 
REMARK   11  A    between atoms: C_17  and  C_19 
REMARK   12  A    between atoms: C_18  and  C_20 
REMARK   13  A    between atoms: C_19  and  C_21 
REMARK   14  A    between atoms: C_21  and  C_22 
REMARK   15  A    between atoms: C_22  and  C_23 
ROOT
HETATM    1  C   UNK N   1      29.299  17.967   7.175  0.00  0.00     0.028 C 
HETATM    2  C   UNK N   1      29.990  17.065   8.165  0.00  0.00     0.043 C 
HETATM    3  C   UNK N   1      27.971  18.171   7.879  0.00  0.00     0.125 C 
HETATM    4  C   UNK N   1      29.740  17.757   9.487  0.00  0.00     0.128 C 
HETATM    5  C   UNK N   1      28.332  18.339   9.350  0.00  0.00     0.064 C 
ENDROOT
BRANCH   2   6
HETATM    6  C   UNK N   1      31.432  16.710   7.880  0.00  0.00    -0.017 C 
HETATM    7  C   UNK N   1      32.357  17.476   8.472  0.00  0.00     0.049 C 
BRANCH   7   8
HETATM    8  C   UNK N   1      33.865  17.422   8.371  0.00  0.00     0.283 C 
HETATM    9  F   UNK N   1      34.277  18.643   7.865  0.00  0.00    -0.199 F 
HETATM   10  F   UNK N   1      34.353  17.318   9.658  0.00  0.00    -0.199 F 
BRANCH   8  11
HETATM   11  C   UNK N   1      34.489  16.285   7.543  0.00  0.00     0.259 C 
BRANCH  11  12
HETATM   12  O   UNK N   1      34.738  16.682   6.237  0.00  0.00    -0.345 OA
BRANCH  12  13
HETATM   13  C   UNK N   1      33.851  16.565   5.208  0.00  0.00     0.069 A 
HETATM   14  C   UNK N   1      33.153  17.675   4.690  0.00  0.00     0.037 A 
HETATM   15  C   UNK N   1      32.238  17.509   3.640  0.00  0.00     0.003 A 
HETATM   16  C   UNK N   1      32.012  16.239   3.100  0.00  0.00     0.000 A 
HETATM   17  C   UNK N   1      32.699  15.134   3.606  0.00  0.00     0.003 A 
HETATM   18  C   UNK N   1      33.613  15.298   4.655  0.00  0.00     0.037 A 
ENDBRANCH  12  13
ENDBRANCH  11  12
ENDBRANCH   8  11
ENDBRANCH   7   8
ENDBRANCH   2   6
BRANCH   1  19
HETATM   19  C   UNK N   1      29.103  17.268   5.844  0.00  0.00     0.034 C 
BRANCH  19  20
HETATM   20  C   UNK N   1      28.975  18.275   4.749  0.00  0.00    -0.030 C 
HETATM   21  C   UNK N   1      27.843  18.394   4.046  0.00  0.00    -0.031 C 
BRANCH  21  22
HETATM   22  C   UNK N   1      26.657  17.513   4.290  0.00  0.00     0.027 C 
BRANCH  22  23
HETATM   23  C   UNK N   1      25.459  18.376   4.613  0.00  0.00     0.013 C 
BRANCH  23  24
HETATM   24  C   UNK N   1      24.171  17.588   4.428  0.00  0.00     0.111 C 
BRANCH  24  25
HETATM   25  C   UNK N   1      22.968  18.375   4.866  0.00  0.00     0.259 C 
HETATM   26  O   UNK N   1      22.375  18.081   5.895  0.00  0.00    -0.265 OA
BRANCH  25  27
HETATM   27  O   UNK N   1      22.546  19.414   4.100  0.00  0.00    -0.317 OA
BRANCH  27  28
HETATM   28  C   UNK N   1      21.276  19.496   3.559  0.00  0.00     0.123 C 
HETATM   29  C   UNK N   1      20.906  18.212   2.835  0.00  0.00     0.040 C 
HETATM   30  C   UNK N   1      21.231  20.641   2.568  0.00  0.00     0.040 C 
ENDBRANCH  27  28
ENDBRANCH  25  27
ENDBRANCH  24  25
ENDBRANCH  23  24
ENDBRANCH  22  23
ENDBRANCH  21  22
ENDBRANCH  19  20
ENDBRANCH   1  19
BRANCH   4  31
HETATM   31  O   UNK N   1      29.792  16.839  10.534  0.00  0.00    -0.395 OA
HETATM   32  H   UNK N   1      29.846  17.030  11.485  0.00  0.00     0.210 HD
ENDBRANCH   4  31
BRANCH   3  33
HETATM   33  O   UNK N   1      27.283  19.282   7.390  0.00  0.00    -0.395 OA
HETATM   34  H   UNK N   1      27.695  20.066   6.996  0.00  0.00     0.210 HD
ENDBRANCH   3  33
TORSDOF 15
ENDMDL
