MODEL 1
REMARK VINA RESULT:      -1.3      0.000      0.000
REMARK  10 active torsions:
REMARK  status: ('A' for Active; 'I' for Inactive)
REMARK    1  A    between atoms: N_2  and  C_5 
REMARK    2  A    between atoms: C_5  and  C_6 
REMARK    3  A    between atoms: C_6  and  O_7 
REMARK    4  A    between atoms: C_11  and  O_17 
REMARK    5  A    between atoms: C_12  and  C_14 
REMARK    6  A    between atoms: C_21  and  O_27 
REMARK    7  A    between atoms: C_22  and  C_24 
REMARK    8  A    between atoms: Mg_28  and  Mg_28 
REMARK    9  A    between atoms: C_32  and  O_38 
REMARK   10  A    between atoms: C_33  and  C_35 
ROOT
HETATM    1 Mg   UNK N   1      38.596  29.706  19.362  0.00  0.00     0.000 Mg
ENDROOT
TORSDOF 10
ENDMDL
MODEL 2
REMARK VINA RESULT:      -1.2     10.767     10.767
REMARK  10 active torsions:
REMARK  status: ('A' for Active; 'I' for Inactive)
REMARK    1  A    between atoms: N_2  and  C_5 
REMARK    2  A    between atoms: C_5  and  C_6 
REMARK    3  A    between atoms: C_6  and  O_7 
REMARK    4  A    between atoms: C_11  and  O_17 
REMARK    5  A    between atoms: C_12  and  C_14 
REMARK    6  A    between atoms: C_21  and  O_27 
REMARK    7  A    between atoms: C_22  and  C_24 
REMARK    8  A    between atoms: Mg_28  and  Mg_28 
REMARK    9  A    between atoms: C_32  and  O_38 
REMARK   10  A    between atoms: C_33  and  C_35 
ROOT
HETATM    1 Mg   UNK N   1      39.964  21.073  13.075  0.00  0.00     0.000 Mg
ENDROOT
TORSDOF 10
ENDMDL
MODEL 3
REMARK VINA RESULT:      -1.2     11.042     11.042
REMARK  10 active torsions:
REMARK  status: ('A' for Active; 'I' for Inactive)
REMARK    1  A    between atoms: N_2  and  C_5 
REMARK    2  A    between atoms: C_5  and  C_6 
REMARK    3  A    between atoms: C_6  and  O_7 
REMARK    4  A    between atoms: C_11  and  O_17 
REMARK    5  A    between atoms: C_12  and  C_14 
REMARK    6  A    between atoms: C_21  and  O_27 
REMARK    7  A    between atoms: C_22  and  C_24 
REMARK    8  A    between atoms: Mg_28  and  Mg_28 
REMARK    9  A    between atoms: C_32  and  O_38 
REMARK   10  A    between atoms: C_33  and  C_35 
ROOT
HETATM    1 Mg   UNK N   1      35.636  21.382  12.738  0.00  0.00     0.000 Mg
ENDROOT
TORSDOF 10
ENDMDL
MODEL 4
REMARK VINA RESULT:      -1.2     31.889     31.889
REMARK  10 active torsions:
REMARK  status: ('A' for Active; 'I' for Inactive)
REMARK    1  A    between atoms: N_2  and  C_5 
REMARK    2  A    between atoms: C_5  and  C_6 
REMARK    3  A    between atoms: C_6  and  O_7 
REMARK    4  A    between atoms: C_11  and  O_17 
REMARK    5  A    between atoms: C_12  and  C_14 
REMARK    6  A    between atoms: C_21  and  O_27 
REMARK    7  A    between atoms: C_22  and  C_24 
REMARK    8  A    between atoms: Mg_28  and  Mg_28 
REMARK    9  A    between atoms: C_32  and  O_38 
REMARK   10  A    between atoms: C_33  and  C_35 
ROOT
HETATM    1 Mg   UNK N   1      21.453  21.778  -6.332  0.00  0.00     0.000 Mg
ENDROOT
TORSDOF 10
ENDMDL
MODEL 5
REMARK VINA RESULT:      -1.1     15.613     15.613
REMARK  10 active torsions:
REMARK  status: ('A' for Active; 'I' for Inactive)
REMARK    1  A    between atoms: N_2  and  C_5 
REMARK    2  A    between atoms: C_5  and  C_6 
REMARK    3  A    between atoms: C_6  and  O_7 
REMARK    4  A    between atoms: C_11  and  O_17 
REMARK    5  A    between atoms: C_12  and  C_14 
REMARK    6  A    between atoms: C_21  and  O_27 
REMARK    7  A    between atoms: C_22  and  C_24 
REMARK    8  A    between atoms: Mg_28  and  Mg_28 
REMARK    9  A    between atoms: C_32  and  O_38 
REMARK   10  A    between atoms: C_33  and  C_35 
ROOT
HETATM    1 Mg   UNK N   1      43.320  25.304   5.147  0.00  0.00     0.000 Mg
ENDROOT
TORSDOF 10
ENDMDL
MODEL 6
REMARK VINA RESULT:      -1.0     33.003     33.003
REMARK  10 active torsions:
REMARK  status: ('A' for Active; 'I' for Inactive)
REMARK    1  A    between atoms: N_2  and  C_5 
REMARK    2  A    between atoms: C_5  and  C_6 
REMARK    3  A    between atoms: C_6  and  O_7 
REMARK    4  A    between atoms: C_11  and  O_17 
REMARK    5  A    between atoms: C_12  and  C_14 
REMARK    6  A    between atoms: C_21  and  O_27 
REMARK    7  A    between atoms: C_22  and  C_24 
REMARK    8  A    between atoms: Mg_28  and  Mg_28 
REMARK    9  A    between atoms: C_32  and  O_38 
REMARK   10  A    between atoms: C_33  and  C_35 
ROOT
HETATM    1 Mg   UNK N   1      19.922  20.075  -6.089  0.00  0.00     0.000 Mg
ENDROOT
TORSDOF 10
ENDMDL
MODEL 7
REMARK VINA RESULT:      -0.9     13.743     13.743
REMARK  10 active torsions:
REMARK  status: ('A' for Active; 'I' for Inactive)
REMARK    1  A    between atoms: N_2  and  C_5 
REMARK    2  A    between atoms: C_5  and  C_6 
REMARK    3  A    between atoms: C_6  and  O_7 
REMARK    4  A    between atoms: C_11  and  O_17 
REMARK    5  A    between atoms: C_12  and  C_14 
REMARK    6  A    between atoms: C_21  and  O_27 
REMARK    7  A    between atoms: C_22  and  C_24 
REMARK    8  A    between atoms: Mg_28  and  Mg_28 
REMARK    9  A    between atoms: C_32  and  O_38 
REMARK   10  A    between atoms: C_33  and  C_35 
ROOT
HETATM    1 Mg   UNK N   1      36.345  19.944   9.954  0.00  0.00     0.000 Mg
ENDROOT
TORSDOF 10
ENDMDL
MODEL 8
REMARK VINA RESULT:      -0.9     28.191     28.191
REMARK  10 active torsions:
REMARK  status: ('A' for Active; 'I' for Inactive)
REMARK    1  A    between atoms: N_2  and  C_5 
REMARK    2  A    between atoms: C_5  and  C_6 
REMARK    3  A    between atoms: C_6  and  O_7 
REMARK    4  A    between atoms: C_11  and  O_17 
REMARK    5  A    between atoms: C_12  and  C_14 
REMARK    6  A    between atoms: C_21  and  O_27 
REMARK    7  A    between atoms: C_22  and  C_24 
REMARK    8  A    between atoms: Mg_28  and  Mg_28 
REMARK    9  A    between atoms: C_32  and  O_38 
REMARK   10  A    between atoms: C_33  and  C_35 
ROOT
HETATM    1 Mg   UNK N   1      19.507  21.381   0.361  0.00  0.00     0.000 Mg
ENDROOT
TORSDOF 10
ENDMDL
MODEL 9
REMARK VINA RESULT:      -0.9     29.751     29.751
REMARK  10 active torsions:
REMARK  status: ('A' for Active; 'I' for Inactive)
REMARK    1  A    between atoms: N_2  and  C_5 
REMARK    2  A    between atoms: C_5  and  C_6 
REMARK    3  A    between atoms: C_6  and  O_7 
REMARK    4  A    between atoms: C_11  and  O_17 
REMARK    5  A    between atoms: C_12  and  C_14 
REMARK    6  A    between atoms: C_21  and  O_27 
REMARK    7  A    between atoms: C_22  and  C_24 
REMARK    8  A    between atoms: Mg_28  and  Mg_28 
REMARK    9  A    between atoms: C_32  and  O_38 
REMARK   10  A    between atoms: C_33  and  C_35 
ROOT
HETATM    1 Mg   UNK N   1      17.117  18.818   1.892  0.00  0.00     0.000 Mg
ENDROOT
TORSDOF 10
ENDMDL
