MODEL 1
REMARK VINA RESULT:      -7.8      0.000      0.000
REMARK  13 active torsions:
REMARK  status: ('A' for Active; 'I' for Inactive)
REMARK    1  A    between atoms: C_3  and  N_1 
REMARK    2  A    between atoms: C_9  and  O_16 
REMARK    3  A    between atoms: C_12  and  N_19 
REMARK    4  A    between atoms: C_13  and  S_22 
REMARK    5  A    between atoms: C_14  and  O_20 
REMARK    6  A    between atoms: C_15  and  O_21 
REMARK    7  A    between atoms: C_29  and  N_19 
REMARK    8  A    between atoms: O_20  and  C_25 
REMARK    9  A    between atoms: S_22  and  C_23 
REMARK   10  A    between atoms: C_23  and  C_24 
REMARK   11  A    between atoms: C_25  and  C_26 
REMARK   12  A    between atoms: C_26  and  O_27 
REMARK   13  A    between atoms: C_30  and  C_32 
ROOT
HETATM    1  N   UNK N   1      34.371  15.983   9.567  0.00  0.00    -0.251 N 
HETATM    2  C   UNK N   1      34.754  14.936  10.315  0.00  0.00     0.155 A 
HETATM    3  N   UNK N   1      34.767  17.079  10.214  0.00  0.00    -0.018 NA
HETATM    4  C   UNK N   1      35.383  15.407  11.403  0.00  0.00     0.135 A 
HETATM    5  N   UNK N   1      34.539  13.617  10.114  0.00  0.00    -0.320 N 
ATOM      6  HN  UNK N   1      34.054  13.286   9.279  1.00  0.00     0.169 HD
HETATM    7  N   UNK N   1      35.400  16.750  11.341  0.00  0.00    -0.277 N 
ATOM      8  HN  UNK N   1      35.813  17.389  12.020  1.00  0.00     0.184 HD
HETATM    9  C   UNK N   1      35.853  14.544  12.371  0.00  0.00     0.135 A 
HETATM   10  C   UNK N   1      34.988  12.737  11.060  0.00  0.00     0.147 A 
HETATM   11  N   UNK N   1      35.638  13.200  12.185  0.00  0.00    -0.321 N 
ATOM     12  HN  UNK N   1      35.964  12.536  12.887  1.00  0.00     0.169 HD
ENDROOT
BRANCH   1  13
HETATM   13  C   UNK N   1      33.607  16.012   8.314  0.00  0.00     0.142 C 
HETATM   14  C   UNK N   1      32.359  16.867   8.460  0.00  0.00     0.064 C 
HETATM   15  C   UNK N   1      32.057  17.396   7.063  0.00  0.00     0.154 C 
HETATM   16  C   UNK N   1      33.216  16.945   6.194  0.00  0.00     0.178 C 
HETATM   17  C   UNK N   1      34.336  16.674   7.159  0.00  0.00     0.174 C 
BRANCH  15  18
HETATM   18  O   UNK N   1      30.871  16.832   6.588  0.00  0.00    -0.381 OA
BRANCH  18  19
HETATM   19  C   UNK N   1      29.918  17.090   7.575  0.00  0.00     0.194 C 
BRANCH  19  20
HETATM   20  C   UNK N   1      28.591  17.453   6.930  0.00  0.00     0.190 C 
BRANCH  20  21
HETATM   21  O   UNK N   1      27.697  17.908   7.898  0.00  0.00    -0.399 OA
HETATM   22  H   UNK N   1      27.004  17.325   8.249  0.00  0.00     0.209 HD
ENDBRANCH  20  21
ENDBRANCH  19  20
ENDBRANCH  18  19
ENDBRANCH  15  18
BRANCH  16  23
HETATM   23  O   UNK N   1      33.570  17.938   5.280  0.00  0.00    -0.390 OA
HETATM   24  H   UNK N   1      34.361  17.992   4.722  0.00  0.00     0.210 HD
ENDBRANCH  16  23
BRANCH  17  25
HETATM   25  O   UNK N   1      35.261  15.812   6.571  0.00  0.00    -0.391 OA
HETATM   26  H   UNK N   1      35.308  15.200   5.818  0.00  0.00     0.210 HD
ENDBRANCH  17  25
ENDBRANCH   1  13
BRANCH   9  27
HETATM   27  N   UNK N   1      36.478  15.050  13.539  0.00  0.00    -0.369 N 
HETATM   28  H   UNK N   1      36.701  16.008  13.576  0.00  0.00     0.161 HD
BRANCH  27  29
HETATM   29  C   UNK N   1      36.800  14.223  14.672  0.00  0.00     0.092 A 
HETATM   30  C   UNK N   1      35.900  14.568  15.847  0.00  0.00     0.043 A 
HETATM   31  C   UNK N   1      37.317  15.109  15.790  0.00  0.00     0.037 A 
BRANCH  30  32
HETATM   32  C   UNK N   1      35.756  13.343  16.699  0.00  0.00    -0.049 A 
HETATM   33  C   UNK N   1      35.349  13.506  18.027  0.00  0.00     0.053 A 
HETATM   34  C   UNK N   1      35.149  12.392  18.845  0.00  0.00     0.155 A 
HETATM   35  C   UNK N   1      35.365  11.106  18.340  0.00  0.00     0.154 A 
HETATM   36  F   UNK N   1      34.739  12.560  20.125  0.00  0.00    -0.203 F 
HETATM   37  C   UNK N   1      35.783  10.935  17.018  0.00  0.00     0.046 A 
HETATM   38  F   UNK N   1      35.166  10.024  19.129  0.00  0.00    -0.203 F 
HETATM   39  C   UNK N   1      35.974  12.047  16.197  0.00  0.00     0.011 A 
ENDBRANCH  30  32
ENDBRANCH  27  29
ENDBRANCH   9  27
BRANCH  10  40
HETATM   40  S   UNK N   1      34.574  11.002  10.889  0.00  0.00    -0.094 SA
BRANCH  40  41
HETATM   41  C   UNK N   1      35.559  10.428  12.303  0.00  0.00     0.082 C 
BRANCH  41  42
HETATM   42  C   UNK N   1      34.663   9.693  13.286  0.00  0.00     0.006 C 
HETATM   43  C   UNK N   1      33.679  10.652  13.937  0.00  0.00     0.006 C 
ENDBRANCH  41  42
ENDBRANCH  40  41
ENDBRANCH  10  40
TORSDOF 13
ENDMDL
MODEL 2
REMARK VINA RESULT:      -7.8      7.991     11.167
REMARK  13 active torsions:
REMARK  status: ('A' for Active; 'I' for Inactive)
REMARK    1  A    between atoms: C_3  and  N_1 
REMARK    2  A    between atoms: C_9  and  O_16 
REMARK    3  A    between atoms: C_12  and  N_19 
REMARK    4  A    between atoms: C_13  and  S_22 
REMARK    5  A    between atoms: C_14  and  O_20 
REMARK    6  A    between atoms: C_15  and  O_21 
REMARK    7  A    between atoms: C_29  and  N_19 
REMARK    8  A    between atoms: O_20  and  C_25 
REMARK    9  A    between atoms: S_22  and  C_23 
REMARK   10  A    between atoms: C_23  and  C_24 
REMARK   11  A    between atoms: C_25  and  C_26 
REMARK   12  A    between atoms: C_26  and  O_27 
REMARK   13  A    between atoms: C_30  and  C_32 
ROOT
HETATM    1  N   UNK N   1      30.237  15.622   5.098  0.00  0.00    -0.251 N 
HETATM    2  C   UNK N   1      29.144  16.284   5.506  0.00  0.00     0.155 A 
HETATM    3  N   UNK N   1      29.863  14.358   4.895  0.00  0.00    -0.018 NA
HETATM    4  C   UNK N   1      28.118  15.419   5.541  0.00  0.00     0.135 A 
HETATM    5  N   UNK N   1      29.018  17.575   5.888  0.00  0.00    -0.320 N 
ATOM      6  HN  UNK N   1      29.816  18.211   5.855  1.00  0.00     0.169 HD
HETATM    7  N   UNK N   1      28.563  14.211   5.152  0.00  0.00    -0.277 N 
ATOM      8  HN  UNK N   1      28.015  13.355   5.070  1.00  0.00     0.184 HD
HETATM    9  C   UNK N   1      26.870  15.826   5.965  0.00  0.00     0.135 A 
HETATM   10  C   UNK N   1      27.794  18.006   6.319  0.00  0.00     0.147 A 
HETATM   11  N   UNK N   1      26.727  17.134   6.361  0.00  0.00    -0.321 N 
ATOM     12  HN  UNK N   1      25.820  17.464   6.690  1.00  0.00     0.169 HD
ENDROOT
BRANCH   1  13
HETATM   13  C   UNK N   1      31.618  16.093   4.943  0.00  0.00     0.142 C 
HETATM   14  C   UNK N   1      32.252  16.368   6.297  0.00  0.00     0.064 C 
HETATM   15  C   UNK N   1      33.748  16.156   6.100  0.00  0.00     0.154 C 
HETATM   16  C   UNK N   1      33.907  15.632   4.686  0.00  0.00     0.178 C 
HETATM   17  C   UNK N   1      32.558  15.071   4.331  0.00  0.00     0.174 C 
BRANCH  15  18
HETATM   18  O   UNK N   1      34.420  17.374   6.225  0.00  0.00    -0.381 OA
BRANCH  18  19
HETATM   19  C   UNK N   1      33.808  18.027   7.297  0.00  0.00     0.194 C 
BRANCH  19  20
HETATM   20  C   UNK N   1      34.751  18.061   8.487  0.00  0.00     0.190 C 
BRANCH  20  21
HETATM   21  O   UNK N   1      35.375  19.305   8.568  0.00  0.00    -0.399 OA
HETATM   22  H   UNK N   1      36.211  19.473   8.105  0.00  0.00     0.209 HD
ENDBRANCH  20  21
ENDBRANCH  19  20
ENDBRANCH  18  19
ENDBRANCH  15  18
BRANCH  16  23
HETATM   23  O   UNK N   1      34.891  14.646   4.626  0.00  0.00    -0.390 OA
HETATM   24  H   UNK N   1      35.072  14.012   3.914  0.00  0.00     0.210 HD
ENDBRANCH  16  23
BRANCH  17  25
HETATM   25  O   UNK N   1      32.426  15.014   2.944  0.00  0.00    -0.391 OA
HETATM   26  H   UNK N   1      32.592  15.581   2.174  0.00  0.00     0.210 HD
ENDBRANCH  17  25
ENDBRANCH   1  13
BRANCH   9  27
HETATM   27  N   UNK N   1      25.802  14.897   6.041  0.00  0.00    -0.369 N 
HETATM   28  H   UNK N   1      25.673  14.266   5.297  0.00  0.00     0.161 HD
BRANCH  27  29
HETATM   29  C   UNK N   1      24.899  14.836   7.160  0.00  0.00     0.092 A 
HETATM   30  C   UNK N   1      24.039  13.586   7.075  0.00  0.00     0.043 A 
HETATM   31  C   UNK N   1      23.476  14.928   6.643  0.00  0.00     0.037 A 
BRANCH  30  32
HETATM   32  C   UNK N   1      23.653  13.190   8.469  0.00  0.00    -0.049 A 
HETATM   33  C   UNK N   1      22.313  13.324   8.846  0.00  0.00     0.053 A 
HETATM   34  C   UNK N   1      21.894  12.919  10.115  0.00  0.00     0.155 A 
HETATM   35  C   UNK N   1      22.818  12.385  11.019  0.00  0.00     0.154 A 
HETATM   36  F   UNK N   1      20.591  13.038  10.465  0.00  0.00    -0.203 F 
HETATM   37  C   UNK N   1      24.160  12.259  10.654  0.00  0.00     0.046 A 
HETATM   38  F   UNK N   1      22.413  11.985  12.248  0.00  0.00    -0.203 F 
HETATM   39  C   UNK N   1      24.578  12.655   9.382  0.00  0.00     0.011 A 
ENDBRANCH  30  32
ENDBRANCH  27  29
ENDBRANCH   9  27
BRANCH  10  40
HETATM   40  S   UNK N   1      27.647  19.667   6.976  0.00  0.00    -0.094 SA
BRANCH  40  41
HETATM   41  C   UNK N   1      26.410  20.240   5.777  0.00  0.00     0.082 C 
BRANCH  41  42
HETATM   42  C   UNK N   1      27.029  20.296   4.391  0.00  0.00     0.006 C 
HETATM   43  C   UNK N   1      25.974  20.066   3.320  0.00  0.00     0.006 C 
ENDBRANCH  41  42
ENDBRANCH  40  41
ENDBRANCH  10  40
TORSDOF 13
ENDMDL
MODEL 3
REMARK VINA RESULT:      -7.5      2.160      3.732
REMARK  13 active torsions:
REMARK  status: ('A' for Active; 'I' for Inactive)
REMARK    1  A    between atoms: C_3  and  N_1 
REMARK    2  A    between atoms: C_9  and  O_16 
REMARK    3  A    between atoms: C_12  and  N_19 
REMARK    4  A    between atoms: C_13  and  S_22 
REMARK    5  A    between atoms: C_14  and  O_20 
REMARK    6  A    between atoms: C_15  and  O_21 
REMARK    7  A    between atoms: C_29  and  N_19 
REMARK    8  A    between atoms: O_20  and  C_25 
REMARK    9  A    between atoms: S_22  and  C_23 
REMARK   10  A    between atoms: C_23  and  C_24 
REMARK   11  A    between atoms: C_25  and  C_26 
REMARK   12  A    between atoms: C_26  and  O_27 
REMARK   13  A    between atoms: C_30  and  C_32 
ROOT
HETATM    1  N   UNK N   1      34.781  16.622   9.154  0.00  0.00    -0.251 N 
HETATM    2  C   UNK N   1      35.378  15.420   9.175  0.00  0.00     0.155 A 
HETATM    3  N   UNK N   1      34.967  17.160  10.360  0.00  0.00    -0.018 NA
HETATM    4  C   UNK N   1      35.924  15.244  10.389  0.00  0.00     0.135 A 
HETATM    5  N   UNK N   1      35.423  14.471   8.214  0.00  0.00    -0.320 N 
ATOM      6  HN  UNK N   1      34.996  14.629   7.300  1.00  0.00     0.169 HD
HETATM    7  N   UNK N   1      35.674  16.336  11.133  0.00  0.00    -0.277 N 
ATOM      8  HN  UNK N   1      35.967  16.500  12.096  1.00  0.00     0.184 HD
HETATM    9  C   UNK N   1      36.573  14.069  10.703  0.00  0.00     0.135 A 
HETATM   10  C   UNK N   1      36.056  13.291   8.498  0.00  0.00     0.147 A 
HETATM   11  N   UNK N   1      36.624  13.091   9.739  0.00  0.00    -0.321 N 
ATOM     12  HN  UNK N   1      37.088  12.206   9.943  1.00  0.00     0.169 HD
ENDROOT
BRANCH   1  13
HETATM   13  C   UNK N   1      34.003  17.266   8.090  0.00  0.00     0.142 C 
HETATM   14  C   UNK N   1      34.422  16.749   6.723  0.00  0.00     0.064 C 
HETATM   15  C   UNK N   1      33.193  16.894   5.834  0.00  0.00     0.154 C 
HETATM   16  C   UNK N   1      32.075  17.354   6.750  0.00  0.00     0.178 C 
HETATM   17  C   UNK N   1      32.518  16.950   8.129  0.00  0.00     0.174 C 
BRANCH  15  18
HETATM   18  O   UNK N   1      33.425  17.866   4.858  0.00  0.00    -0.381 OA
BRANCH  18  19
HETATM   19  C   UNK N   1      32.669  17.468   3.753  0.00  0.00     0.194 C 
BRANCH  19  20
HETATM   20  C   UNK N   1      32.939  16.006   3.442  0.00  0.00     0.190 C 
BRANCH  20  21
HETATM   21  O   UNK N   1      33.678  15.896   2.266  0.00  0.00    -0.399 OA
HETATM   22  H   UNK N   1      33.312  15.444   1.488  0.00  0.00     0.209 HD
ENDBRANCH  20  21
ENDBRANCH  19  20
ENDBRANCH  18  19
ENDBRANCH  15  18
BRANCH  16  23
HETATM   23  O   UNK N   1      30.869  16.740   6.413  0.00  0.00    -0.390 OA
HETATM   24  H   UNK N   1      30.719  15.844   6.074  0.00  0.00     0.210 HD
ENDBRANCH  16  23
BRANCH  17  25
HETATM   25  O   UNK N   1      31.852  17.724   9.079  0.00  0.00    -0.391 OA
HETATM   26  H   UNK N   1      31.011  18.201   9.168  0.00  0.00     0.210 HD
ENDBRANCH  17  25
ENDBRANCH   1  13
BRANCH   9  27
HETATM   27  N   UNK N   1      37.109  13.872  12.001  0.00  0.00    -0.369 N 
HETATM   28  H   UNK N   1      38.084  13.941  12.123  0.00  0.00     0.161 HD
BRANCH  27  29
HETATM   29  C   UNK N   1      36.290  13.575  13.146  0.00  0.00     0.092 A 
HETATM   30  C   UNK N   1      37.117  12.884  14.219  0.00  0.00     0.043 A 
HETATM   31  C   UNK N   1      36.213  12.069  13.312  0.00  0.00     0.037 A 
BRANCH  30  32
HETATM   32  C   UNK N   1      36.508  13.200  15.552  0.00  0.00    -0.049 A 
HETATM   33  C   UNK N   1      36.791  14.441  16.130  0.00  0.00     0.053 A 
HETATM   34  C   UNK N   1      36.205  14.803  17.345  0.00  0.00     0.155 A 
HETATM   35  C   UNK N   1      35.338  13.919  17.994  0.00  0.00     0.154 A 
HETATM   36  F   UNK N   1      36.473  16.014  17.889  0.00  0.00    -0.203 F 
HETATM   37  C   UNK N   1      35.059  12.672  17.428  0.00  0.00     0.046 A 
HETATM   38  F   UNK N   1      34.763  14.269  19.169  0.00  0.00    -0.203 F 
HETATM   39  C   UNK N   1      35.637  12.313  16.210  0.00  0.00     0.011 A 
ENDBRANCH  30  32
ENDBRANCH  27  29
ENDBRANCH   9  27
BRANCH  10  40
HETATM   40  S   UNK N   1      35.988  11.965   7.296  0.00  0.00    -0.094 SA
BRANCH  40  41
HETATM   41  C   UNK N   1      34.903  12.825   6.121  0.00  0.00     0.082 C 
BRANCH  41  42
HETATM   42  C   UNK N   1      33.490  12.278   6.234  0.00  0.00     0.006 C 
HETATM   43  C   UNK N   1      32.469  13.403   6.161  0.00  0.00     0.006 C 
ENDBRANCH  41  42
ENDBRANCH  40  41
ENDBRANCH  10  40
TORSDOF 13
ENDMDL
MODEL 4
REMARK VINA RESULT:      -7.4      2.724      4.131
REMARK  13 active torsions:
REMARK  status: ('A' for Active; 'I' for Inactive)
REMARK    1  A    between atoms: C_3  and  N_1 
REMARK    2  A    between atoms: C_9  and  O_16 
REMARK    3  A    between atoms: C_12  and  N_19 
REMARK    4  A    between atoms: C_13  and  S_22 
REMARK    5  A    between atoms: C_14  and  O_20 
REMARK    6  A    between atoms: C_15  and  O_21 
REMARK    7  A    between atoms: C_29  and  N_19 
REMARK    8  A    between atoms: O_20  and  C_25 
REMARK    9  A    between atoms: S_22  and  C_23 
REMARK   10  A    between atoms: C_23  and  C_24 
REMARK   11  A    between atoms: C_25  and  C_26 
REMARK   12  A    between atoms: C_26  and  O_27 
REMARK   13  A    between atoms: C_30  and  C_32 
ROOT
HETATM    1  N   UNK N   1      35.054  14.626  10.135  0.00  0.00    -0.251 N 
HETATM    2  C   UNK N   1      35.543  13.382  10.255  0.00  0.00     0.155 A 
HETATM    3  N   UNK N   1      34.316  14.852  11.223  0.00  0.00    -0.018 NA
HETATM    4  C   UNK N   1      35.103  12.869  11.415  0.00  0.00     0.135 A 
HETATM    5  N   UNK N   1      36.302  12.675   9.390  0.00  0.00    -0.320 N 
ATOM      6  HN  UNK N   1      36.621  13.088   8.512  1.00  0.00     0.169 HD
HETATM    7  N   UNK N   1      34.339  13.790  12.028  0.00  0.00    -0.277 N 
ATOM      8  HN  UNK N   1      33.870  13.695  12.929  1.00  0.00     0.184 HD
HETATM    9  C   UNK N   1      35.425  11.579  11.779  0.00  0.00     0.135 A 
HETATM   10  C   UNK N   1      36.633  11.389   9.721  0.00  0.00     0.147 A 
HETATM   11  N   UNK N   1      36.193  10.844  10.908  0.00  0.00    -0.321 N 
ATOM     12  HN  UNK N   1      36.440   9.882  11.142  1.00  0.00     0.169 HD
ENDROOT
BRANCH   1  13
HETATM   13  C   UNK N   1      35.193  15.589   9.036  0.00  0.00     0.142 C 
HETATM   14  C   UNK N   1      34.377  15.154   7.829  0.00  0.00     0.064 C 
HETATM   15  C   UNK N   1      34.019  16.439   7.092  0.00  0.00     0.154 C 
HETATM   16  C   UNK N   1      34.517  17.570   7.970  0.00  0.00     0.178 C 
HETATM   17  C   UNK N   1      34.635  16.967   9.342  0.00  0.00     0.174 C 
BRANCH  15  18
HETATM   18  O   UNK N   1      34.678  16.479   5.861  0.00  0.00    -0.381 OA
BRANCH  18  19
HETATM   19  C   UNK N   1      33.695  16.212   4.906  0.00  0.00     0.194 C 
BRANCH  19  20
HETATM   20  C   UNK N   1      32.905  17.475   4.611  0.00  0.00     0.190 C 
BRANCH  20  21
HETATM   21  O   UNK N   1      32.417  17.440   3.305  0.00  0.00    -0.399 OA
HETATM   22  H   UNK N   1      32.501  18.211   2.722  0.00  0.00     0.209 HD
ENDBRANCH  20  21
ENDBRANCH  19  20
ENDBRANCH  18  19
ENDBRANCH  15  18
BRANCH  16  23
HETATM   23  O   UNK N   1      33.619  18.637   7.968  0.00  0.00    -0.390 OA
HETATM   24  H   UNK N   1      32.907  18.829   7.338  0.00  0.00     0.210 HD
ENDBRANCH  16  23
BRANCH  17  25
HETATM   25  O   UNK N   1      35.521  17.722  10.111  0.00  0.00    -0.391 OA
HETATM   26  H   UNK N   1      36.273  18.320   9.975  0.00  0.00     0.210 HD
ENDBRANCH  17  25
ENDBRANCH   1  13
BRANCH   9  27
HETATM   27  N   UNK N   1      34.921  11.028  12.984  0.00  0.00    -0.369 N 
HETATM   28  H   UNK N   1      34.731  10.063  13.017  0.00  0.00     0.161 HD
BRANCH  27  29
HETATM   29  C   UNK N   1      34.677  11.819  14.162  0.00  0.00     0.092 A 
HETATM   30  C   UNK N   1      35.727  11.524  15.220  0.00  0.00     0.043 A 
HETATM   31  C   UNK N   1      34.352  10.887  15.314  0.00  0.00     0.037 A 
BRANCH  30  32
HETATM   32  C   UNK N   1      35.884  12.747  16.073  0.00  0.00    -0.049 A 
HETATM   33  C   UNK N   1      36.712  13.774  15.608  0.00  0.00     0.053 A 
HETATM   34  C   UNK N   1      36.849  14.955  16.341  0.00  0.00     0.155 A 
HETATM   35  C   UNK N   1      36.164  15.111  17.550  0.00  0.00     0.154 A 
HETATM   36  F   UNK N   1      37.640  15.950  15.874  0.00  0.00    -0.203 F 
HETATM   37  C   UNK N   1      35.345  14.085  18.027  0.00  0.00     0.046 A 
HETATM   38  F   UNK N   1      36.290  16.258  18.259  0.00  0.00    -0.203 F 
HETATM   39  C   UNK N   1      35.200  12.908  17.291  0.00  0.00     0.011 A 
ENDBRANCH  30  32
ENDBRANCH  27  29
ENDBRANCH   9  27
BRANCH  10  40
HETATM   40  S   UNK N   1      37.503  10.386   8.518  0.00  0.00    -0.094 SA
BRANCH  40  41
HETATM   41  C   UNK N   1      38.304  11.769   7.656  0.00  0.00     0.082 C 
BRANCH  41  42
HETATM   42  C   UNK N   1      39.773  11.829   8.039  0.00  0.00     0.006 C 
HETATM   43  C   UNK N   1      40.577  12.565   6.978  0.00  0.00     0.006 C 
ENDBRANCH  41  42
ENDBRANCH  40  41
ENDBRANCH  10  40
TORSDOF 13
ENDMDL
MODEL 5
REMARK VINA RESULT:      -7.4      7.073     10.469
REMARK  13 active torsions:
REMARK  status: ('A' for Active; 'I' for Inactive)
REMARK    1  A    between atoms: C_3  and  N_1 
REMARK    2  A    between atoms: C_9  and  O_16 
REMARK    3  A    between atoms: C_12  and  N_19 
REMARK    4  A    between atoms: C_13  and  S_22 
REMARK    5  A    between atoms: C_14  and  O_20 
REMARK    6  A    between atoms: C_15  and  O_21 
REMARK    7  A    between atoms: C_29  and  N_19 
REMARK    8  A    between atoms: O_20  and  C_25 
REMARK    9  A    between atoms: S_22  and  C_23 
REMARK   10  A    between atoms: C_23  and  C_24 
REMARK   11  A    between atoms: C_25  and  C_26 
REMARK   12  A    between atoms: C_26  and  O_27 
REMARK   13  A    between atoms: C_30  and  C_32 
ROOT
HETATM    1  N   UNK N   1      26.326  18.842   4.151  0.00  0.00    -0.251 N 
HETATM    2  C   UNK N   1      26.952  17.723   4.548  0.00  0.00     0.155 A 
HETATM    3  N   UNK N   1      27.047  19.865   4.610  0.00  0.00    -0.018 NA
HETATM    4  C   UNK N   1      28.048  18.078   5.237  0.00  0.00     0.135 A 
HETATM    5  N   UNK N   1      26.588  16.433   4.377  0.00  0.00    -0.320 N 
ATOM      6  HN  UNK N   1      25.747  16.190   3.851  1.00  0.00     0.169 HD
HETATM    7  N   UNK N   1      28.115  19.421   5.273  0.00  0.00    -0.277 N 
ATOM      8  HN  UNK N   1      28.838  19.986   5.718  1.00  0.00     0.184 HD
HETATM    9  C   UNK N   1      28.866  17.120   5.797  0.00  0.00     0.135 A 
HETATM   10  C   UNK N   1      27.376  15.460   4.927  0.00  0.00     0.147 A 
HETATM   11  N   UNK N   1      28.507  15.803   5.637  0.00  0.00    -0.321 N 
ATOM     12  HN  UNK N   1      29.085  15.070   6.049  1.00  0.00     0.169 HD
ENDROOT
BRANCH   1  13
HETATM   13  C   UNK N   1      25.065  19.003   3.418  0.00  0.00     0.142 C 
HETATM   14  C   UNK N   1      23.892  18.489   4.238  0.00  0.00     0.064 C 
HETATM   15  C   UNK N   1      22.683  19.290   3.771  0.00  0.00     0.154 C 
HETATM   16  C   UNK N   1      23.224  20.328   2.807  0.00  0.00     0.178 C 
HETATM   17  C   UNK N   1      24.682  20.448   3.151  0.00  0.00     0.174 C 
BRANCH  15  18
HETATM   18  O   UNK N   1      21.788  18.452   3.101  0.00  0.00    -0.381 OA
BRANCH  18  19
HETATM   19  C   UNK N   1      20.537  18.725   3.657  0.00  0.00     0.194 C 
BRANCH  19  20
HETATM   20  C   UNK N   1      19.619  19.314   2.600  0.00  0.00     0.190 C 
BRANCH  20  21
HETATM   21  O   UNK N   1      18.422  18.602   2.555  0.00  0.00    -0.399 OA
HETATM   22  H   UNK N   1      17.721  18.764   3.207  0.00  0.00     0.209 HD
ENDBRANCH  20  21
ENDBRANCH  19  20
ENDBRANCH  18  19
ENDBRANCH  15  18
BRANCH  16  23
HETATM   23  O   UNK N   1      22.569  21.549   2.968  0.00  0.00    -0.390 OA
HETATM   24  H   UNK N   1      21.659  21.715   3.260  0.00  0.00     0.210 HD
ENDBRANCH  16  23
BRANCH  17  25
HETATM   25  O   UNK N   1      25.378  20.972   2.061  0.00  0.00    -0.391 OA
HETATM   26  H   UNK N   1      25.922  21.748   1.852  0.00  0.00     0.210 HD
ENDBRANCH  17  25
ENDBRANCH   1  13
BRANCH   9  27
HETATM   27  N   UNK N   1      29.997  17.502   6.561  0.00  0.00    -0.369 N 
HETATM   28  H   UNK N   1      29.981  18.372   7.023  0.00  0.00     0.161 HD
BRANCH  27  29
HETATM   29  C   UNK N   1      31.167  16.675   6.691  0.00  0.00     0.092 A 
HETATM   30  C   UNK N   1      32.416  17.538   6.767  0.00  0.00     0.043 A 
HETATM   31  C   UNK N   1      32.036  16.864   5.461  0.00  0.00     0.037 A 
BRANCH  30  32
HETATM   32  C   UNK N   1      33.452  16.790   7.552  0.00  0.00    -0.049 A 
HETATM   33  C   UNK N   1      33.760  17.243   8.838  0.00  0.00     0.053 A 
HETATM   34  C   UNK N   1      34.679  16.549   9.629  0.00  0.00     0.155 A 
HETATM   35  C   UNK N   1      35.303  15.401   9.131  0.00  0.00     0.154 A 
HETATM   36  F   UNK N   1      34.958  16.987  10.880  0.00  0.00    -0.203 F 
HETATM   37  C   UNK N   1      35.009  14.949   7.842  0.00  0.00     0.046 A 
HETATM   38  F   UNK N   1      36.189  14.723   9.898  0.00  0.00    -0.203 F 
HETATM   39  C   UNK N   1      34.085  15.636   7.055  0.00  0.00     0.011 A 
ENDBRANCH  30  32
ENDBRANCH  27  29
ENDBRANCH   9  27
BRANCH  10  40
HETATM   40  S   UNK N   1      26.826  13.756   4.847  0.00  0.00    -0.094 SA
BRANCH  40  41
HETATM   41  C   UNK N   1      25.256  14.019   5.720  0.00  0.00     0.082 C 
BRANCH  41  42
HETATM   42  C   UNK N   1      25.531  14.326   7.183  0.00  0.00     0.006 C 
HETATM   43  C   UNK N   1      24.863  13.298   8.083  0.00  0.00     0.006 C 
ENDBRANCH  41  42
ENDBRANCH  40  41
ENDBRANCH  10  40
TORSDOF 13
ENDMDL
MODEL 6
REMARK VINA RESULT:      -7.4      8.332     11.115
REMARK  13 active torsions:
REMARK  status: ('A' for Active; 'I' for Inactive)
REMARK    1  A    between atoms: C_3  and  N_1 
REMARK    2  A    between atoms: C_9  and  O_16 
REMARK    3  A    between atoms: C_12  and  N_19 
REMARK    4  A    between atoms: C_13  and  S_22 
REMARK    5  A    between atoms: C_14  and  O_20 
REMARK    6  A    between atoms: C_15  and  O_21 
REMARK    7  A    between atoms: C_29  and  N_19 
REMARK    8  A    between atoms: O_20  and  C_25 
REMARK    9  A    between atoms: S_22  and  C_23 
REMARK   10  A    between atoms: C_23  and  C_24 
REMARK   11  A    between atoms: C_25  and  C_26 
REMARK   12  A    between atoms: C_26  and  O_27 
REMARK   13  A    between atoms: C_30  and  C_32 
ROOT
HETATM    1  N   UNK N   1      25.423  16.581   4.135  0.00  0.00    -0.251 N 
HETATM    2  C   UNK N   1      26.492  17.092   4.765  0.00  0.00     0.155 A 
HETATM    3  N   UNK N   1      25.864  16.080   2.981  0.00  0.00    -0.018 NA
HETATM    4  C   UNK N   1      27.570  16.891   3.991  0.00  0.00     0.135 A 
HETATM    5  N   UNK N   1      26.556  17.755   5.941  0.00  0.00    -0.320 N 
ATOM      6  HN  UNK N   1      25.720  17.897   6.509  1.00  0.00     0.169 HD
HETATM    7  N   UNK N   1      27.182  16.250   2.874  0.00  0.00    -0.277 N 
ATOM      8  HN  UNK N   1      27.777  15.955   2.100  1.00  0.00     0.184 HD
HETATM    9  C   UNK N   1      28.810  17.352   4.380  0.00  0.00     0.135 A 
HETATM   10  C   UNK N   1      27.772  18.230   6.351  0.00  0.00     0.147 A 
HETATM   11  N   UNK N   1      28.891  18.033   5.571  0.00  0.00    -0.321 N 
ATOM     12  HN  UNK N   1      29.792  18.397   5.882  1.00  0.00     0.169 HD
ENDROOT
BRANCH   1  13
HETATM   13  C   UNK N   1      24.009  16.588   4.528  0.00  0.00     0.142 C 
HETATM   14  C   UNK N   1      23.773  15.668   5.716  0.00  0.00     0.064 C 
HETATM   15  C   UNK N   1      22.567  16.244   6.448  0.00  0.00     0.154 C 
HETATM   16  C   UNK N   1      22.241  17.546   5.742  0.00  0.00     0.178 C 
HETATM   17  C   UNK N   1      23.512  17.929   5.037  0.00  0.00     0.174 C 
BRANCH  15  18
HETATM   18  O   UNK N   1      21.483  15.370   6.338  0.00  0.00    -0.381 OA
BRANCH  18  19
HETATM   19  C   UNK N   1      21.432  14.689   7.556  0.00  0.00     0.194 C 
BRANCH  19  20
HETATM   20  C   UNK N   1      20.343  15.281   8.434  0.00  0.00     0.190 C 
BRANCH  20  21
HETATM   21  O   UNK N   1      19.771  14.285   9.224  0.00  0.00    -0.399 OA
HETATM   22  H   UNK N   1      19.093  13.691   8.862  0.00  0.00     0.209 HD
ENDBRANCH  20  21
ENDBRANCH  19  20
ENDBRANCH  18  19
ENDBRANCH  15  18
BRANCH  16  23
HETATM   23  O   UNK N   1      21.860  18.528   6.657  0.00  0.00    -0.390 OA
HETATM   24  H   UNK N   1      22.422  19.143   7.154  0.00  0.00     0.210 HD
ENDBRANCH  16  23
BRANCH  17  25
HETATM   25  O   UNK N   1      23.220  18.801   3.988  0.00  0.00    -0.391 OA
HETATM   26  H   UNK N   1      22.863  19.695   3.865  0.00  0.00     0.210 HD
ENDBRANCH  17  25
ENDBRANCH   1  13
BRANCH   9  27
HETATM   27  N   UNK N   1      29.936  17.175   3.538  0.00  0.00    -0.369 N 
HETATM   28  H   UNK N   1      29.880  17.485   2.605  0.00  0.00     0.161 HD
BRANCH  27  29
HETATM   29  C   UNK N   1      31.158  16.562   3.987  0.00  0.00     0.092 A 
HETATM   30  C   UNK N   1      32.179  17.628   4.351  0.00  0.00     0.043 A 
HETATM   31  C   UNK N   1      32.267  16.915   3.013  0.00  0.00     0.037 A 
BRANCH  30  32
HETATM   32  C   UNK N   1      33.091  17.062   5.397  0.00  0.00    -0.049 A 
HETATM   33  C   UNK N   1      32.962  17.530   6.708  0.00  0.00     0.053 A 
HETATM   34  C   UNK N   1      33.753  16.996   7.728  0.00  0.00     0.155 A 
HETATM   35  C   UNK N   1      34.685  15.994   7.439  0.00  0.00     0.154 A 
HETATM   36  F   UNK N   1      33.609  17.444   8.998  0.00  0.00    -0.203 F 
HETATM   37  C   UNK N   1      34.828  15.530   6.129  0.00  0.00     0.046 A 
HETATM   38  F   UNK N   1      35.448  15.470   8.427  0.00  0.00    -0.203 F 
HETATM   39  C   UNK N   1      34.032  16.057   5.111  0.00  0.00     0.011 A 
ENDBRANCH  30  32
ENDBRANCH  27  29
ENDBRANCH   9  27
BRANCH  10  40
HETATM   40  S   UNK N   1      27.848  19.246   7.825  0.00  0.00    -0.094 SA
BRANCH  40  41
HETATM   41  C   UNK N   1      28.077  17.874   8.993  0.00  0.00     0.082 C 
BRANCH  41  42
HETATM   42  C   UNK N   1      29.549  17.505   9.065  0.00  0.00     0.006 C 
HETATM   43  C   UNK N   1      30.414  18.753   9.152  0.00  0.00     0.006 C 
ENDBRANCH  41  42
ENDBRANCH  40  41
ENDBRANCH  10  40
TORSDOF 13
ENDMDL
MODEL 7
REMARK VINA RESULT:      -7.3      2.114      2.923
REMARK  13 active torsions:
REMARK  status: ('A' for Active; 'I' for Inactive)
REMARK    1  A    between atoms: C_3  and  N_1 
REMARK    2  A    between atoms: C_9  and  O_16 
REMARK    3  A    between atoms: C_12  and  N_19 
REMARK    4  A    between atoms: C_13  and  S_22 
REMARK    5  A    between atoms: C_14  and  O_20 
REMARK    6  A    between atoms: C_15  and  O_21 
REMARK    7  A    between atoms: C_29  and  N_19 
REMARK    8  A    between atoms: O_20  and  C_25 
REMARK    9  A    between atoms: S_22  and  C_23 
REMARK   10  A    between atoms: C_23  and  C_24 
REMARK   11  A    between atoms: C_25  and  C_26 
REMARK   12  A    between atoms: C_26  and  O_27 
REMARK   13  A    between atoms: C_30  and  C_32 
ROOT
HETATM    1  N   UNK N   1      35.170  15.841   9.073  0.00  0.00    -0.251 N 
HETATM    2  C   UNK N   1      36.017  15.035   9.730  0.00  0.00     0.155 A 
HETATM    3  N   UNK N   1      34.515  16.542   9.999  0.00  0.00    -0.018 NA
HETATM    4  C   UNK N   1      35.872  15.258  11.046  0.00  0.00     0.135 A 
HETATM    5  N   UNK N   1      36.860  14.098   9.241  0.00  0.00    -0.320 N 
ATOM      6  HN  UNK N   1      36.948  13.946   8.236  1.00  0.00     0.169 HD
HETATM    7  N   UNK N   1      34.936  16.207  11.219  0.00  0.00    -0.277 N 
ATOM      8  HN  UNK N   1      34.612  16.593  12.106  1.00  0.00     0.184 HD
HETATM    9  C   UNK N   1      36.600  14.533  11.965  0.00  0.00     0.135 A 
HETATM   10  C   UNK N   1      37.591  13.358  10.130  0.00  0.00     0.147 A 
HETATM   11  N   UNK N   1      37.458  13.573  11.485  0.00  0.00    -0.321 N 
ATOM     12  HN  UNK N   1      38.003  13.011  12.139  1.00  0.00     0.169 HD
ENDROOT
BRANCH   1  13
HETATM   13  C   UNK N   1      34.902  15.950   7.634  0.00  0.00     0.142 C 
HETATM   14  C   UNK N   1      34.138  14.735   7.132  0.00  0.00     0.064 C 
HETATM   15  C   UNK N   1      33.337  15.222   5.930  0.00  0.00     0.154 C 
HETATM   16  C   UNK N   1      33.557  16.721   5.869  0.00  0.00     0.178 C 
HETATM   17  C   UNK N   1      33.989  17.102   7.257  0.00  0.00     0.174 C 
BRANCH  15  18
HETATM   18  O   UNK N   1      33.826  14.630   4.763  0.00  0.00    -0.381 OA
BRANCH  18  19
HETATM   19  C   UNK N   1      32.707  14.094   4.123  0.00  0.00     0.194 C 
BRANCH  19  20
HETATM   20  C   UNK N   1      32.902  14.142   2.617  0.00  0.00     0.190 C 
BRANCH  20  21
HETATM   21  O   UNK N   1      33.791  15.162   2.281  0.00  0.00    -0.399 OA
HETATM   22  H   UNK N   1      33.731  16.033   2.705  0.00  0.00     0.209 HD
ENDBRANCH  20  21
ENDBRANCH  19  20
ENDBRANCH  18  19
ENDBRANCH  15  18
BRANCH  16  23
HETATM   23  O   UNK N   1      32.384  17.384   5.509  0.00  0.00    -0.390 OA
HETATM   24  H   UNK N   1      31.816  17.235   4.737  0.00  0.00     0.210 HD
ENDBRANCH  16  23
BRANCH  17  25
HETATM   25  O   UNK N   1      34.678  18.314   7.217  0.00  0.00    -0.391 OA
HETATM   26  H   UNK N   1      35.278  18.789   6.620  0.00  0.00     0.210 HD
ENDBRANCH  17  25
ENDBRANCH   1  13
BRANCH   9  27
HETATM   27  N   UNK N   1      36.411  14.743  13.355  0.00  0.00    -0.369 N 
HETATM   28  H   UNK N   1      36.150  15.640  13.664  0.00  0.00     0.161 HD
BRANCH  27  29
HETATM   29  C   UNK N   1      36.583  13.700  14.332  0.00  0.00     0.092 A 
HETATM   30  C   UNK N   1      35.476  13.766  15.372  0.00  0.00     0.043 A 
HETATM   31  C   UNK N   1      36.848  14.338  15.683  0.00  0.00     0.037 A 
BRANCH  30  32
HETATM   32  C   UNK N   1      35.263  12.385  15.913  0.00  0.00    -0.049 A 
HETATM   33  C   UNK N   1      35.540  12.154  17.264  0.00  0.00     0.053 A 
HETATM   34  C   UNK N   1      35.306  10.898  17.827  0.00  0.00     0.155 A 
HETATM   35  C   UNK N   1      34.801   9.860  17.038  0.00  0.00     0.154 A 
HETATM   36  F   UNK N   1      35.563  10.689  19.141  0.00  0.00    -0.203 F 
HETATM   37  C   UNK N   1      34.532  10.079  15.684  0.00  0.00     0.046 A 
HETATM   38  F   UNK N   1      34.567   8.643  17.583  0.00  0.00    -0.203 F 
HETATM   39  C   UNK N   1      34.757  11.337  15.122  0.00  0.00     0.011 A 
ENDBRANCH  30  32
ENDBRANCH  27  29
ENDBRANCH   9  27
BRANCH  10  40
HETATM   40  S   UNK N   1      38.592  12.007   9.509  0.00  0.00    -0.094 SA
BRANCH  40  41
HETATM   41  C   UNK N   1      37.436  10.684   9.967  0.00  0.00     0.082 C 
BRANCH  41  42
HETATM   42  C   UNK N   1      37.861  10.069  11.290  0.00  0.00     0.006 C 
HETATM   43  C   UNK N   1      36.649   9.766  12.157  0.00  0.00     0.006 C 
ENDBRANCH  41  42
ENDBRANCH  40  41
ENDBRANCH  10  40
TORSDOF 13
ENDMDL
MODEL 8
REMARK VINA RESULT:      -7.2      2.502      3.559
REMARK  13 active torsions:
REMARK  status: ('A' for Active; 'I' for Inactive)
REMARK    1  A    between atoms: C_3  and  N_1 
REMARK    2  A    between atoms: C_9  and  O_16 
REMARK    3  A    between atoms: C_12  and  N_19 
REMARK    4  A    between atoms: C_13  and  S_22 
REMARK    5  A    between atoms: C_14  and  O_20 
REMARK    6  A    between atoms: C_15  and  O_21 
REMARK    7  A    between atoms: C_29  and  N_19 
REMARK    8  A    between atoms: O_20  and  C_25 
REMARK    9  A    between atoms: S_22  and  C_23 
REMARK   10  A    between atoms: C_23  and  C_24 
REMARK   11  A    between atoms: C_25  and  C_26 
REMARK   12  A    between atoms: C_26  and  O_27 
REMARK   13  A    between atoms: C_30  and  C_32 
ROOT
HETATM    1  N   UNK N   1      34.055  15.176   8.743  0.00  0.00    -0.251 N 
HETATM    2  C   UNK N   1      35.273  14.851   9.204  0.00  0.00     0.155 A 
HETATM    3  N   UNK N   1      33.318  15.496   9.807  0.00  0.00    -0.018 NA
HETATM    4  C   UNK N   1      35.264  14.982  10.540  0.00  0.00     0.135 A 
HETATM    5  N   UNK N   1      36.354  14.407   8.525  0.00  0.00    -0.320 N 
ATOM      6  HN  UNK N   1      36.332  14.313   7.508  1.00  0.00     0.169 HD
HETATM    7  N   UNK N   1      34.043  15.393  10.922  0.00  0.00    -0.277 N 
ATOM      8  HN  UNK N   1      33.732  15.587  11.874  1.00  0.00     0.184 HD
HETATM    9  C   UNK N   1      36.385  14.674  11.282  0.00  0.00     0.135 A 
HETATM   10  C   UNK N   1      37.478  14.087   9.235  0.00  0.00     0.147 A 
HETATM   11  N   UNK N   1      37.491  14.216  10.608  0.00  0.00    -0.321 N 
ATOM     12  HN  UNK N   1      38.332  13.970  11.129  1.00  0.00     0.169 HD
ENDROOT
BRANCH   1  13
HETATM   13  C   UNK N   1      33.531  15.149   7.372  0.00  0.00     0.142 C 
HETATM   14  C   UNK N   1      32.039  15.443   7.357  0.00  0.00     0.064 C 
HETATM   15  C   UNK N   1      31.758  16.067   5.996  0.00  0.00     0.154 C 
HETATM   16  C   UNK N   1      33.112  16.239   5.334  0.00  0.00     0.178 C 
HETATM   17  C   UNK N   1      34.097  16.230   6.470  0.00  0.00     0.174 C 
BRANCH  15  18
HETATM   18  O   UNK N   1      30.972  15.202   5.231  0.00  0.00    -0.381 OA
BRANCH  18  19
HETATM   19  C   UNK N   1      29.980  16.006   4.665  0.00  0.00     0.194 C 
BRANCH  19  20
HETATM   20  C   UNK N   1      30.066  15.943   3.150  0.00  0.00     0.190 C 
BRANCH  20  21
HETATM   21  O   UNK N   1      30.867  16.978   2.672  0.00  0.00    -0.399 OA
HETATM   22  H   UNK N   1      31.777  17.091   2.991  0.00  0.00     0.209 HD
ENDBRANCH  20  21
ENDBRANCH  19  20
ENDBRANCH  18  19
ENDBRANCH  15  18
BRANCH  16  23
HETATM   23  O   UNK N   1      33.174  17.440   4.628  0.00  0.00    -0.390 OA
HETATM   24  H   UNK N   1      32.452  18.045   4.397  0.00  0.00     0.210 HD
ENDBRANCH  16  23
BRANCH  17  25
HETATM   25  O   UNK N   1      35.362  15.889   5.989  0.00  0.00    -0.391 OA
HETATM   26  H   UNK N   1      35.859  15.089   5.757  0.00  0.00     0.210 HD
ENDBRANCH  17  25
ENDBRANCH   1  13
BRANCH   9  27
HETATM   27  N   UNK N   1      36.355  14.773  12.696  0.00  0.00    -0.369 N 
HETATM   28  H   UNK N   1      36.722  15.583  13.119  0.00  0.00     0.161 HD
BRANCH  27  29
HETATM   29  C   UNK N   1      35.814  13.741  13.540  0.00  0.00     0.092 A 
HETATM   30  C   UNK N   1      36.913  13.125  14.390  0.00  0.00     0.043 A 
HETATM   31  C   UNK N   1      36.429  12.412  13.140  0.00  0.00     0.037 A 
BRANCH  30  32
HETATM   32  C   UNK N   1      36.292  12.613  15.655  0.00  0.00    -0.049 A 
HETATM   33  C   UNK N   1      36.450  11.259  15.967  0.00  0.00     0.053 A 
HETATM   34  C   UNK N   1      35.936  10.746  17.160  0.00  0.00     0.155 A 
HETATM   35  C   UNK N   1      35.252  11.586  18.045  0.00  0.00     0.154 A 
HETATM   36  F   UNK N   1      36.108   9.437  17.461  0.00  0.00    -0.203 F 
HETATM   37  C   UNK N   1      35.080  12.937  17.735  0.00  0.00     0.046 A 
HETATM   38  F   UNK N   1      34.758  11.092  19.206  0.00  0.00    -0.203 F 
HETATM   39  C   UNK N   1      35.601  13.452  16.547  0.00  0.00     0.011 A 
ENDBRANCH  30  32
ENDBRANCH  27  29
ENDBRANCH   9  27
BRANCH  10  40
HETATM   40  S   UNK N   1      38.864  13.349   8.371  0.00  0.00    -0.094 SA
BRANCH  40  41
HETATM   41  C   UNK N   1      37.899  12.705   6.974  0.00  0.00     0.082 C 
BRANCH  41  42
HETATM   42  C   UNK N   1      38.419  13.301   5.676  0.00  0.00     0.006 C 
HETATM   43  C   UNK N   1      39.440  14.392   5.955  0.00  0.00     0.006 C 
ENDBRANCH  41  42
ENDBRANCH  40  41
ENDBRANCH  10  40
TORSDOF 13
ENDMDL
MODEL 9
REMARK VINA RESULT:      -7.2      2.518      3.490
REMARK  13 active torsions:
REMARK  status: ('A' for Active; 'I' for Inactive)
REMARK    1  A    between atoms: C_3  and  N_1 
REMARK    2  A    between atoms: C_9  and  O_16 
REMARK    3  A    between atoms: C_12  and  N_19 
REMARK    4  A    between atoms: C_13  and  S_22 
REMARK    5  A    between atoms: C_14  and  O_20 
REMARK    6  A    between atoms: C_15  and  O_21 
REMARK    7  A    between atoms: C_29  and  N_19 
REMARK    8  A    between atoms: O_20  and  C_25 
REMARK    9  A    between atoms: S_22  and  C_23 
REMARK   10  A    between atoms: C_23  and  C_24 
REMARK   11  A    between atoms: C_25  and  C_26 
REMARK   12  A    between atoms: C_26  and  O_27 
REMARK   13  A    between atoms: C_30  and  C_32 
ROOT
HETATM    1  N   UNK N   1      33.324  16.026   7.891  0.00  0.00    -0.251 N 
HETATM    2  C   UNK N   1      34.483  15.382   8.092  0.00  0.00     0.155 A 
HETATM    3  N   UNK N   1      33.045  16.671   9.024  0.00  0.00    -0.018 NA
HETATM    4  C   UNK N   1      34.899  15.646   9.341  0.00  0.00     0.135 A 
HETATM    5  N   UNK N   1      35.155  14.551   7.263  0.00  0.00    -0.320 N 
ATOM      6  HN  UNK N   1      34.815  14.365   6.319  1.00  0.00     0.169 HD
HETATM    7  N   UNK N   1      34.003  16.460   9.926  0.00  0.00    -0.277 N 
ATOM      8  HN  UNK N   1      34.048  16.839  10.872  1.00  0.00     0.184 HD
HETATM    9  C   UNK N   1      36.056  15.077   9.830  0.00  0.00     0.135 A 
HETATM   10  C   UNK N   1      36.304  13.967   7.724  0.00  0.00     0.147 A 
HETATM   11  N   UNK N   1      36.748  14.227   9.003  0.00  0.00    -0.321 N 
ATOM     12  HN  UNK N   1      37.602  13.781   9.339  1.00  0.00     0.169 HD
ENDROOT
BRANCH   1  13
HETATM   13  C   UNK N   1      32.439  16.026   6.720  0.00  0.00     0.142 C 
HETATM   14  C   UNK N   1      31.096  16.654   7.055  0.00  0.00     0.064 C 
HETATM   15  C   UNK N   1      30.573  17.229   5.744  0.00  0.00     0.154 C 
HETATM   16  C   UNK N   1      31.691  17.038   4.736  0.00  0.00     0.178 C 
HETATM   17  C   UNK N   1      32.934  16.881   5.567  0.00  0.00     0.174 C 
BRANCH  15  18
HETATM   18  O   UNK N   1      29.445  16.518   5.331  0.00  0.00    -0.381 OA
BRANCH  18  19
HETATM   19  C   UNK N   1      28.554  17.483   4.855  0.00  0.00     0.194 C 
BRANCH  19  20
HETATM   20  C   UNK N   1      28.062  18.344   6.005  0.00  0.00     0.190 C 
BRANCH  20  21
HETATM   21  O   UNK N   1      26.668  18.340   6.043  0.00  0.00    -0.399 OA
HETATM   22  H   UNK N   1      26.149  18.232   5.230  0.00  0.00     0.209 HD
ENDBRANCH  20  21
ENDBRANCH  19  20
ENDBRANCH  18  19
ENDBRANCH  15  18
BRANCH  16  23
HETATM   23  O   UNK N   1      31.792  18.140   3.887  0.00  0.00    -0.390 OA
HETATM   24  H   UNK N   1      31.861  19.079   4.120  0.00  0.00     0.210 HD
ENDBRANCH  16  23
BRANCH  17  25
HETATM   25  O   UNK N   1      33.914  16.225   4.822  0.00  0.00    -0.391 OA
HETATM   26  H   UNK N   1      34.196  15.316   4.634  0.00  0.00     0.210 HD
ENDBRANCH  17  25
ENDBRANCH   1  13
BRANCH   9  27
HETATM   27  N   UNK N   1      36.466  15.325  11.165  0.00  0.00    -0.369 N 
HETATM   28  H   UNK N   1      37.272  15.871  11.316  0.00  0.00     0.161 HD
BRANCH  27  29
HETATM   29  C   UNK N   1      35.756  14.815  12.307  0.00  0.00     0.092 A 
HETATM   30  C   UNK N   1      36.577  13.740  13.000  0.00  0.00     0.043 A 
HETATM   31  C   UNK N   1      35.442  13.349  12.070  0.00  0.00     0.037 A 
BRANCH  30  32
HETATM   32  C   UNK N   1      36.200  13.728  14.451  0.00  0.00    -0.049 A 
HETATM   33  C   UNK N   1      36.865  14.604  15.314  0.00  0.00     0.053 A 
HETATM   34  C   UNK N   1      36.512  14.667  16.664  0.00  0.00     0.155 A 
HETATM   35  C   UNK N   1      35.495  13.846  17.160  0.00  0.00     0.154 A 
HETATM   36  F   UNK N   1      37.152  15.530  17.488  0.00  0.00    -0.203 F 
HETATM   37  C   UNK N   1      34.833  12.960  16.306  0.00  0.00     0.046 A 
HETATM   38  F   UNK N   1      35.146  13.910  18.467  0.00  0.00    -0.203 F 
HETATM   39  C   UNK N   1      35.179  12.902  14.956  0.00  0.00     0.011 A 
ENDBRANCH  30  32
ENDBRANCH  27  29
ENDBRANCH   9  27
BRANCH  10  40
HETATM   40  S   UNK N   1      37.119  12.744   6.699  0.00  0.00    -0.094 SA
BRANCH  40  41
HETATM   41  C   UNK N   1      38.815  13.264   7.091  0.00  0.00     0.082 C 
BRANCH  41  42
HETATM   42  C   UNK N   1      39.611  12.073   7.597  0.00  0.00     0.006 C 
HETATM   43  C   UNK N   1      39.769  12.134   9.108  0.00  0.00     0.006 C 
ENDBRANCH  41  42
ENDBRANCH  40  41
ENDBRANCH  10  40
TORSDOF 13
ENDMDL
