MODEL 1
REMARK VINA RESULT:      -6.2      0.000      0.000
REMARK  1 active torsions:
REMARK  status: ('A' for Active; 'I' for Inactive)
REMARK    1  A    between atoms: C_16  and  C_10 
ROOT
HETATM    1  O   UNK N   1      32.241  14.676   9.182  0.00  0.00    -0.271 OA
HETATM    2  O   UNK N   1      34.148  18.208   6.716  0.00  0.00    -0.271 OA
HETATM    3  O   UNK N   1      35.932  16.825  10.534  0.00  0.00    -0.246 OA
HETATM    4  N   UNK N   1      34.071  15.747   9.897  0.00  0.00    -0.273 N 
HETATM    5  N   UNK N   1      35.005  17.528   8.644  0.00  0.00    -0.277 N 
HETATM    6  C   UNK N   1      33.059  15.569   8.996  0.00  0.00     0.249 A 
HETATM    7  C   UNK N   1      34.067  17.450   7.671  0.00  0.00     0.247 A 
HETATM    8  C   UNK N   1      35.028  16.704   9.721  0.00  0.00     0.331 A 
HETATM    9  C   UNK N   1      34.148  14.880  11.056  0.00  0.00     0.164 C 
HETATM   10  C   UNK N   1      32.949  16.415   7.728  0.00  0.00     0.142 A 
HETATM   11  C   UNK N   1      33.141  15.474   6.546  0.00  0.00     0.041 C 
HETATM   12  H   UNK N   1      35.704  18.216   8.566  0.00  0.00     0.173 HD
ENDROOT
BRANCH  10  13
HETATM   13  C   UNK N   1      31.544  17.027   7.580  0.00  0.00    -0.057 C 
HETATM   14  C   UNK N   1      30.688  16.602   6.625  0.00  0.00    -0.022 C 
HETATM   15  C   UNK N   1      29.231  17.010   6.568  0.00  0.00     0.027 C 
HETATM   16  C   UNK N   1      28.770  17.925   7.713  0.00  0.00     0.004 C 
HETATM   17  C   UNK N   1      29.594  17.722   8.976  0.00  0.00     0.005 C 
HETATM   18  C   UNK N   1      31.046  17.994   8.632  0.00  0.00     0.036 C 
ENDBRANCH  10  13
TORSDOF 1
ENDMDL
MODEL 2
REMARK VINA RESULT:      -6.1      5.445      9.274
REMARK  1 active torsions:
REMARK  status: ('A' for Active; 'I' for Inactive)
REMARK    1  A    between atoms: C_16  and  C_10 
ROOT
HETATM    1  O   UNK N   1      34.371  11.953  13.500  0.00  0.00    -0.271 OA
HETATM    2  O   UNK N   1      37.457  14.607  15.872  0.00  0.00    -0.271 OA
HETATM    3  O   UNK N   1      36.138  15.693  11.780  0.00  0.00    -0.246 OA
HETATM    4  N   UNK N   1      35.256  13.803  12.603  0.00  0.00    -0.273 N 
HETATM    5  N   UNK N   1      36.814  15.114  13.812  0.00  0.00    -0.277 N 
HETATM    6  C   UNK N   1      35.141  12.899  13.621  0.00  0.00     0.249 A 
HETATM    7  C   UNK N   1      36.784  14.306  14.897  0.00  0.00     0.247 A 
HETATM    8  C   UNK N   1      36.073  14.892  12.700  0.00  0.00     0.331 A 
HETATM    9  C   UNK N   1      34.471  13.616  11.399  0.00  0.00     0.164 C 
HETATM   10  C   UNK N   1      35.902  13.063  14.936  0.00  0.00     0.142 A 
HETATM   11  C   UNK N   1      34.864  13.278  16.029  0.00  0.00     0.041 C 
HETATM   12  H   UNK N   1      37.403  15.903  13.832  0.00  0.00     0.173 HD
ENDROOT
BRANCH  10  13
HETATM   13  C   UNK N   1      36.671  11.782  15.306  0.00  0.00    -0.057 C 
HETATM   14  C   UNK N   1      36.244  10.964  16.294  0.00  0.00    -0.022 C 
HETATM   15  C   UNK N   1      36.831   9.593  16.556  0.00  0.00     0.027 C 
HETATM   16  C   UNK N   1      37.939   9.167  15.580  0.00  0.00     0.004 C 
HETATM   17  C   UNK N   1      37.792   9.833  14.219  0.00  0.00     0.005 C 
HETATM   18  C   UNK N   1      37.822  11.334  14.432  0.00  0.00     0.036 C 
ENDBRANCH  10  13
TORSDOF 1
ENDMDL
MODEL 3
REMARK VINA RESULT:      -5.9     16.523     18.514
REMARK  1 active torsions:
REMARK  status: ('A' for Active; 'I' for Inactive)
REMARK    1  A    between atoms: C_16  and  C_10 
ROOT
HETATM    1  O   UNK N   1      28.501  26.251  -3.913  0.00  0.00    -0.271 OA
HETATM    2  O   UNK N   1      24.303  27.334  -5.756  0.00  0.00    -0.271 OA
HETATM    3  O   UNK N   1      25.951  23.225  -6.012  0.00  0.00    -0.246 OA
HETATM    4  N   UNK N   1      27.262  24.723  -4.979  0.00  0.00    -0.273 N 
HETATM    5  N   UNK N   1      25.159  25.295  -5.906  0.00  0.00    -0.277 N 
HETATM    6  C   UNK N   1      27.477  25.997  -4.534  0.00  0.00     0.249 A 
HETATM    7  C   UNK N   1      25.239  26.587  -5.512  0.00  0.00     0.247 A 
HETATM    8  C   UNK N   1      26.123  24.378  -5.646  0.00  0.00     0.331 A 
HETATM    9  C   UNK N   1      28.257  23.703  -4.710  0.00  0.00     0.164 C 
HETATM   10  C   UNK N   1      26.447  27.107  -4.740  0.00  0.00     0.142 A 
HETATM   11  C   UNK N   1      25.958  27.523  -3.359  0.00  0.00     0.041 C 
HETATM   12  H   UNK N   1      24.361  25.007  -6.406  0.00  0.00     0.173 HD
ENDROOT
BRANCH  10  13
HETATM   13  C   UNK N   1      27.084  28.356  -5.376  0.00  0.00    -0.057 C 
HETATM   14  C   UNK N   1      27.283  29.486  -4.662  0.00  0.00    -0.022 C 
HETATM   15  C   UNK N   1      28.093  30.661  -5.168  0.00  0.00     0.027 C 
HETATM   16  C   UNK N   1      28.722  30.464  -6.556  0.00  0.00     0.004 C 
HETATM   17  C   UNK N   1      28.984  28.997  -6.864  0.00  0.00     0.005 C 
HETATM   18  C   UNK N   1      27.662  28.260  -6.771  0.00  0.00     0.036 C 
ENDBRANCH  10  13
TORSDOF 1
ENDMDL
MODEL 4
REMARK VINA RESULT:      -5.8     13.313     15.236
REMARK  1 active torsions:
REMARK  status: ('A' for Active; 'I' for Inactive)
REMARK    1  A    between atoms: C_16  and  C_10 
ROOT
HETATM    1  O   UNK N   1      29.407  22.885  -6.052  0.00  0.00    -0.271 OA
HETATM    2  O   UNK N   1      30.523  22.904  -1.475  0.00  0.00    -0.271 OA
HETATM    3  O   UNK N   1      26.549  24.270  -2.892  0.00  0.00    -0.246 OA
HETATM    4  N   UNK N   1      27.966  23.607  -4.499  0.00  0.00    -0.273 N 
HETATM    5  N   UNK N   1      28.556  23.617  -2.205  0.00  0.00    -0.277 N 
HETATM    6  C   UNK N   1      29.186  23.114  -4.869  0.00  0.00     0.249 A 
HETATM    7  C   UNK N   1      29.793  23.118  -2.431  0.00  0.00     0.247 A 
HETATM    8  C   UNK N   1      27.656  23.848  -3.192  0.00  0.00     0.331 A 
HETATM    9  C   UNK N   1      26.965  23.856  -5.518  0.00  0.00     0.164 C 
HETATM   10  C   UNK N   1      30.268  22.784  -3.841  0.00  0.00     0.142 A 
HETATM   11  C   UNK N   1      30.493  21.279  -3.899  0.00  0.00     0.041 C 
HETATM   12  H   UNK N   1      28.296  23.822  -1.278  0.00  0.00     0.173 HD
ENDROOT
BRANCH  10  13
HETATM   13  C   UNK N   1      31.610  23.444  -4.205  0.00  0.00    -0.057 C 
HETATM   14  C   UNK N   1      32.661  22.712  -4.637  0.00  0.00    -0.022 C 
HETATM   15  C   UNK N   1      33.924  23.322  -5.209  0.00  0.00     0.027 C 
HETATM   16  C   UNK N   1      33.916  24.855  -5.305  0.00  0.00     0.004 C 
HETATM   17  C   UNK N   1      32.508  25.414  -5.449  0.00  0.00     0.005 C 
HETATM   18  C   UNK N   1      31.701  24.954  -4.250  0.00  0.00     0.036 C 
ENDBRANCH  10  13
TORSDOF 1
ENDMDL
MODEL 5
REMARK VINA RESULT:      -5.6     17.320     19.322
REMARK  1 active torsions:
REMARK  status: ('A' for Active; 'I' for Inactive)
REMARK    1  A    between atoms: C_16  and  C_10 
ROOT
HETATM    1  O   UNK N   1      27.779  26.519  -7.847  0.00  0.00    -0.271 OA
HETATM    2  O   UNK N   1      25.139  22.922  -6.335  0.00  0.00    -0.271 OA
HETATM    3  O   UNK N   1      24.975  24.301 -10.546  0.00  0.00    -0.246 OA
HETATM    4  N   UNK N   1      26.368  25.447  -9.214  0.00  0.00    -0.273 N 
HETATM    5  N   UNK N   1      25.043  23.648  -8.427  0.00  0.00    -0.277 N 
HETATM    6  C   UNK N   1      26.933  25.644  -7.985  0.00  0.00     0.249 A 
HETATM    7  C   UNK N   1      25.531  23.727  -7.167  0.00  0.00     0.247 A 
HETATM    8  C   UNK N   1      25.446  24.465  -9.431  0.00  0.00     0.331 A 
HETATM    9  C   UNK N   1      26.779  26.285 -10.323  0.00  0.00     0.164 C 
HETATM   10  C   UNK N   1      26.581  24.764  -6.786  0.00  0.00     0.142 A 
HETATM   11  C   UNK N   1      27.846  24.009  -6.401  0.00  0.00     0.041 C 
HETATM   12  H   UNK N   1      24.363  22.965  -8.624  0.00  0.00     0.173 HD
ENDROOT
BRANCH  10  13
HETATM   13  C   UNK N   1      26.185  25.611  -5.563  0.00  0.00    -0.057 C 
HETATM   14  C   UNK N   1      26.885  25.551  -4.408  0.00  0.00    -0.022 C 
HETATM   15  C   UNK N   1      26.676  26.510  -3.255  0.00  0.00     0.027 C 
HETATM   16  C   UNK N   1      25.625  27.603  -3.504  0.00  0.00     0.004 C 
HETATM   17  C   UNK N   1      25.483  27.936  -4.981  0.00  0.00     0.005 C 
HETATM   18  C   UNK N   1      25.106  26.661  -5.711  0.00  0.00     0.036 C 
ENDBRANCH  10  13
TORSDOF 1
ENDMDL
MODEL 6
REMARK VINA RESULT:      -5.6      2.439      2.861
REMARK  1 active torsions:
REMARK  status: ('A' for Active; 'I' for Inactive)
REMARK    1  A    between atoms: C_16  and  C_10 
ROOT
HETATM    1  O   UNK N   1      31.874  14.153   7.741  0.00  0.00    -0.271 OA
HETATM    2  O   UNK N   1      31.947  17.743   4.690  0.00  0.00    -0.271 OA
HETATM    3  O   UNK N   1      35.665  15.631   5.866  0.00  0.00    -0.246 OA
HETATM    4  N   UNK N   1      33.788  14.885   6.841  0.00  0.00    -0.273 N 
HETATM    5  N   UNK N   1      33.799  16.699   5.318  0.00  0.00    -0.277 N 
HETATM    6  C   UNK N   1      32.434  14.958   7.006  0.00  0.00     0.249 A 
HETATM    7  C   UNK N   1      32.459  16.872   5.380  0.00  0.00     0.247 A 
HETATM    8  C   UNK N   1      34.456  15.735   6.009  0.00  0.00     0.331 A 
HETATM    9  C   UNK N   1      34.532  13.861   7.547  0.00  0.00     0.164 C 
HETATM   10  C   UNK N   1      31.583  15.982   6.255  0.00  0.00     0.142 A 
HETATM   11  C   UNK N   1      30.661  15.201   5.328  0.00  0.00     0.041 C 
HETATM   12  H   UNK N   1      34.323  17.302   4.742  0.00  0.00     0.173 HD
ENDROOT
BRANCH  10  13
HETATM   13  C   UNK N   1      30.676  16.773   7.214  0.00  0.00    -0.057 C 
HETATM   14  C   UNK N   1      31.191  17.528   8.210  0.00  0.00    -0.022 C 
HETATM   15  C   UNK N   1      30.367  18.489   9.041  0.00  0.00     0.027 C 
HETATM   16  C   UNK N   1      28.886  18.583   8.643  0.00  0.00     0.004 C 
HETATM   17  C   UNK N   1      28.665  18.253   7.174  0.00  0.00     0.005 C 
HETATM   18  C   UNK N   1      29.192  16.852   6.928  0.00  0.00     0.036 C 
ENDBRANCH  10  13
TORSDOF 1
ENDMDL
MODEL 7
REMARK VINA RESULT:      -5.6     14.747     16.810
REMARK  1 active torsions:
REMARK  status: ('A' for Active; 'I' for Inactive)
REMARK    1  A    between atoms: C_16  and  C_10 
ROOT
HETATM    1  O   UNK N   1      28.139  26.276  -6.578  0.00  0.00    -0.271 OA
HETATM    2  O   UNK N   1      26.725  23.943  -2.737  0.00  0.00    -0.271 OA
HETATM    3  O   UNK N   1      25.915  28.274  -3.241  0.00  0.00    -0.246 OA
HETATM    4  N   UNK N   1      27.052  27.308  -4.916  0.00  0.00    -0.273 N 
HETATM    5  N   UNK N   1      26.362  26.115  -2.990  0.00  0.00    -0.277 N 
HETATM    6  C   UNK N   1      27.619  26.196  -5.471  0.00  0.00     0.249 A 
HETATM    7  C   UNK N   1      26.869  24.940  -3.429  0.00  0.00     0.247 A 
HETATM    8  C   UNK N   1      26.431  27.267  -3.702  0.00  0.00     0.331 A 
HETATM    9  C   UNK N   1      27.087  28.560  -5.646  0.00  0.00     0.164 C 
HETATM   10  C   UNK N   1      27.574  24.835  -4.777  0.00  0.00     0.142 A 
HETATM   11  C   UNK N   1      26.738  23.914  -5.655  0.00  0.00     0.041 C 
HETATM   12  H   UNK N   1      25.920  26.135  -2.110  0.00  0.00     0.173 HD
ENDROOT
BRANCH  10  13
HETATM   13  C   UNK N   1      28.974  24.203  -4.685  0.00  0.00    -0.057 C 
HETATM   14  C   UNK N   1      29.917  24.696  -3.851  0.00  0.00    -0.022 C 
HETATM   15  C   UNK N   1      31.226  23.993  -3.561  0.00  0.00     0.027 C 
HETATM   16  C   UNK N   1      31.400  22.636  -4.260  0.00  0.00     0.004 C 
HETATM   17  C   UNK N   1      30.066  21.962  -4.543  0.00  0.00     0.005 C 
HETATM   18  C   UNK N   1      29.245  22.901  -5.406  0.00  0.00     0.036 C 
ENDBRANCH  10  13
TORSDOF 1
ENDMDL
MODEL 8
REMARK VINA RESULT:      -5.5     16.132     17.410
REMARK  1 active torsions:
REMARK  status: ('A' for Active; 'I' for Inactive)
REMARK    1  A    between atoms: C_16  and  C_10 
ROOT
HETATM    1  O   UNK N   1      30.021  27.642  -4.871  0.00  0.00    -0.271 OA
HETATM    2  O   UNK N   1      25.766  28.900  -3.288  0.00  0.00    -0.271 OA
HETATM    3  O   UNK N   1      29.449  29.798  -0.986  0.00  0.00    -0.246 OA
HETATM    4  N   UNK N   1      29.766  28.696  -2.913  0.00  0.00    -0.273 N 
HETATM    5  N   UNK N   1      27.614  29.308  -2.134  0.00  0.00    -0.277 N 
HETATM    6  C   UNK N   1      29.256  28.127  -4.046  0.00  0.00     0.249 A 
HETATM    7  C   UNK N   1      26.982  28.794  -3.214  0.00  0.00     0.247 A 
HETATM    8  C   UNK N   1      28.961  29.280  -1.979  0.00  0.00     0.331 A 
HETATM    9  C   UNK N   1      31.201  28.704  -2.710  0.00  0.00     0.164 C 
HETATM   10  C   UNK N   1      27.757  28.128  -4.346  0.00  0.00     0.142 A 
HETATM   11  C   UNK N   1      27.553  28.975  -5.595  0.00  0.00     0.041 C 
HETATM   12  H   UNK N   1      27.070  29.724  -1.427  0.00  0.00     0.173 HD
ENDROOT
BRANCH  10  13
HETATM   13  C   UNK N   1      27.250  26.715  -4.684  0.00  0.00    -0.057 C 
HETATM   14  C   UNK N   1      27.241  25.729  -3.759  0.00  0.00    -0.022 C 
HETATM   15  C   UNK N   1      26.559  24.394  -3.969  0.00  0.00     0.027 C 
HETATM   16  C   UNK N   1      25.830  24.244  -5.313  0.00  0.00     0.004 C 
HETATM   17  C   UNK N   1      25.363  25.583  -5.864  0.00  0.00     0.005 C 
HETATM   18  C   UNK N   1      26.582  26.471  -6.020  0.00  0.00     0.036 C 
ENDBRANCH  10  13
TORSDOF 1
ENDMDL
MODEL 9
REMARK VINA RESULT:      -5.4     21.435     23.129
REMARK  1 active torsions:
REMARK  status: ('A' for Active; 'I' for Inactive)
REMARK    1  A    between atoms: C_16  and  C_10 
ROOT
HETATM    1  O   UNK N   1      52.894  25.788  14.555  0.00  0.00    -0.271 OA
HETATM    2  O   UNK N   1      54.597  26.619  10.241  0.00  0.00    -0.271 OA
HETATM    3  O   UNK N   1      51.690  29.371  12.150  0.00  0.00    -0.246 OA
HETATM    4  N   UNK N   1      52.253  27.574  13.368  0.00  0.00    -0.273 N 
HETATM    5  N   UNK N   1      53.116  27.964  11.196  0.00  0.00    -0.277 N 
HETATM    6  C   UNK N   1      52.972  26.420  13.508  0.00  0.00     0.249 A 
HETATM    7  C   UNK N   1      53.888  26.853  11.209  0.00  0.00     0.247 A 
HETATM    8  C   UNK N   1      52.329  28.333  12.236  0.00  0.00     0.331 A 
HETATM    9  C   UNK N   1      51.410  28.019  14.459  0.00  0.00     0.164 C 
HETATM   10  C   UNK N   1      53.917  25.921  12.416  0.00  0.00     0.142 A 
HETATM   11  C   UNK N   1      55.327  25.968  12.991  0.00  0.00     0.041 C 
HETATM   12  H   UNK N   1      53.127  28.532  10.393  0.00  0.00     0.173 HD
ENDROOT
BRANCH  10  13
HETATM   13  C   UNK N   1      53.638  24.450  12.058  0.00  0.00    -0.057 C 
HETATM   14  C   UNK N   1      54.578  23.493  12.223  0.00  0.00    -0.022 C 
HETATM   15  C   UNK N   1      54.293  22.012  12.093  0.00  0.00     0.027 C 
HETATM   16  C   UNK N   1      52.828  21.658  11.795  0.00  0.00     0.004 C 
HETATM   17  C   UNK N   1      51.865  22.711  12.323  0.00  0.00     0.005 C 
HETATM   18  C   UNK N   1      52.231  24.037  11.683  0.00  0.00     0.036 C 
ENDBRANCH  10  13
TORSDOF 1
ENDMDL
