REMARK  2 active torsions:
REMARK  status: ('A' for Active; 'I' for Inactive)
REMARK    1  A    between atoms: C_3  and  C_1 
REMARK    2  A    between atoms: O_7  and  C_3 
ROOT
HETATM    1  N   UNK N   1       3.614  -1.139  -0.000  0.00  0.00    -0.084 N 
HETATM    2  H   UNK N   1       4.634  -1.139  -0.000  0.00  0.00     0.271 HD
HETATM    3  H   UNK N   1       3.104  -0.255  -0.000  0.00  0.00     0.271 HD
HETATM    4  H   UNK N   1       3.104  -2.022  -0.000  0.00  0.00     0.271 HD
HETATM    5  H   UNK N   1       2.594  -1.139  -0.000  0.00  0.00     0.271 HD
ENDROOT
TORSDOF 2
