MODEL 1
REMARK VINA RESULT:      -2.9      0.000      0.000
REMARK  1 active torsions:
REMARK  status: ('A' for Active; 'I' for Inactive)
REMARK    1  A    between atoms: C_1  and  O_4 
ROOT
HETATM    1  C   UNK N   1      23.720  12.100  12.301  0.00  0.00     0.135 C 
HETATM    2  C   UNK N   1      22.522  12.019  11.421  0.00  0.00     0.125 C 
HETATM    3  O   UNK N   1      23.594  12.045  13.514  0.00  0.00    -0.650 OA
ENDROOT
BRANCH   1   4
HETATM    4  O   UNK N   1      24.943  12.234  11.757  0.00  0.00    -0.777 OA
HETATM    5  H   UNK N   1      25.569  12.809  12.149  0.00  0.00     0.167 HD
ENDBRANCH   1   4
TORSDOF 1
ENDMDL
MODEL 2
REMARK VINA RESULT:      -2.9     12.634     13.026
REMARK  1 active torsions:
REMARK  status: ('A' for Active; 'I' for Inactive)
REMARK    1  A    between atoms: C_1  and  O_4 
ROOT
HETATM    1  C   UNK N   1      34.263  18.290   7.826  0.00  0.00     0.135 C 
HETATM    2  C   UNK N   1      33.037  17.805   8.520  0.00  0.00     0.125 C 
HETATM    3  O   UNK N   1      35.013  19.075   8.383  0.00  0.00    -0.650 OA
ENDROOT
BRANCH   1   4
HETATM    4  O   UNK N   1      34.542  17.860   6.582  0.00  0.00    -0.777 OA
HETATM    5  H   UNK N   1      34.198  17.042   6.281  0.00  0.00     0.167 HD
ENDBRANCH   1   4
TORSDOF 1
ENDMDL
MODEL 3
REMARK VINA RESULT:      -2.9     14.320     14.853
REMARK  1 active torsions:
REMARK  status: ('A' for Active; 'I' for Inactive)
REMARK    1  A    between atoms: C_1  and  O_4 
ROOT
HETATM    1  C   UNK N   1      20.774  21.179   0.985  0.00  0.00     0.135 C 
HETATM    2  C   UNK N   1      20.752  20.536   2.328  0.00  0.00     0.125 C 
HETATM    3  O   UNK N   1      21.119  20.538   0.005  0.00  0.00    -0.650 OA
ENDROOT
BRANCH   1   4
HETATM    4  O   UNK N   1      20.414  22.468   0.853  0.00  0.00    -0.777 OA
HETATM    5  H   UNK N   1      19.568  22.749   1.140  0.00  0.00     0.167 HD
ENDBRANCH   1   4
TORSDOF 1
ENDMDL
MODEL 4
REMARK VINA RESULT:      -2.7     19.284     19.404
REMARK  1 active torsions:
REMARK  status: ('A' for Active; 'I' for Inactive)
REMARK    1  A    between atoms: C_1  and  O_4 
ROOT
HETATM    1  C   UNK N   1      31.173  22.114  -2.544  0.00  0.00     0.135 C 
HETATM    2  C   UNK N   1      30.438  21.799  -3.800  0.00  0.00     0.125 C 
HETATM    3  O   UNK N   1      30.769  22.994  -1.801  0.00  0.00    -0.650 OA
ENDROOT
BRANCH   1   4
HETATM    4  O   UNK N   1      32.285  21.425  -2.227  0.00  0.00    -0.777 OA
HETATM    5  H   UNK N   1      32.477  20.621  -2.666  0.00  0.00     0.167 HD
ENDBRANCH   1   4
TORSDOF 1
ENDMDL
MODEL 5
REMARK VINA RESULT:      -2.6     23.738     24.343
REMARK  1 active torsions:
REMARK  status: ('A' for Active; 'I' for Inactive)
REMARK    1  A    between atoms: C_1  and  O_4 
ROOT
HETATM    1  C   UNK N   1      44.469  22.021   4.362  0.00  0.00     0.135 C 
HETATM    2  C   UNK N   1      43.750  21.037   3.507  0.00  0.00     0.125 C 
HETATM    3  O   UNK N   1      43.867  22.638   5.225  0.00  0.00    -0.650 OA
ENDROOT
BRANCH   1   4
HETATM    4  O   UNK N   1      45.786  22.229   4.180  0.00  0.00    -0.777 OA
HETATM    5  H   UNK N   1      46.388  21.516   4.258  0.00  0.00     0.167 HD
ENDBRANCH   1   4
TORSDOF 1
ENDMDL
MODEL 6
REMARK VINA RESULT:      -2.5      8.401      9.035
REMARK  1 active torsions:
REMARK  status: ('A' for Active; 'I' for Inactive)
REMARK    1  A    between atoms: C_1  and  O_4 
ROOT
HETATM    1  C   UNK N   1      28.506  18.558   8.856  0.00  0.00     0.135 C 
HETATM    2  C   UNK N   1      29.778  18.623   9.626  0.00  0.00     0.125 C 
HETATM    3  O   UNK N   1      28.455  19.000   7.719  0.00  0.00    -0.650 OA
ENDROOT
BRANCH   1   4
HETATM    4  O   UNK N   1      27.411  18.013   9.415  0.00  0.00    -0.777 OA
HETATM    5  H   UNK N   1      26.762  18.562   9.807  0.00  0.00     0.167 HD
ENDBRANCH   1   4
TORSDOF 1
ENDMDL
MODEL 7
REMARK VINA RESULT:      -2.5      8.017      8.290
REMARK  1 active torsions:
REMARK  status: ('A' for Active; 'I' for Inactive)
REMARK    1  A    between atoms: C_1  and  O_4 
ROOT
HETATM    1  C   UNK N   1      19.339  18.308   9.384  0.00  0.00     0.135 C 
HETATM    2  C   UNK N   1      19.938  17.203   8.585  0.00  0.00     0.125 C 
HETATM    3  O   UNK N   1      20.038  19.227   9.778  0.00  0.00    -0.650 OA
ENDROOT
BRANCH   1   4
HETATM    4  O   UNK N   1      18.025  18.291   9.670  0.00  0.00    -0.777 OA
HETATM    5  H   UNK N   1      17.401  18.557   9.023  0.00  0.00     0.167 HD
ENDBRANCH   1   4
TORSDOF 1
ENDMDL
MODEL 8
REMARK VINA RESULT:      -2.4     29.433     29.948
REMARK  1 active torsions:
REMARK  status: ('A' for Active; 'I' for Inactive)
REMARK    1  A    between atoms: C_1  and  O_4 
ROOT
HETATM    1  C   UNK N   1      51.536  22.883  12.224  0.00  0.00     0.135 C 
HETATM    2  C   UNK N   1      52.794  22.146  11.926  0.00  0.00     0.125 C 
HETATM    3  O   UNK N   1      50.730  22.424  13.018  0.00  0.00    -0.650 OA
ENDROOT
BRANCH   1   4
HETATM    4  O   UNK N   1      51.287  24.058  11.618  0.00  0.00    -0.777 OA
HETATM    5  H   UNK N   1      50.452  24.470  11.719  0.00  0.00     0.167 HD
ENDBRANCH   1   4
TORSDOF 1
ENDMDL
MODEL 9
REMARK VINA RESULT:      -2.4     22.781     23.229
REMARK  1 active torsions:
REMARK  status: ('A' for Active; 'I' for Inactive)
REMARK    1  A    between atoms: C_1  and  O_4 
ROOT
HETATM    1  C   UNK N   1      25.858  28.567  -3.877  0.00  0.00     0.135 C 
HETATM    2  C   UNK N   1      26.177  28.017  -5.224  0.00  0.00     0.125 C 
HETATM    3  O   UNK N   1      25.479  27.823  -2.986  0.00  0.00    -0.650 OA
ENDROOT
BRANCH   1   4
HETATM    4  O   UNK N   1      25.988  29.885  -3.643  0.00  0.00    -0.777 OA
HETATM    5  H   UNK N   1      26.507  30.183  -2.923  0.00  0.00     0.167 HD
ENDBRANCH   1   4
TORSDOF 1
ENDMDL
