REMARK  1 active torsions:
REMARK  status: ('A' for Active; 'I' for Inactive)
REMARK    1  A    between atoms: C_3  and  O_4 
ROOT
HETATM    1  C   UNK N   1       2.164  -0.655   0.747  0.00  0.00     0.016 C 
HETATM    2  C   UNK N   1       3.694  -0.553   0.875  0.00  0.00     0.033 C 
HETATM    3  C   UNK N   1       4.152   0.898   0.699  0.00  0.00     0.122 C 
HETATM    4  C   UNK N   1       3.695   1.447  -0.657  0.00  0.00     0.066 C 
HETATM    5  C   UNK N   1       2.213   1.253  -0.774  0.00  0.00    -0.072 C 
HETATM    6  C   UNK N   1       1.427   2.338  -0.833  0.00  0.00    -0.023 C 
HETATM    7  C   UNK N   1      -0.070   2.266  -0.796  0.00  0.00     0.033 C 
HETATM    8  C   UNK N   1      -0.594   0.973  -0.158  0.00  0.00    -0.001 C 
HETATM    9  C   UNK N   1       0.116  -0.246  -0.770  0.00  0.00     0.003 C 
HETATM   10  C   UNK N   1       1.670  -0.164  -0.631  0.00  0.00    -0.017 C 
HETATM   11  C   UNK N   1      -0.415  -1.570  -0.146  0.00  0.00     0.007 C 
HETATM   12  C   UNK N   1      -1.819  -1.464   0.486  0.00  0.00     0.018 C 
HETATM   13  C   UNK N   1      -2.709  -0.539  -0.337  0.00  0.00     0.021 C 
HETATM   14  C   UNK N   1      -2.126   0.890  -0.405  0.00  0.00     0.006 C 
HETATM   15  C   UNK N   1      -2.898   1.724   0.622  0.00  0.00     0.013 C 
HETATM   16  C   UNK N   1      -4.276   1.086   0.739  0.00  0.00     0.079 C 
HETATM   17  C   UNK N   1      -4.031  -0.310   0.300  0.00  0.00     0.135 C 
HETATM   18  O   UNK N   1      -4.850  -1.199   0.472  0.00  0.00    -0.297 OA
HETATM   19  C   UNK N   1      -2.897  -1.138  -1.733  0.00  0.00     0.024 C 
HETATM   20  C   UNK N   1       2.277  -1.062  -1.711  0.00  0.00     0.020 C 
ENDROOT
BRANCH   3  21
HETATM   21  O   UNK N   1       5.542   0.961   0.779  0.00  0.00    -0.395 OA
HETATM   22  H   UNK N   1       6.063   0.145   0.836  0.00  0.00     0.210 HD
ENDBRANCH   3  21
TORSDOF 1
