MODEL 1
REMARK VINA RESULT:      -7.5      0.000      0.000
REMARK  1 active torsions:
REMARK  status: ('A' for Active; 'I' for Inactive)
REMARK    1  A    between atoms: C_3  and  O_4 
ROOT
HETATM    1  C   UNK N   1      36.428  10.768  14.916  0.00  0.00     0.016 C 
HETATM    2  C   UNK N   1      36.724  11.474  13.581  0.00  0.00     0.033 C 
HETATM    3  C   UNK N   1      36.854  12.985  13.791  0.00  0.00     0.122 C 
HETATM    4  C   UNK N   1      35.578  13.555  14.420  0.00  0.00     0.066 C 
HETATM    5  C   UNK N   1      35.281  12.785  15.672  0.00  0.00    -0.072 C 
HETATM    6  C   UNK N   1      35.336  13.428  16.848  0.00  0.00    -0.023 C 
HETATM    7  C   UNK N   1      35.210  12.729  18.168  0.00  0.00     0.033 C 
HETATM    8  C   UNK N   1      35.553  11.236  18.093  0.00  0.00    -0.001 C 
HETATM    9  C   UNK N   1      34.810  10.579  16.919  0.00  0.00     0.003 C 
HETATM   10  C   UNK N   1      35.116  11.275  15.554  0.00  0.00    -0.017 C 
HETATM   11  C   UNK N   1      35.133   9.058  16.836  0.00  0.00     0.007 C 
HETATM   12  C   UNK N   1      35.630   8.435  18.158  0.00  0.00     0.018 C 
HETATM   13  C   UNK N   1      34.899   9.048  19.348  0.00  0.00     0.021 C 
HETATM   14  C   UNK N   1      35.143  10.570  19.436  0.00  0.00     0.006 C 
HETATM   15  C   UNK N   1      36.219  10.777  20.507  0.00  0.00     0.013 C 
HETATM   16  C   UNK N   1      36.083   9.611  21.477  0.00  0.00     0.079 C 
HETATM   17  C   UNK N   1      35.431   8.567  20.649  0.00  0.00     0.135 C 
HETATM   18  O   UNK N   1      35.360   7.402  21.007  0.00  0.00    -0.297 OA
HETATM   19  C   UNK N   1      33.407   8.722  19.239  0.00  0.00     0.024 C 
HETATM   20  C   UNK N   1      33.960  10.953  14.604  0.00  0.00     0.020 C 
ENDROOT
BRANCH   3  21
HETATM   21  O   UNK N   1      37.083  13.608  12.565  0.00  0.00    -0.395 OA
HETATM   22  H   UNK N   1      36.440  14.244  12.215  0.00  0.00     0.210 HD
ENDBRANCH   3  21
TORSDOF 1
ENDMDL
MODEL 2
REMARK VINA RESULT:      -7.3     27.170     29.201
REMARK  1 active torsions:
REMARK  status: ('A' for Active; 'I' for Inactive)
REMARK    1  A    between atoms: C_3  and  O_4 
ROOT
HETATM    1  C   UNK N   1      26.912  27.782  -5.947  0.00  0.00     0.016 C 
HETATM    2  C   UNK N   1      26.828  29.070  -5.110  0.00  0.00     0.033 C 
HETATM    3  C   UNK N   1      27.115  28.772  -3.635  0.00  0.00     0.122 C 
HETATM    4  C   UNK N   1      26.134  27.725  -3.097  0.00  0.00     0.066 C 
HETATM    5  C   UNK N   1      26.187  26.520  -3.988  0.00  0.00    -0.072 C 
HETATM    6  C   UNK N   1      26.643  25.366  -3.480  0.00  0.00    -0.023 C 
HETATM    7  C   UNK N   1      26.884  24.144  -4.314  0.00  0.00     0.033 C 
HETATM    8  C   UNK N   1      27.090  24.462  -5.801  0.00  0.00    -0.001 C 
HETATM    9  C   UNK N   1      25.979  25.401  -6.301  0.00  0.00     0.003 C 
HETATM   10  C   UNK N   1      25.895  26.722  -5.471  0.00  0.00    -0.017 C 
HETATM   11  C   UNK N   1      26.162  25.722  -7.814  0.00  0.00     0.007 C 
HETATM   12  C   UNK N   1      27.000  24.687  -8.593  0.00  0.00     0.018 C 
HETATM   13  C   UNK N   1      26.712  23.276  -8.091  0.00  0.00     0.021 C 
HETATM   14  C   UNK N   1      27.070  23.127  -6.596  0.00  0.00     0.006 C 
HETATM   15  C   UNK N   1      28.434  22.432  -6.543  0.00  0.00     0.013 C 
HETATM   16  C   UNK N   1      28.528  21.581  -7.803  0.00  0.00     0.079 C 
HETATM   17  C   UNK N   1      27.586  22.258  -8.728  0.00  0.00     0.135 C 
HETATM   18  O   UNK N   1      27.553  22.006  -9.922  0.00  0.00    -0.297 OA
HETATM   19  C   UNK N   1      25.241  22.943  -8.354  0.00  0.00     0.024 C 
HETATM   20  C   UNK N   1      24.485  27.289  -5.648  0.00  0.00     0.020 C 
ENDROOT
BRANCH   3  21
HETATM   21  O   UNK N   1      26.995  29.944  -2.891  0.00  0.00    -0.395 OA
HETATM   22  H   UNK N   1      26.625  29.915  -1.995  0.00  0.00     0.210 HD
ENDBRANCH   3  21
TORSDOF 1
ENDMDL
MODEL 3
REMARK VINA RESULT:      -7.2     23.481     27.348
REMARK  1 active torsions:
REMARK  status: ('A' for Active; 'I' for Inactive)
REMARK    1  A    between atoms: C_3  and  O_4 
ROOT
HETATM    1  C   UNK N   1      29.022  22.642  -3.754  0.00  0.00     0.016 C 
HETATM    2  C   UNK N   1      30.063  21.599  -3.310  0.00  0.00     0.033 C 
HETATM    3  C   UNK N   1      31.271  22.287  -2.666  0.00  0.00     0.122 C 
HETATM    4  C   UNK N   1      31.904  23.287  -3.639  0.00  0.00     0.066 C 
HETATM    5  C   UNK N   1      30.840  24.232  -4.110  0.00  0.00    -0.072 C 
HETATM    6  C   UNK N   1      30.939  25.528  -3.777  0.00  0.00    -0.023 C 
HETATM    7  C   UNK N   1      29.860  26.529  -4.059  0.00  0.00     0.033 C 
HETATM    8  C   UNK N   1      28.478  25.889  -4.245  0.00  0.00    -0.001 C 
HETATM    9  C   UNK N   1      28.568  24.711  -5.230  0.00  0.00     0.003 C 
HETATM   10  C   UNK N   1      29.608  23.635  -4.781  0.00  0.00    -0.017 C 
HETATM   11  C   UNK N   1      27.171  24.058  -5.443  0.00  0.00     0.007 C 
HETATM   12  C   UNK N   1      25.975  24.977  -5.115  0.00  0.00     0.018 C 
HETATM   13  C   UNK N   1      26.273  26.413  -5.531  0.00  0.00     0.021 C 
HETATM   14  C   UNK N   1      27.503  26.973  -4.782  0.00  0.00     0.006 C 
HETATM   15  C   UNK N   1      26.961  27.842  -3.643  0.00  0.00     0.013 C 
HETATM   16  C   UNK N   1      25.608  28.362  -4.112  0.00  0.00     0.079 C 
HETATM   17  C   UNK N   1      25.200  27.355  -5.122  0.00  0.00     0.135 C 
HETATM   18  O   UNK N   1      24.063  27.300  -5.563  0.00  0.00    -0.297 OA
HETATM   19  C   UNK N   1      26.466  26.464  -7.048  0.00  0.00     0.024 C 
HETATM   20  C   UNK N   1      30.027  22.852  -6.027  0.00  0.00     0.020 C 
ENDROOT
BRANCH   3  21
HETATM   21  O   UNK N   1      32.217  21.328  -2.307  0.00  0.00    -0.395 OA
HETATM   22  H   UNK N   1      32.839  20.989  -2.969  0.00  0.00     0.210 HD
ENDBRANCH   3  21
TORSDOF 1
ENDMDL
MODEL 4
REMARK VINA RESULT:      -7.0     28.076     29.765
REMARK  1 active torsions:
REMARK  status: ('A' for Active; 'I' for Inactive)
REMARK    1  A    between atoms: C_3  and  O_4 
ROOT
HETATM    1  C   UNK N   1      26.275  25.078  -8.368  0.00  0.00     0.016 C 
HETATM    2  C   UNK N   1      25.848  23.808  -9.124  0.00  0.00     0.033 C 
HETATM    3  C   UNK N   1      25.055  22.875  -8.203  0.00  0.00     0.122 C 
HETATM    4  C   UNK N   1      25.884  22.504  -6.968  0.00  0.00     0.066 C 
HETATM    5  C   UNK N   1      26.349  23.768  -6.310  0.00  0.00    -0.072 C 
HETATM    6  C   UNK N   1      25.896  24.055  -5.080  0.00  0.00    -0.023 C 
HETATM    7  C   UNK N   1      26.170  25.358  -4.391  0.00  0.00     0.033 C 
HETATM    8  C   UNK N   1      26.516  26.492  -5.365  0.00  0.00    -0.001 C 
HETATM    9  C   UNK N   1      27.592  26.026  -6.360  0.00  0.00     0.003 C 
HETATM   10  C   UNK N   1      27.163  24.747  -7.148  0.00  0.00    -0.017 C 
HETATM   11  C   UNK N   1      27.968  27.170  -7.347  0.00  0.00     0.007 C 
HETATM   12  C   UNK N   1      27.651  28.591  -6.834  0.00  0.00     0.018 C 
HETATM   13  C   UNK N   1      27.914  28.691  -5.336  0.00  0.00     0.021 C 
HETATM   14  C   UNK N   1      27.027  27.706  -4.541  0.00  0.00     0.006 C 
HETATM   15  C   UNK N   1      25.860  28.526  -3.982  0.00  0.00     0.013 C 
HETATM   16  C   UNK N   1      26.382  29.946  -3.808  0.00  0.00     0.079 C 
HETATM   17  C   UNK N   1      27.506  30.005  -4.775  0.00  0.00     0.135 C 
HETATM   18  O   UNK N   1      28.035  31.058  -5.095  0.00  0.00    -0.297 OA
HETATM   19  C   UNK N   1      29.402  28.448  -5.072  0.00  0.00     0.024 C 
HETATM   20  C   UNK N   1      28.438  24.065  -7.648  0.00  0.00     0.020 C 
ENDROOT
BRANCH   3  21
HETATM   21  O   UNK N   1      24.712  21.716  -8.896  0.00  0.00    -0.395 OA
HETATM   22  H   UNK N   1      24.550  21.751  -9.851  0.00  0.00     0.210 HD
ENDBRANCH   3  21
TORSDOF 1
ENDMDL
MODEL 5
REMARK VINA RESULT:      -6.9      1.457      6.159
REMARK  1 active torsions:
REMARK  status: ('A' for Active; 'I' for Inactive)
REMARK    1  A    between atoms: C_3  and  O_4 
ROOT
HETATM    1  C   UNK N   1      34.511   9.083  18.119  0.00  0.00     0.016 C 
HETATM    2  C   UNK N   1      33.988   8.534  19.458  0.00  0.00     0.033 C 
HETATM    3  C   UNK N   1      33.574   9.682  20.383  0.00  0.00     0.122 C 
HETATM    4  C   UNK N   1      34.751  10.633  20.623  0.00  0.00     0.066 C 
HETATM    5  C   UNK N   1      35.282  11.078  19.294  0.00  0.00    -0.072 C 
HETATM    6  C   UNK N   1      35.181  12.374  18.965  0.00  0.00    -0.023 C 
HETATM    7  C   UNK N   1      35.535  12.903  17.607  0.00  0.00     0.033 C 
HETATM    8  C   UNK N   1      35.492  11.828  16.513  0.00  0.00    -0.001 C 
HETATM    9  C   UNK N   1      36.269  10.581  16.965  0.00  0.00     0.003 C 
HETATM   10  C   UNK N   1      35.737  10.002  18.315  0.00  0.00    -0.017 C 
HETATM   11  C   UNK N   1      36.251   9.484  15.860  0.00  0.00     0.007 C 
HETATM   12  C   UNK N   1      35.981  10.012  14.436  0.00  0.00     0.018 C 
HETATM   13  C   UNK N   1      36.656  11.364  14.228  0.00  0.00     0.021 C 
HETATM   14  C   UNK N   1      36.119  12.419  15.220  0.00  0.00     0.006 C 
HETATM   15  C   UNK N   1      35.100  13.263  14.448  0.00  0.00     0.013 C 
HETATM   16  C   UNK N   1      35.533  13.223  12.988  0.00  0.00     0.079 C 
HETATM   17  C   UNK N   1      36.322  11.968  12.913  0.00  0.00     0.135 C 
HETATM   18  O   UNK N   1      36.648  11.468  11.849  0.00  0.00    -0.297 OA
HETATM   19  C   UNK N   1      38.171  11.190  14.355  0.00  0.00     0.024 C 
HETATM   20  C   UNK N   1      36.864   9.178  18.940  0.00  0.00     0.020 C 
ENDROOT
BRANCH   3  21
HETATM   21  O   UNK N   1      33.141   9.164  21.603  0.00  0.00    -0.395 OA
HETATM   22  H   UNK N   1      33.540   9.473  22.431  0.00  0.00     0.210 HD
ENDBRANCH   3  21
TORSDOF 1
ENDMDL
MODEL 6
REMARK VINA RESULT:      -6.9     23.542     27.474
REMARK  1 active torsions:
REMARK  status: ('A' for Active; 'I' for Inactive)
REMARK    1  A    between atoms: C_3  and  O_4 
ROOT
HETATM    1  C   UNK N   1      30.679  20.659  -5.266  0.00  0.00     0.016 C 
HETATM    2  C   UNK N   1      31.786  20.511  -4.208  0.00  0.00     0.033 C 
HETATM    3  C   UNK N   1      31.540  21.467  -3.037  0.00  0.00     0.122 C 
HETATM    4  C   UNK N   1      31.468  22.917  -3.530  0.00  0.00     0.066 C 
HETATM    5  C   UNK N   1      30.437  22.999  -4.616  0.00  0.00    -0.072 C 
HETATM    6  C   UNK N   1      29.335  23.731  -4.399  0.00  0.00    -0.023 C 
HETATM    7  C   UNK N   1      28.174  23.761  -5.347  0.00  0.00     0.033 C 
HETATM    8  C   UNK N   1      28.108  22.526  -6.256  0.00  0.00    -0.001 C 
HETATM    9  C   UNK N   1      29.483  22.265  -6.895  0.00  0.00     0.003 C 
HETATM   10  C   UNK N   1      30.613  22.095  -5.830  0.00  0.00    -0.017 C 
HETATM   11  C   UNK N   1      29.432  21.025  -7.835  0.00  0.00     0.007 C 
HETATM   12  C   UNK N   1      28.022  20.669  -8.353  0.00  0.00     0.018 C 
HETATM   13  C   UNK N   1      27.219  21.935  -8.633  0.00  0.00     0.021 C 
HETATM   14  C   UNK N   1      27.039  22.782  -7.354  0.00  0.00     0.006 C 
HETATM   15  C   UNK N   1      25.629  22.487  -6.832  0.00  0.00     0.013 C 
HETATM   16  C   UNK N   1      24.794  22.114  -8.050  0.00  0.00     0.079 C 
HETATM   17  C   UNK N   1      25.815  21.641  -9.017  0.00  0.00     0.135 C 
HETATM   18  O   UNK N   1      25.515  21.040 -10.037  0.00  0.00    -0.297 OA
HETATM   19  C   UNK N   1      27.910  22.730  -9.743  0.00  0.00     0.024 C 
HETATM   20  C   UNK N   1      31.944  22.407  -6.518  0.00  0.00     0.020 C 
ENDROOT
BRANCH   3  21
HETATM   21  O   UNK N   1      32.574  21.345  -2.110  0.00  0.00    -0.395 OA
HETATM   22  H   UNK N   1      33.180  20.589  -2.155  0.00  0.00     0.210 HD
ENDBRANCH   3  21
TORSDOF 1
ENDMDL
MODEL 7
REMARK VINA RESULT:      -6.8     23.737     27.304
REMARK  1 active torsions:
REMARK  status: ('A' for Active; 'I' for Inactive)
REMARK    1  A    between atoms: C_3  and  O_4 
ROOT
HETATM    1  C   UNK N   1      28.783  28.259  -4.356  0.00  0.00     0.016 C 
HETATM    2  C   UNK N   1      27.958  29.557  -4.317  0.00  0.00     0.033 C 
HETATM    3  C   UNK N   1      26.644  29.335  -3.561  0.00  0.00     0.122 C 
HETATM    4  C   UNK N   1      25.832  28.209  -4.210  0.00  0.00     0.066 C 
HETATM    5  C   UNK N   1      26.699  26.990  -4.304  0.00  0.00    -0.072 C 
HETATM    6  C   UNK N   1      26.360  25.905  -3.593  0.00  0.00    -0.023 C 
HETATM    7  C   UNK N   1      27.231  24.689  -3.490  0.00  0.00     0.033 C 
HETATM    8  C   UNK N   1      28.707  24.981  -3.786  0.00  0.00    -0.001 C 
HETATM    9  C   UNK N   1      28.838  25.785  -5.090  0.00  0.00     0.003 C 
HETATM   10  C   UNK N   1      28.019  27.115  -5.057  0.00  0.00    -0.017 C 
HETATM   11  C   UNK N   1      30.332  26.076  -5.416  0.00  0.00     0.007 C 
HETATM   12  C   UNK N   1      31.335  25.109  -4.752  0.00  0.00     0.018 C 
HETATM   13  C   UNK N   1      30.772  23.693  -4.718  0.00  0.00     0.021 C 
HETATM   14  C   UNK N   1      29.461  23.627  -3.904  0.00  0.00     0.006 C 
HETATM   15  C   UNK N   1      29.833  23.079  -2.523  0.00  0.00     0.013 C 
HETATM   16  C   UNK N   1      31.062  22.204  -2.730  0.00  0.00     0.079 C 
HETATM   17  C   UNK N   1      31.650  22.751  -3.978  0.00  0.00     0.135 C 
HETATM   18  O   UNK N   1      32.776  22.460  -4.348  0.00  0.00    -0.297 OA
HETATM   19  C   UNK N   1      30.569  23.201  -6.154  0.00  0.00     0.024 C 
HETATM   20  C   UNK N   1      27.751  27.527  -6.506  0.00  0.00     0.020 C 
ENDROOT
BRANCH   3  21
HETATM   21  O   UNK N   1      25.896  30.511  -3.572  0.00  0.00    -0.395 OA
HETATM   22  H   UNK N   1      25.002  30.521  -3.197  0.00  0.00     0.210 HD
ENDBRANCH   3  21
TORSDOF 1
ENDMDL
MODEL 8
REMARK VINA RESULT:      -6.5     25.482     28.259
REMARK  1 active torsions:
REMARK  status: ('A' for Active; 'I' for Inactive)
REMARK    1  A    between atoms: C_3  and  O_4 
ROOT
HETATM    1  C   UNK N   1      28.379  25.543  -5.402  0.00  0.00     0.016 C 
HETATM    2  C   UNK N   1      29.060  26.426  -4.341  0.00  0.00     0.033 C 
HETATM    3  C   UNK N   1      30.378  25.794  -3.882  0.00  0.00     0.122 C 
HETATM    4  C   UNK N   1      30.135  24.387  -3.325  0.00  0.00     0.066 C 
HETATM    5  C   UNK N   1      29.398  23.587  -4.357  0.00  0.00    -0.072 C 
HETATM    6  C   UNK N   1      30.012  22.529  -4.907  0.00  0.00    -0.023 C 
HETATM    7  C   UNK N   1      29.434  21.753  -6.052  0.00  0.00     0.033 C 
HETATM    8  C   UNK N   1      28.412  22.555  -6.867  0.00  0.00    -0.001 C 
HETATM    9  C   UNK N   1      27.389  23.218  -5.930  0.00  0.00     0.003 C 
HETATM   10  C   UNK N   1      28.066  24.132  -4.858  0.00  0.00    -0.017 C 
HETATM   11  C   UNK N   1      26.333  24.025  -6.741  0.00  0.00     0.007 C 
HETATM   12  C   UNK N   1      26.177  23.582  -8.211  0.00  0.00     0.018 C 
HETATM   13  C   UNK N   1      26.312  22.068  -8.332  0.00  0.00     0.021 C 
HETATM   14  C   UNK N   1      27.699  21.586  -7.850  0.00  0.00     0.006 C 
HETATM   15  C   UNK N   1      28.541  21.357  -9.109  0.00  0.00     0.013 C 
HETATM   16  C   UNK N   1      27.559  21.001 -10.219  0.00  0.00     0.079 C 
HETATM   17  C   UNK N   1      26.291  21.608  -9.744  0.00  0.00     0.135 C 
HETATM   18  O   UNK N   1      25.319  21.734 -10.471  0.00  0.00    -0.297 OA
HETATM   19  C   UNK N   1      25.180  21.401  -7.547  0.00  0.00     0.024 C 
HETATM   20  C   UNK N   1      27.090  24.270  -3.688  0.00  0.00     0.020 C 
ENDROOT
BRANCH   3  21
HETATM   21  O   UNK N   1      30.957  26.589  -2.894  0.00  0.00    -0.395 OA
HETATM   22  H   UNK N   1      30.976  27.553  -2.996  0.00  0.00     0.210 HD
ENDBRANCH   3  21
TORSDOF 1
ENDMDL
MODEL 9
REMARK VINA RESULT:      -6.5      2.739      7.689
REMARK  1 active torsions:
REMARK  status: ('A' for Active; 'I' for Inactive)
REMARK    1  A    between atoms: C_3  and  O_4 
ROOT
HETATM    1  C   UNK N   1      35.197  10.531  14.072  0.00  0.00     0.016 C 
HETATM    2  C   UNK N   1      34.907   9.668  15.312  0.00  0.00     0.033 C 
HETATM    3  C   UNK N   1      34.803  10.544  16.564  0.00  0.00     0.122 C 
HETATM    4  C   UNK N   1      36.092  11.349  16.767  0.00  0.00     0.066 C 
HETATM    5  C   UNK N   1      36.381  12.110  15.508  0.00  0.00    -0.072 C 
HETATM    6  C   UNK N   1      36.342  13.450  15.545  0.00  0.00    -0.023 C 
HETATM    7  C   UNK N   1      36.462  14.305  14.320  0.00  0.00     0.033 C 
HETATM    8  C   UNK N   1      36.093  13.562  13.029  0.00  0.00    -0.001 C 
HETATM    9  C   UNK N   1      36.820  12.209  12.970  0.00  0.00     0.003 C 
HETATM   10  C   UNK N   1      36.520  11.314  14.215  0.00  0.00    -0.017 C 
HETATM   11  C   UNK N   1      36.470  11.446  11.658  0.00  0.00     0.007 C 
HETATM   12  C   UNK N   1      35.969  12.345  10.508  0.00  0.00     0.018 C 
HETATM   13  C   UNK N   1      36.715  13.674  10.501  0.00  0.00     0.021 C 
HETATM   14  C   UNK N   1      36.497  14.450  11.820  0.00  0.00     0.006 C 
HETATM   15  C   UNK N   1      35.430  15.509  11.529  0.00  0.00     0.013 C 
HETATM   16  C   UNK N   1      35.550  15.840  10.048  0.00  0.00     0.079 C 
HETATM   17  C   UNK N   1      36.181  14.619   9.488  0.00  0.00     0.135 C 
HETATM   18  O   UNK N   1      36.234  14.407   8.287  0.00  0.00    -0.297 OA
HETATM   19  C   UNK N   1      38.201  13.412  10.241  0.00  0.00     0.024 C 
HETATM   20  C   UNK N   1      37.666  10.309  14.347  0.00  0.00     0.020 C 
ENDROOT
BRANCH   3  21
HETATM   21  O   UNK N   1      34.580   9.739  17.680  0.00  0.00    -0.395 OA
HETATM   22  H   UNK N   1      34.319   8.812  17.565  0.00  0.00     0.210 HD
ENDBRANCH   3  21
TORSDOF 1
ENDMDL
