MODEL 1
REMARK VINA RESULT:      -4.6      0.000      0.000
REMARK  2 active torsions:
REMARK  status: ('A' for Active; 'I' for Inactive)
REMARK    1  A    between atoms: O_1  and  C_2 
REMARK    2  A    between atoms: C_2  and  C_4 
ROOT
HETATM    1  C   UNK N   1      22.104  12.524  10.764  0.00  0.00     0.037 A 
HETATM    2  C   UNK N   1      22.587  13.098   9.578  0.00  0.00     0.018 A 
HETATM    3  C   UNK N   1      23.958  13.133   9.316  0.00  0.00     0.001 A 
HETATM    4  C   UNK N   1      24.860  12.594  10.237  0.00  0.00     0.000 A 
HETATM    5  C   UNK N   1      24.388  12.019  11.421  0.00  0.00     0.001 A 
HETATM    6  C   UNK N   1      23.014  11.983  11.685  0.00  0.00     0.018 A 
ENDROOT
BRANCH   1   7
HETATM    7  C   UNK N   1      20.650  12.496  11.025  0.00  0.00     0.176 C 
HETATM    8  O   UNK N   1      19.894  13.187  10.364  0.00  0.00    -0.646 OA
BRANCH   7   9
HETATM    9  O   UNK N   1      20.146  11.706  11.997  0.00  0.00    -0.773 OA
HETATM   10  H   UNK N   1      20.152  11.997  12.887  0.00  0.00     0.167 HD
ENDBRANCH   7   9
ENDBRANCH   1   7
TORSDOF 2
ENDMDL
MODEL 2
REMARK VINA RESULT:      -4.6     11.575     12.837
REMARK  2 active torsions:
REMARK  status: ('A' for Active; 'I' for Inactive)
REMARK    1  A    between atoms: O_1  and  C_2 
REMARK    2  A    between atoms: C_2  and  C_4 
ROOT
HETATM    1  C   UNK N   1      33.429  17.761   7.638  0.00  0.00     0.037 A 
HETATM    2  C   UNK N   1      33.765  17.602   6.285  0.00  0.00     0.018 A 
HETATM    3  C   UNK N   1      32.787  17.257   5.349  0.00  0.00     0.001 A 
HETATM    4  C   UNK N   1      31.465  17.069   5.757  0.00  0.00     0.000 A 
HETATM    5  C   UNK N   1      31.120  17.225   7.103  0.00  0.00     0.001 A 
HETATM    6  C   UNK N   1      32.099  17.571   8.043  0.00  0.00     0.018 A 
ENDROOT
BRANCH   1   7
HETATM    7  C   UNK N   1      34.476  18.127   8.615  0.00  0.00     0.176 C 
HETATM    8  O   UNK N   1      35.220  19.067   8.395  0.00  0.00    -0.646 OA
BRANCH   7   9
HETATM    9  O   UNK N   1      34.618  17.423   9.758  0.00  0.00    -0.773 OA
HETATM   10  H   UNK N   1      35.200  17.727  10.426  0.00  0.00     0.167 HD
ENDBRANCH   7   9
ENDBRANCH   1   7
TORSDOF 2
ENDMDL
MODEL 3
REMARK VINA RESULT:      -4.5     21.788     22.786
REMARK  2 active torsions:
REMARK  status: ('A' for Active; 'I' for Inactive)
REMARK    1  A    between atoms: O_1  and  C_2 
REMARK    2  A    between atoms: C_2  and  C_4 
ROOT
HETATM    1  C   UNK N   1      26.211  28.014  -5.187  0.00  0.00     0.037 A 
HETATM    2  C   UNK N   1      25.428  26.982  -5.727  0.00  0.00     0.018 A 
HETATM    3  C   UNK N   1      25.748  26.428  -6.969  0.00  0.00     0.001 A 
HETATM    4  C   UNK N   1      26.853  26.900  -7.681  0.00  0.00     0.000 A 
HETATM    5  C   UNK N   1      27.639  27.928  -7.151  0.00  0.00     0.001 A 
HETATM    6  C   UNK N   1      27.319  28.485  -5.906  0.00  0.00     0.018 A 
ENDROOT
BRANCH   1   7
HETATM    7  C   UNK N   1      25.858  28.589  -3.872  0.00  0.00     0.176 C 
HETATM    8  O   UNK N   1      25.458  27.867  -2.974  0.00  0.00    -0.646 OA
BRANCH   7   9
HETATM    9  O   UNK N   1      25.974  29.915  -3.653  0.00  0.00    -0.773 OA
HETATM   10  H   UNK N   1      25.209  30.453  -3.619  0.00  0.00     0.167 HD
ENDBRANCH   7   9
ENDBRANCH   1   7
TORSDOF 2
ENDMDL
MODEL 4
REMARK VINA RESULT:      -4.5     13.989     14.854
REMARK  2 active torsions:
REMARK  status: ('A' for Active; 'I' for Inactive)
REMARK    1  A    between atoms: O_1  and  C_2 
REMARK    2  A    between atoms: C_2  and  C_4 
ROOT
HETATM    1  C   UNK N   1      35.629  12.852  16.432  0.00  0.00     0.037 A 
HETATM    2  C   UNK N   1      35.802  11.477  16.655  0.00  0.00     0.018 A 
HETATM    3  C   UNK N   1      35.648  10.944  17.937  0.00  0.00     0.001 A 
HETATM    4  C   UNK N   1      35.319  11.779  19.006  0.00  0.00     0.000 A 
HETATM    5  C   UNK N   1      35.144  13.150  18.794  0.00  0.00     0.001 A 
HETATM    6  C   UNK N   1      35.299  13.686  17.509  0.00  0.00     0.018 A 
ENDROOT
BRANCH   1   7
HETATM    7  C   UNK N   1      35.797  13.399  15.069  0.00  0.00     0.176 C 
HETATM    8  O   UNK N   1      34.856  13.414  14.294  0.00  0.00    -0.646 OA
BRANCH   7   9
HETATM    9  O   UNK N   1      36.991  13.887  14.672  0.00  0.00    -0.773 OA
HETATM   10  H   UNK N   1      37.318  13.686  13.818  0.00  0.00     0.167 HD
ENDBRANCH   7   9
ENDBRANCH   1   7
TORSDOF 2
ENDMDL
MODEL 5
REMARK VINA RESULT:      -4.5      2.257      3.244
REMARK  2 active torsions:
REMARK  status: ('A' for Active; 'I' for Inactive)
REMARK    1  A    between atoms: O_1  and  C_2 
REMARK    2  A    between atoms: C_2  and  C_4 
ROOT
HETATM    1  C   UNK N   1      22.933  12.207  10.532  0.00  0.00     0.037 A 
HETATM    2  C   UNK N   1      21.784  13.008  10.442  0.00  0.00     0.018 A 
HETATM    3  C   UNK N   1      21.135  13.179   9.216  0.00  0.00     0.001 A 
HETATM    4  C   UNK N   1      21.629  12.551   8.071  0.00  0.00     0.000 A 
HETATM    5  C   UNK N   1      22.773  11.751   8.151  0.00  0.00     0.001 A 
HETATM    6  C   UNK N   1      23.424  11.579   9.379  0.00  0.00     0.018 A 
ENDROOT
BRANCH   1   7
HETATM    7  C   UNK N   1      23.606  12.038  11.836  0.00  0.00     0.176 C 
HETATM    8  O   UNK N   1      22.957  11.768  12.832  0.00  0.00    -0.646 OA
BRANCH   7   9
HETATM    9  O   UNK N   1      24.945  12.180  11.937  0.00  0.00    -0.773 OA
HETATM   10  H   UNK N   1      25.327  13.034  11.926  0.00  0.00     0.167 HD
ENDBRANCH   7   9
ENDBRANCH   1   7
TORSDOF 2
ENDMDL
MODEL 6
REMARK VINA RESULT:      -4.5     19.145     20.521
REMARK  2 active torsions:
REMARK  status: ('A' for Active; 'I' for Inactive)
REMARK    1  A    between atoms: O_1  and  C_2 
REMARK    2  A    between atoms: C_2  and  C_4 
ROOT
HETATM    1  C   UNK N   1      26.446  25.503  -4.089  0.00  0.00     0.037 A 
HETATM    2  C   UNK N   1      25.745  25.445  -5.304  0.00  0.00     0.018 A 
HETATM    3  C   UNK N   1      25.019  26.551  -5.755  0.00  0.00     0.001 A 
HETATM    4  C   UNK N   1      24.988  27.723  -4.997  0.00  0.00     0.000 A 
HETATM    5  C   UNK N   1      25.683  27.790  -3.786  0.00  0.00     0.001 A 
HETATM    6  C   UNK N   1      26.411  26.683  -3.332  0.00  0.00     0.018 A 
ENDROOT
BRANCH   1   7
HETATM    7  C   UNK N   1      27.208  24.325  -3.627  0.00  0.00     0.176 C 
HETATM    8  O   UNK N   1      28.036  23.805  -4.356  0.00  0.00    -0.646 OA
BRANCH   7   9
HETATM    9  O   UNK N   1      26.995  23.814  -2.396  0.00  0.00    -0.773 OA
HETATM   10  H   UNK N   1      27.468  23.057  -2.115  0.00  0.00     0.167 HD
ENDBRANCH   7   9
ENDBRANCH   1   7
TORSDOF 2
ENDMDL
MODEL 7
REMARK VINA RESULT:      -4.4     20.284     21.485
REMARK  2 active torsions:
REMARK  status: ('A' for Active; 'I' for Inactive)
REMARK    1  A    between atoms: O_1  and  C_2 
REMARK    2  A    between atoms: C_2  and  C_4 
ROOT
HETATM    1  C   UNK N   1      26.096  27.499  -4.017  0.00  0.00     0.037 A 
HETATM    2  C   UNK N   1      26.534  26.276  -3.486  0.00  0.00     0.018 A 
HETATM    3  C   UNK N   1      26.260  25.078  -4.150  0.00  0.00     0.001 A 
HETATM    4  C   UNK N   1      25.546  25.092  -5.350  0.00  0.00     0.000 A 
HETATM    5  C   UNK N   1      25.105  26.305  -5.887  0.00  0.00     0.001 A 
HETATM    6  C   UNK N   1      25.379  27.507  -5.223  0.00  0.00     0.018 A 
ENDROOT
BRANCH   1   7
HETATM    7  C   UNK N   1      26.394  28.757  -3.302  0.00  0.00     0.176 C 
HETATM    8  O   UNK N   1      27.082  28.743  -2.295  0.00  0.00    -0.646 OA
BRANCH   7   9
HETATM    9  O   UNK N   1      25.909  29.932  -3.756  0.00  0.00    -0.773 OA
HETATM   10  H   UNK N   1      25.250  29.941  -4.420  0.00  0.00     0.167 HD
ENDBRANCH   7   9
ENDBRANCH   1   7
TORSDOF 2
ENDMDL
MODEL 8
REMARK VINA RESULT:      -4.3     13.606     14.555
REMARK  2 active torsions:
REMARK  status: ('A' for Active; 'I' for Inactive)
REMARK    1  A    between atoms: O_1  and  C_2 
REMARK    2  A    between atoms: C_2  and  C_4 
ROOT
HETATM    1  C   UNK N   1      35.034  12.624  17.491  0.00  0.00     0.037 A 
HETATM    2  C   UNK N   1      35.230  11.267  17.790  0.00  0.00     0.018 A 
HETATM    3  C   UNK N   1      35.001  10.289  16.819  0.00  0.00     0.001 A 
HETATM    4  C   UNK N   1      34.576  10.658  15.542  0.00  0.00     0.000 A 
HETATM    5  C   UNK N   1      34.378  12.008  15.234  0.00  0.00     0.001 A 
HETATM    6  C   UNK N   1      34.606  12.990  16.206  0.00  0.00     0.018 A 
ENDROOT
BRANCH   1   7
HETATM    7  C   UNK N   1      35.280  13.646  18.529  0.00  0.00     0.176 C 
HETATM    8  O   UNK N   1      35.024  13.408  19.697  0.00  0.00    -0.646 OA
BRANCH   7   9
HETATM    9  O   UNK N   1      35.789  14.851  18.195  0.00  0.00    -0.773 OA
HETATM   10  H   UNK N   1      36.147  15.408  18.857  0.00  0.00     0.167 HD
ENDBRANCH   7   9
ENDBRANCH   1   7
TORSDOF 2
ENDMDL
MODEL 9
REMARK VINA RESULT:      -4.3      8.219      9.466
REMARK  2 active torsions:
REMARK  status: ('A' for Active; 'I' for Inactive)
REMARK    1  A    between atoms: O_1  and  C_2 
REMARK    2  A    between atoms: C_2  and  C_4 
ROOT
HETATM    1  C   UNK N   1      29.460  17.671   8.317  0.00  0.00     0.037 A 
HETATM    2  C   UNK N   1      30.621  18.122   8.964  0.00  0.00     0.018 A 
HETATM    3  C   UNK N   1      31.877  17.914   8.388  0.00  0.00     0.001 A 
HETATM    4  C   UNK N   1      31.984  17.254   7.162  0.00  0.00     0.000 A 
HETATM    5  C   UNK N   1      30.832  16.801   6.511  0.00  0.00     0.001 A 
HETATM    6  C   UNK N   1      29.573  17.008   7.086  0.00  0.00     0.018 A 
ENDROOT
BRANCH   1   7
HETATM    7  C   UNK N   1      28.140  17.899   8.940  0.00  0.00     0.176 C 
HETATM    8  O   UNK N   1      27.638  17.042   9.648  0.00  0.00    -0.646 OA
BRANCH   7   9
HETATM    9  O   UNK N   1      27.477  19.056   8.731  0.00  0.00    -0.773 OA
HETATM   10  H   UNK N   1      27.813  19.858   9.080  0.00  0.00     0.167 HD
ENDBRANCH   7   9
ENDBRANCH   1   7
TORSDOF 2
ENDMDL
