MODEL 1
REMARK VINA RESULT:      -3.9      0.000      0.000
REMARK  2 active torsions:
REMARK  status: ('A' for Active; 'I' for Inactive)
REMARK    1  A    between atoms: C_2  and  C_4 
REMARK    2  A    between atoms: C_4  and  N_5 
ROOT
HETATM    1  C   UNK N   1      33.707  17.275   8.890  0.00  0.00     0.348 C 
ENDROOT
BRANCH   1   2
HETATM    2  C   UNK N   1      34.510  18.187   7.998  0.00  0.00     0.199 C 
HETATM    3  O   UNK N   1      35.269  19.158   8.538  0.00  0.00    -0.647 OA
HETATM    4  O   UNK N   1      34.430  18.085   6.786  0.00  0.00    -0.647 OA
ENDBRANCH   1   2
BRANCH   1   5
HETATM    5  N   UNK N   1      34.457  16.133   9.433  0.00  0.00    -0.069 N 
HETATM    6  C   UNK N   1      35.261  15.449   8.429  0.00  0.00     0.272 C 
HETATM    7  C   UNK N   1      33.497  15.180   9.955  0.00  0.00     0.272 C 
HETATM    8  C   UNK N   1      35.312  16.561  10.528  0.00  0.00     0.272 C 
ENDBRANCH   1   5
TORSDOF 2
ENDMDL
MODEL 2
REMARK VINA RESULT:      -3.3      1.452      2.365
REMARK  2 active torsions:
REMARK  status: ('A' for Active; 'I' for Inactive)
REMARK    1  A    between atoms: C_2  and  C_4 
REMARK    2  A    between atoms: C_4  and  N_5 
ROOT
HETATM    1  C   UNK N   1      34.125  16.827   8.620  0.00  0.00     0.348 C 
ENDROOT
BRANCH   1   2
HETATM    2  C   UNK N   1      34.489  18.054   7.824  0.00  0.00     0.199 C 
HETATM    3  O   UNK N   1      34.452  18.019   6.479  0.00  0.00    -0.647 OA
HETATM    4  O   UNK N   1      34.871  19.063   8.393  0.00  0.00    -0.647 OA
ENDBRANCH   1   2
BRANCH   1   5
HETATM    5  N   UNK N   1      32.763  16.328   8.387  0.00  0.00    -0.069 N 
HETATM    6  C   UNK N   1      32.585  15.747   7.063  0.00  0.00     0.272 C 
HETATM    7  C   UNK N   1      31.852  17.450   8.504  0.00  0.00     0.272 C 
HETATM    8  C   UNK N   1      32.402  15.346   9.398  0.00  0.00     0.272 C 
ENDBRANCH   1   5
TORSDOF 2
ENDMDL
MODEL 3
REMARK VINA RESULT:      -3.3      1.909      2.580
REMARK  2 active torsions:
REMARK  status: ('A' for Active; 'I' for Inactive)
REMARK    1  A    between atoms: C_2  and  C_4 
REMARK    2  A    between atoms: C_4  and  N_5 
ROOT
HETATM    1  C   UNK N   1      33.378  17.378   8.252  0.00  0.00     0.348 C 
ENDROOT
BRANCH   1   2
HETATM    2  C   UNK N   1      34.638  18.030   8.761  0.00  0.00     0.199 C 
HETATM    3  O   UNK N   1      35.297  17.495   9.806  0.00  0.00    -0.647 OA
HETATM    4  O   UNK N   1      35.031  19.073   8.267  0.00  0.00    -0.647 OA
ENDBRANCH   1   2
BRANCH   1   5
HETATM    5  N   UNK N   1      33.545  16.607   7.012  0.00  0.00    -0.069 N 
HETATM    6  C   UNK N   1      33.547  17.441   5.817  0.00  0.00     0.272 C 
HETATM    7  C   UNK N   1      32.430  15.686   6.907  0.00  0.00     0.272 C 
HETATM    8  C   UNK N   1      34.772  15.828   7.060  0.00  0.00     0.272 C 
ENDBRANCH   1   5
TORSDOF 2
ENDMDL
MODEL 4
REMARK VINA RESULT:      -3.3     14.686     15.331
REMARK  2 active torsions:
REMARK  status: ('A' for Active; 'I' for Inactive)
REMARK    1  A    between atoms: C_2  and  C_4 
REMARK    2  A    between atoms: C_4  and  N_5 
ROOT
HETATM    1  C   UNK N   1      20.132  19.644   2.566  0.00  0.00     0.348 C 
ENDROOT
BRANCH   1   2
HETATM    2  C   UNK N   1      21.209  20.497   1.945  0.00  0.00     0.199 C 
HETATM    3  O   UNK N   1      22.002  21.252   2.728  0.00  0.00    -0.647 OA
HETATM    4  O   UNK N   1      21.327  20.549   0.733  0.00  0.00    -0.647 OA
ENDBRANCH   1   2
BRANCH   1   5
HETATM    5  N   UNK N   1      20.459  18.214   2.657  0.00  0.00    -0.069 N 
HETATM    6  C   UNK N   1      20.305  17.511   1.391  0.00  0.00     0.272 C 
HETATM    7  C   UNK N   1      19.550  17.611   3.612  0.00  0.00     0.272 C 
HETATM    8  C   UNK N   1      21.816  18.035   3.149  0.00  0.00     0.272 C 
ENDBRANCH   1   5
TORSDOF 2
ENDMDL
MODEL 5
REMARK VINA RESULT:      -3.1      2.044      2.813
REMARK  2 active torsions:
REMARK  status: ('A' for Active; 'I' for Inactive)
REMARK    1  A    between atoms: C_2  and  C_4 
REMARK    2  A    between atoms: C_4  and  N_5 
ROOT
HETATM    1  C   UNK N   1      33.615  16.309   7.478  0.00  0.00     0.348 C 
ENDROOT
BRANCH   1   2
HETATM    2  C   UNK N   1      34.073  17.597   6.841  0.00  0.00     0.199 C 
HETATM    3  O   UNK N   1      34.724  18.517   7.577  0.00  0.00    -0.647 OA
HETATM    4  O   UNK N   1      33.805  17.833   5.675  0.00  0.00    -0.647 OA
ENDBRANCH   1   2
BRANCH   1   5
HETATM    5  N   UNK N   1      32.241  16.338   7.999  0.00  0.00    -0.069 N 
HETATM    6  C   UNK N   1      31.825  17.663   8.440  0.00  0.00     0.272 C 
HETATM    7  C   UNK N   1      32.181  15.451   9.144  0.00  0.00     0.272 C 
HETATM    8  C   UNK N   1      31.308  15.847   6.998  0.00  0.00     0.272 C 
ENDBRANCH   1   5
TORSDOF 2
ENDMDL
MODEL 6
REMARK VINA RESULT:      -2.9     13.558     14.285
REMARK  2 active torsions:
REMARK  status: ('A' for Active; 'I' for Inactive)
REMARK    1  A    between atoms: C_2  and  C_4 
REMARK    2  A    between atoms: C_4  and  N_5 
ROOT
HETATM    1  C   UNK N   1      21.067  18.754   2.902  0.00  0.00     0.348 C 
ENDROOT
BRANCH   1   2
HETATM    2  C   UNK N   1      20.999  20.260   2.902  0.00  0.00     0.199 C 
HETATM    3  O   UNK N   1      20.262  20.899   3.830  0.00  0.00    -0.647 OA
HETATM    4  O   UNK N   1      21.564  20.899   2.031  0.00  0.00    -0.647 OA
ENDBRANCH   1   2
BRANCH   1   5
HETATM    5  N   UNK N   1      21.960  18.181   3.919  0.00  0.00    -0.069 N 
HETATM    6  C   UNK N   1      21.421  18.273   5.269  0.00  0.00     0.272 C 
HETATM    7  C   UNK N   1      23.204  18.924   3.888  0.00  0.00     0.272 C 
HETATM    8  C   UNK N   1      22.256  16.791   3.609  0.00  0.00     0.272 C 
ENDBRANCH   1   5
TORSDOF 2
ENDMDL
MODEL 7
REMARK VINA RESULT:      -2.9     10.725     11.682
REMARK  2 active torsions:
REMARK  status: ('A' for Active; 'I' for Inactive)
REMARK    1  A    between atoms: C_2  and  C_4 
REMARK    2  A    between atoms: C_4  and  N_5 
ROOT
HETATM    1  C   UNK N   1      43.893  21.696   2.791  0.00  0.00     0.348 C 
ENDROOT
BRANCH   1   2
HETATM    2  C   UNK N   1      43.881  22.788   3.830  0.00  0.00     0.199 C 
HETATM    3  O   UNK N   1      43.998  24.075   3.453  0.00  0.00    -0.647 OA
HETATM    4  O   UNK N   1      43.822  22.506   5.015  0.00  0.00    -0.647 OA
ENDBRANCH   1   2
BRANCH   1   5
HETATM    5  N   UNK N   1      42.565  21.199   2.408  0.00  0.00    -0.069 N 
HETATM    6  C   UNK N   1      42.001  20.268   3.376  0.00  0.00     0.272 C 
HETATM    7  C   UNK N   1      42.699  20.497   1.146  0.00  0.00     0.272 C 
HETATM    8  C   UNK N   1      41.645  22.309   2.212  0.00  0.00     0.272 C 
ENDBRANCH   1   5
TORSDOF 2
ENDMDL
MODEL 8
REMARK VINA RESULT:      -2.9      2.599      2.960
REMARK  2 active torsions:
REMARK  status: ('A' for Active; 'I' for Inactive)
REMARK    1  A    between atoms: C_2  and  C_4 
REMARK    2  A    between atoms: C_4  and  N_5 
ROOT
HETATM    1  C   UNK N   1      34.568  15.190  10.999  0.00  0.00     0.348 C 
ENDROOT
BRANCH   1   2
HETATM    2  C   UNK N   1      35.038  16.231  10.015  0.00  0.00     0.199 C 
HETATM    3  O   UNK N   1      35.604  17.369  10.459  0.00  0.00    -0.647 OA
HETATM    4  O   UNK N   1      34.854  16.072   8.820  0.00  0.00    -0.647 OA
ENDBRANCH   1   2
BRANCH   1   5
HETATM    5  N   UNK N   1      35.630  14.322  11.525  0.00  0.00    -0.069 N 
HETATM    6  C   UNK N   1      36.775  14.212  10.630  0.00  0.00     0.272 C 
HETATM    7  C   UNK N   1      35.074  12.993  11.696  0.00  0.00     0.272 C 
HETATM    8  C   UNK N   1      36.077  14.795  12.826  0.00  0.00     0.272 C 
ENDBRANCH   1   5
TORSDOF 2
ENDMDL
MODEL 9
REMARK VINA RESULT:      -2.9     17.756     18.817
REMARK  2 active torsions:
REMARK  status: ('A' for Active; 'I' for Inactive)
REMARK    1  A    between atoms: C_2  and  C_4 
REMARK    2  A    between atoms: C_4  and  N_5 
ROOT
HETATM    1  C   UNK N   1      26.847  26.008  -4.992  0.00  0.00     0.348 C 
ENDROOT
BRANCH   1   2
HETATM    2  C   UNK N   1      26.062  24.780  -4.608  0.00  0.00     0.199 C 
HETATM    3  O   UNK N   1      25.254  24.189  -5.508  0.00  0.00    -0.647 OA
HETATM    4  O   UNK N   1      26.111  24.353  -3.467  0.00  0.00    -0.647 OA
ENDBRANCH   1   2
BRANCH   1   5
HETATM    5  N   UNK N   1      26.093  27.267  -4.911  0.00  0.00    -0.069 N 
HETATM    6  C   UNK N   1      26.813  28.401  -5.475  0.00  0.00     0.272 C 
HETATM    7  C   UNK N   1      25.851  27.550  -3.510  0.00  0.00     0.272 C 
HETATM    8  C   UNK N   1      24.806  27.132  -5.574  0.00  0.00     0.272 C 
ENDBRANCH   1   5
TORSDOF 2
ENDMDL
