REMARK  10 active torsions:
REMARK  status: ('A' for Active; 'I' for Inactive)
REMARK    1  A    between atoms: C_1  and  C_2 
REMARK    2  A    between atoms: C_5  and  C_7 
REMARK    3  A    between atoms: C_8  and  C_10 
REMARK    4  A    between atoms: C_11  and  C_12 
REMARK    5  A    between atoms: C_13  and  C_15 
REMARK    6  A    between atoms: C_16  and  C_17 
REMARK    7  A    between atoms: C_18  and  C_19 
REMARK    8  A    between atoms: C_21  and  C_22 
REMARK    9  A    between atoms: C_23  and  C_24 
REMARK   10  A    between atoms: C_26  and  C_27 
ROOT
HETATM    1  C   UNK N   1      -0.548  -0.440  -2.297  0.00  0.00     0.001 C 
HETATM    2  C   UNK N   1       0.563   0.310  -2.302  0.00  0.00     0.001 C 
ENDROOT
BRANCH   1   3
HETATM    3  C   UNK N   1      -1.418  -0.859  -1.175  0.00  0.00     0.007 C 
HETATM    4  C   UNK N   1      -1.889  -0.052  -0.217  0.00  0.00    -0.062 C 
HETATM    5  C   UNK N   1      -1.526   1.405  -0.185  0.00  0.00     0.048 C 
BRANCH   4   6
HETATM    6  C   UNK N   1      -2.973  -0.594   0.641  0.00  0.00     0.007 C 
HETATM    7  C   UNK N   1      -4.100   0.082   0.936  0.00  0.00     0.001 C 
BRANCH   7   8
HETATM    8  C   UNK N   1      -4.343   1.445   0.424  0.00  0.00     0.007 C 
HETATM    9  C   UNK N   1      -5.522   1.987   0.082  0.00  0.00    -0.062 C 
HETATM   10  C   UNK N   1      -5.510   3.396  -0.397  0.00  0.00     0.048 C 
BRANCH   9  11
HETATM   11  C   UNK N   1      -6.831   1.294   0.093  0.00  0.00     0.007 C 
HETATM   12  C   UNK N   1      -7.034  -0.002   0.345  0.00  0.00     0.009 C 
BRANCH  12  13
HETATM   13  C   UNK N   1      -8.406  -0.603   0.330  0.00  0.00    -0.048 C 
HETATM   14  C   UNK N   1      -8.534  -1.948   0.496  0.00  0.00    -0.077 C 
HETATM   15  C   UNK N   1      -9.876  -2.637   0.440  0.00  0.00     0.034 C 
HETATM   16  C   UNK N   1      -7.336  -2.818   0.714  0.00  0.00     0.044 C 
HETATM   17  C   UNK N   1     -10.897  -1.839  -0.353  0.00  0.00     0.005 C 
HETATM   18  C   UNK N   1     -10.969  -0.458   0.258  0.00  0.00     0.014 C 
HETATM   19  C   UNK N   1      -9.643   0.288   0.103  0.00  0.00    -0.020 C 
HETATM   20  C   UNK N   1      -9.679   1.415   1.120  0.00  0.00     0.020 C 
HETATM   21  C   UNK N   1      -9.591   0.893  -1.293  0.00  0.00     0.020 C 
ENDBRANCH  12  13
ENDBRANCH   9  11
ENDBRANCH   7   8
ENDBRANCH   4   6
ENDBRANCH   1   3
BRANCH   2  22
HETATM   22  C   UNK N   1       1.424   0.760  -1.184  0.00  0.00     0.007 C 
HETATM   23  C   UNK N   1       1.872  -0.012  -0.187  0.00  0.00    -0.062 C 
HETATM   24  C   UNK N   1       1.493  -1.462  -0.098  0.00  0.00     0.048 C 
BRANCH  23  25
HETATM   25  C   UNK N   1       2.957   0.549   0.656  0.00  0.00     0.007 C 
HETATM   26  C   UNK N   1       4.095  -0.117   0.936  0.00  0.00     0.001 C 
BRANCH  26  27
HETATM   27  C   UNK N   1       4.338  -1.478   0.418  0.00  0.00     0.007 C 
HETATM   28  C   UNK N   1       5.516  -2.020   0.073  0.00  0.00    -0.062 C 
HETATM   29  C   UNK N   1       5.502  -3.426  -0.413  0.00  0.00     0.048 C 
BRANCH  28  30
HETATM   30  C   UNK N   1       6.826  -1.329   0.086  0.00  0.00     0.007 C 
HETATM   31  C   UNK N   1       7.032  -0.035   0.345  0.00  0.00     0.009 C 
BRANCH  31  32
HETATM   32  C   UNK N   1       8.405   0.562   0.332  0.00  0.00    -0.048 C 
HETATM   33  C   UNK N   1       8.538   1.907   0.504  0.00  0.00    -0.077 C 
HETATM   34  C   UNK N   1       9.881   2.591   0.451  0.00  0.00     0.034 C 
HETATM   35  C   UNK N   1       7.341   2.778   0.726  0.00  0.00     0.044 C 
HETATM   36  C   UNK N   1      10.899   1.794  -0.346  0.00  0.00     0.005 C 
HETATM   37  C   UNK N   1      10.969   0.410   0.260  0.00  0.00     0.014 C 
HETATM   38  C   UNK N   1       9.640  -0.331   0.101  0.00  0.00    -0.020 C 
HETATM   39  C   UNK N   1       9.587  -0.930  -1.297  0.00  0.00     0.020 C 
HETATM   40  C   UNK N   1       9.673  -1.463   1.114  0.00  0.00     0.020 C 
ENDBRANCH  31  32
ENDBRANCH  28  30
ENDBRANCH  26  27
ENDBRANCH  23  25
ENDBRANCH   2  22
TORSDOF 10
