MODEL 1
REMARK VINA RESULT:      -8.4      0.000      0.000
REMARK  10 active torsions:
REMARK  status: ('A' for Active; 'I' for Inactive)
REMARK    1  A    between atoms: C_1  and  C_2 
REMARK    2  A    between atoms: C_5  and  C_7 
REMARK    3  A    between atoms: C_8  and  C_10 
REMARK    4  A    between atoms: C_11  and  C_12 
REMARK    5  A    between atoms: C_13  and  C_15 
REMARK    6  A    between atoms: C_16  and  C_17 
REMARK    7  A    between atoms: C_18  and  C_19 
REMARK    8  A    between atoms: C_21  and  C_22 
REMARK    9  A    between atoms: C_23  and  C_24 
REMARK   10  A    between atoms: C_26  and  C_27 
ROOT
HETATM    1  C   UNK N   1      22.489  16.177   4.315  0.00  0.00     0.001 C 
HETATM    2  C   UNK N   1      22.863  17.406   4.697  0.00  0.00     0.001 C 
ENDROOT
BRANCH   1   3
HETATM    3  C   UNK N   1      23.233  14.897   4.337  0.00  0.00     0.007 C 
HETATM    4  C   UNK N   1      24.293  14.605   3.575  0.00  0.00    -0.062 C 
HETATM    5  C   UNK N   1      24.814  15.586   2.564  0.00  0.00     0.048 C 
BRANCH   4   6
HETATM    6  C   UNK N   1      25.074  13.398   3.949  0.00  0.00     0.007 C 
HETATM    7  C   UNK N   1      26.088  13.410   4.835  0.00  0.00     0.001 C 
BRANCH   7   8
HETATM    8  C   UNK N   1      26.513  14.652   5.509  0.00  0.00     0.007 C 
HETATM    9  C   UNK N   1      26.178  15.065   6.741  0.00  0.00    -0.062 C 
HETATM   10  C   UNK N   1      26.752  16.357   7.206  0.00  0.00     0.048 C 
BRANCH   9  11
HETATM   11  C   UNK N   1      25.250  14.373   7.665  0.00  0.00     0.007 C 
HETATM   12  C   UNK N   1      23.931  14.237   7.500  0.00  0.00     0.009 C 
BRANCH  12  13
HETATM   13  C   UNK N   1      23.082  13.515   8.501  0.00  0.00    -0.048 C 
HETATM   14  C   UNK N   1      21.850  14.015   8.797  0.00  0.00    -0.077 C 
HETATM   15  C   UNK N   1      20.956  13.377   9.832  0.00  0.00     0.034 C 
HETATM   16  C   UNK N   1      21.334  15.248   8.124  0.00  0.00     0.044 C 
HETATM   17  C   UNK N   1      21.743  12.565  10.847  0.00  0.00     0.005 C 
HETATM   18  C   UNK N   1      22.568  11.556  10.080  0.00  0.00     0.014 C 
HETATM   19  C   UNK N   1      23.610  12.246   9.199  0.00  0.00    -0.020 C 
HETATM   20  C   UNK N   1      24.034  11.213   8.170  0.00  0.00     0.020 C 
HETATM   21  C   UNK N   1      24.814  12.598  10.061  0.00  0.00     0.020 C 
ENDBRANCH  12  13
ENDBRANCH   9  11
ENDBRANCH   7   8
ENDBRANCH   4   6
ENDBRANCH   1   3
BRANCH   2  22
HETATM   22  C   UNK N   1      24.202  17.943   5.032  0.00  0.00     0.007 C 
HETATM   23  C   UNK N   1      24.771  19.018   4.475  0.00  0.00    -0.062 C 
HETATM   24  C   UNK N   1      24.078  19.787   3.387  0.00  0.00     0.048 C 
BRANCH  23  25
HETATM   25  C   UNK N   1      25.972  19.566   5.154  0.00  0.00     0.007 C 
HETATM   26  C   UNK N   1      27.218  19.095   4.947  0.00  0.00     0.001 C 
BRANCH  26  27
HETATM   27  C   UNK N   1      27.474  17.977   4.018  0.00  0.00     0.007 C 
HETATM   28  C   UNK N   1      28.585  17.231   3.928  0.00  0.00    -0.062 C 
HETATM   29  C   UNK N   1      28.595  16.144   2.912  0.00  0.00     0.048 C 
BRANCH  28  30
HETATM   30  C   UNK N   1      29.825  17.422   4.716  0.00  0.00     0.007 C 
HETATM   31  C   UNK N   1      30.304  16.591   5.645  0.00  0.00     0.009 C 
BRANCH  31  32
HETATM   32  C   UNK N   1      31.573  16.883   6.384  0.00  0.00    -0.048 C 
HETATM   33  C   UNK N   1      31.496  17.357   7.659  0.00  0.00    -0.077 C 
HETATM   34  C   UNK N   1      32.726  17.725   8.451  0.00  0.00     0.034 C 
HETATM   35  C   UNK N   1      30.172  17.564   8.326  0.00  0.00     0.044 C 
HETATM   36  C   UNK N   1      33.905  18.061   7.554  0.00  0.00     0.005 C 
HETATM   37  C   UNK N   1      34.130  16.881   6.636  0.00  0.00     0.014 C 
HETATM   38  C   UNK N   1      32.939  16.674   5.700  0.00  0.00    -0.020 C 
HETATM   39  C   UNK N   1      33.077  17.632   4.525  0.00  0.00     0.020 C 
HETATM   40  C   UNK N   1      33.060  15.250   5.183  0.00  0.00     0.020 C 
ENDBRANCH  31  32
ENDBRANCH  28  30
ENDBRANCH  26  27
ENDBRANCH  23  25
ENDBRANCH   2  22
TORSDOF 10
ENDMDL
MODEL 2
REMARK VINA RESULT:      -8.2     12.852     16.518
REMARK  10 active torsions:
REMARK  status: ('A' for Active; 'I' for Inactive)
REMARK    1  A    between atoms: C_1  and  C_2 
REMARK    2  A    between atoms: C_5  and  C_7 
REMARK    3  A    between atoms: C_8  and  C_10 
REMARK    4  A    between atoms: C_11  and  C_12 
REMARK    5  A    between atoms: C_13  and  C_15 
REMARK    6  A    between atoms: C_16  and  C_17 
REMARK    7  A    between atoms: C_18  and  C_19 
REMARK    8  A    between atoms: C_21  and  C_22 
REMARK    9  A    between atoms: C_23  and  C_24 
REMARK   10  A    between atoms: C_26  and  C_27 
ROOT
HETATM    1  C   UNK N   1      30.768  27.307  -3.499  0.00  0.00     0.001 C 
HETATM    2  C   UNK N   1      31.099  26.010  -3.424  0.00  0.00     0.001 C 
ENDROOT
BRANCH   1   3
HETATM    3  C   UNK N   1      29.443  27.964  -3.447  0.00  0.00     0.007 C 
HETATM    4  C   UNK N   1      29.234  29.285  -3.406  0.00  0.00    -0.062 C 
HETATM    5  C   UNK N   1      30.385  30.249  -3.372  0.00  0.00     0.048 C 
BRANCH   4   6
HETATM    6  C   UNK N   1      27.847  29.751  -3.655  0.00  0.00     0.007 C 
HETATM    7  C   UNK N   1      27.390  30.122  -4.866  0.00  0.00     0.001 C 
BRANCH   7   8
HETATM    8  C   UNK N   1      28.256  30.101  -6.061  0.00  0.00     0.007 C 
HETATM    9  C   UNK N   1      28.407  29.096  -6.938  0.00  0.00    -0.062 C 
HETATM   10  C   UNK N   1      29.335  29.323  -8.079  0.00  0.00     0.048 C 
BRANCH   9  11
HETATM   11  C   UNK N   1      27.769  27.762  -6.847  0.00  0.00     0.007 C 
HETATM   12  C   UNK N   1      28.306  26.668  -6.300  0.00  0.00     0.009 C 
BRANCH  12  13
HETATM   13  C   UNK N   1      27.570  25.364  -6.262  0.00  0.00    -0.048 C 
HETATM   14  C   UNK N   1      27.948  24.373  -7.115  0.00  0.00    -0.077 C 
HETATM   15  C   UNK N   1      27.224  23.050  -7.176  0.00  0.00     0.034 C 
HETATM   16  C   UNK N   1      29.091  24.563  -8.063  0.00  0.00     0.044 C 
HETATM   17  C   UNK N   1      25.794  23.156  -6.672  0.00  0.00     0.005 C 
HETATM   18  C   UNK N   1      25.845  23.736  -5.277  0.00  0.00     0.014 C 
HETATM   19  C   UNK N   1      26.391  25.165  -5.289  0.00  0.00    -0.020 C 
HETATM   20  C   UNK N   1      26.824  25.456  -3.863  0.00  0.00     0.020 C 
HETATM   21  C   UNK N   1      25.256  26.111  -5.657  0.00  0.00     0.020 C 
ENDBRANCH  12  13
ENDBRANCH   9  11
ENDBRANCH   7   8
ENDBRANCH   4   6
ENDBRANCH   1   3
BRANCH   2  22
HETATM   22  C   UNK N   1      30.255  24.796  -3.514  0.00  0.00     0.007 C 
HETATM   23  C   UNK N   1      30.397  23.813  -4.411  0.00  0.00    -0.062 C 
HETATM   24  C   UNK N   1      31.457  23.879  -5.473  0.00  0.00     0.048 C 
BRANCH  23  25
HETATM   25  C   UNK N   1      29.656  22.555  -4.146  0.00  0.00     0.007 C 
HETATM   26  C   UNK N   1      30.238  21.444  -3.652  0.00  0.00     0.001 C 
BRANCH  26  27
HETATM   27  C   UNK N   1      31.681  21.403  -3.342  0.00  0.00     0.007 C 
HETATM   28  C   UNK N   1      32.652  20.815  -4.058  0.00  0.00    -0.062 C 
HETATM   29  C   UNK N   1      34.042  20.926  -3.540  0.00  0.00     0.048 C 
BRANCH  28  30
HETATM   30  C   UNK N   1      32.459  20.023  -5.294  0.00  0.00     0.007 C 
HETATM   31  C   UNK N   1      32.268  20.512  -6.522  0.00  0.00     0.009 C 
BRANCH  31  32
HETATM   32  C   UNK N   1      32.084  19.615  -7.707  0.00  0.00    -0.048 C 
HETATM   33  C   UNK N   1      30.821  19.248  -8.064  0.00  0.00    -0.077 C 
HETATM   34  C   UNK N   1      30.555  18.307  -9.211  0.00  0.00     0.034 C 
HETATM   35  C   UNK N   1      29.630  19.746  -7.305  0.00  0.00     0.044 C 
HETATM   36  C   UNK N   1      31.748  17.415  -9.509  0.00  0.00     0.005 C 
HETATM   37  C   UNK N   1      32.940  18.315  -9.752  0.00  0.00     0.014 C 
HETATM   38  C   UNK N   1      33.307  19.098  -8.490  0.00  0.00    -0.020 C 
HETATM   39  C   UNK N   1      34.149  18.201  -7.594  0.00  0.00     0.020 C 
HETATM   40  C   UNK N   1      34.166  20.261  -8.959  0.00  0.00     0.020 C 
ENDBRANCH  31  32
ENDBRANCH  28  30
ENDBRANCH  26  27
ENDBRANCH  23  25
ENDBRANCH   2  22
TORSDOF 10
ENDMDL
MODEL 3
REMARK VINA RESULT:      -8.1     12.779     16.491
REMARK  10 active torsions:
REMARK  status: ('A' for Active; 'I' for Inactive)
REMARK    1  A    between atoms: C_1  and  C_2 
REMARK    2  A    between atoms: C_5  and  C_7 
REMARK    3  A    between atoms: C_8  and  C_10 
REMARK    4  A    between atoms: C_11  and  C_12 
REMARK    5  A    between atoms: C_13  and  C_15 
REMARK    6  A    between atoms: C_16  and  C_17 
REMARK    7  A    between atoms: C_18  and  C_19 
REMARK    8  A    between atoms: C_21  and  C_22 
REMARK    9  A    between atoms: C_23  and  C_24 
REMARK   10  A    between atoms: C_26  and  C_27 
ROOT
HETATM    1  C   UNK N   1      30.454  26.295  -7.012  0.00  0.00     0.001 C 
HETATM    2  C   UNK N   1      31.104  25.281  -6.425  0.00  0.00     0.001 C 
ENDROOT
BRANCH   1   3
HETATM    3  C   UNK N   1      29.023  26.671  -6.969  0.00  0.00     0.007 C 
HETATM    4  C   UNK N   1      28.480  27.556  -6.124  0.00  0.00    -0.062 C 
HETATM    5  C   UNK N   1      29.315  28.244  -5.082  0.00  0.00     0.048 C 
BRANCH   4   6
HETATM    6  C   UNK N   1      27.100  28.012  -6.430  0.00  0.00     0.007 C 
HETATM    7  C   UNK N   1      25.999  27.502  -5.846  0.00  0.00     0.001 C 
BRANCH   7   8
HETATM    8  C   UNK N   1      26.083  26.421  -4.844  0.00  0.00     0.007 C 
HETATM    9  C   UNK N   1      26.175  25.102  -5.076  0.00  0.00    -0.062 C 
HETATM   10  C   UNK N   1      26.263  24.207  -3.890  0.00  0.00     0.048 C 
BRANCH   9  11
HETATM   11  C   UNK N   1      26.149  24.452  -6.406  0.00  0.00     0.007 C 
HETATM   12  C   UNK N   1      27.001  23.520  -6.844  0.00  0.00     0.009 C 
BRANCH  12  13
HETATM   13  C   UNK N   1      26.884  22.926  -8.214  0.00  0.00    -0.048 C 
HETATM   14  C   UNK N   1      26.037  21.877  -8.403  0.00  0.00    -0.077 C 
HETATM   15  C   UNK N   1      25.902  21.189  -9.740  0.00  0.00     0.034 C 
HETATM   16  C   UNK N   1      25.215  21.334  -7.277  0.00  0.00     0.044 C 
HETATM   17  C   UNK N   1      27.137  21.372 -10.606  0.00  0.00     0.005 C 
HETATM   18  C   UNK N   1      27.387  22.858 -10.731  0.00  0.00     0.014 C 
HETATM   19  C   UNK N   1      27.730  23.480  -9.377  0.00  0.00    -0.020 C 
HETATM   20  C   UNK N   1      27.502  24.973  -9.535  0.00  0.00     0.020 C 
HETATM   21  C   UNK N   1      29.207  23.240  -9.097  0.00  0.00     0.020 C 
ENDBRANCH  12  13
ENDBRANCH   9  11
ENDBRANCH   7   8
ENDBRANCH   4   6
ENDBRANCH   1   3
BRANCH   2  22
HETATM   22  C   UNK N   1      30.585  24.070  -5.748  0.00  0.00     0.007 C 
HETATM   23  C   UNK N   1      30.362  23.948  -4.435  0.00  0.00    -0.062 C 
HETATM   24  C   UNK N   1      30.664  25.073  -3.488  0.00  0.00     0.048 C 
BRANCH  23  25
HETATM   25  C   UNK N   1      29.563  22.775  -4.000  0.00  0.00     0.007 C 
HETATM   26  C   UNK N   1      30.110  21.665  -3.467  0.00  0.00     0.001 C 
BRANCH  26  27
HETATM   27  C   UNK N   1      31.570  21.537  -3.284  0.00  0.00     0.007 C 
HETATM   28  C   UNK N   1      32.447  20.957  -4.118  0.00  0.00    -0.062 C 
HETATM   29  C   UNK N   1      33.879  20.968  -3.714  0.00  0.00     0.048 C 
BRANCH  28  30
HETATM   30  C   UNK N   1      32.114  20.263  -5.383  0.00  0.00     0.007 C 
HETATM   31  C   UNK N   1      31.902  20.842  -6.568  0.00  0.00     0.009 C 
BRANCH  31  32
HETATM   32  C   UNK N   1      31.571  20.041  -7.788  0.00  0.00    -0.048 C 
HETATM   33  C   UNK N   1      30.266  19.744  -8.045  0.00  0.00    -0.077 C 
HETATM   34  C   UNK N   1      29.855  18.898  -9.224  0.00  0.00     0.034 C 
HETATM   35  C   UNK N   1      29.174  20.226  -7.141  0.00  0.00     0.044 C 
HETATM   36  C   UNK N   1      30.977  17.991  -9.696  0.00  0.00     0.005 C 
HETATM   37  C   UNK N   1      32.176  18.865  -9.991  0.00  0.00     0.014 C 
HETATM   38  C   UNK N   1      32.693  19.541  -8.720  0.00  0.00    -0.020 C 
HETATM   39  C   UNK N   1      33.578  18.553  -7.974  0.00  0.00     0.020 C 
HETATM   40  C   UNK N   1      33.550  20.705  -9.189  0.00  0.00     0.020 C 
ENDBRANCH  31  32
ENDBRANCH  28  30
ENDBRANCH  26  27
ENDBRANCH  23  25
ENDBRANCH   2  22
TORSDOF 10
ENDMDL
MODEL 4
REMARK VINA RESULT:      -8.1     12.732     16.696
REMARK  10 active torsions:
REMARK  status: ('A' for Active; 'I' for Inactive)
REMARK    1  A    between atoms: C_1  and  C_2 
REMARK    2  A    between atoms: C_5  and  C_7 
REMARK    3  A    between atoms: C_8  and  C_10 
REMARK    4  A    between atoms: C_11  and  C_12 
REMARK    5  A    between atoms: C_13  and  C_15 
REMARK    6  A    between atoms: C_16  and  C_17 
REMARK    7  A    between atoms: C_18  and  C_19 
REMARK    8  A    between atoms: C_21  and  C_22 
REMARK    9  A    between atoms: C_23  and  C_24 
REMARK   10  A    between atoms: C_26  and  C_27 
ROOT
HETATM    1  C   UNK N   1      31.150  25.399  -6.220  0.00  0.00     0.001 C 
HETATM    2  C   UNK N   1      30.504  26.432  -6.779  0.00  0.00     0.001 C 
ENDROOT
BRANCH   1   3
HETATM    3  C   UNK N   1      30.626  24.163  -5.596  0.00  0.00     0.007 C 
HETATM    4  C   UNK N   1      30.359  24.007  -4.294  0.00  0.00    -0.062 C 
HETATM    5  C   UNK N   1      30.615  25.115  -3.313  0.00  0.00     0.048 C 
BRANCH   4   6
HETATM    6  C   UNK N   1      29.570  22.808  -3.912  0.00  0.00     0.007 C 
HETATM    7  C   UNK N   1      30.116  21.685  -3.407  0.00  0.00     0.001 C 
BRANCH   7   8
HETATM    8  C   UNK N   1      31.571  21.557  -3.198  0.00  0.00     0.007 C 
HETATM    9  C   UNK N   1      32.460  20.963  -4.009  0.00  0.00    -0.062 C 
HETATM   10  C   UNK N   1      33.886  20.976  -3.583  0.00  0.00     0.048 C 
BRANCH   9  11
HETATM   11  C   UNK N   1      32.144  20.253  -5.270  0.00  0.00     0.007 C 
HETATM   12  C   UNK N   1      31.929  20.820  -6.461  0.00  0.00     0.009 C 
BRANCH  12  13
HETATM   13  C   UNK N   1      31.615  20.004  -7.677  0.00  0.00    -0.048 C 
HETATM   14  C   UNK N   1      30.316  19.701  -7.946  0.00  0.00    -0.077 C 
HETATM   15  C   UNK N   1      29.921  18.840  -9.121  0.00  0.00     0.034 C 
HETATM   16  C   UNK N   1      29.210  20.188  -7.063  0.00  0.00     0.044 C 
HETATM   17  C   UNK N   1      31.052  17.931  -9.570  0.00  0.00     0.005 C 
HETATM   18  C   UNK N   1      32.252  18.805  -9.857  0.00  0.00     0.014 C 
HETATM   19  C   UNK N   1      32.751  19.498  -8.588  0.00  0.00    -0.020 C 
HETATM   20  C   UNK N   1      33.611  20.657  -9.059  0.00  0.00     0.020 C 
HETATM   21  C   UNK N   1      33.629  18.520  -7.819  0.00  0.00     0.020 C 
ENDBRANCH  12  13
ENDBRANCH   9  11
ENDBRANCH   7   8
ENDBRANCH   4   6
ENDBRANCH   1   3
BRANCH   2  22
HETATM   22  C   UNK N   1      29.071  26.802  -6.743  0.00  0.00     0.007 C 
HETATM   23  C   UNK N   1      28.512  27.670  -5.891  0.00  0.00    -0.062 C 
HETATM   24  C   UNK N   1      29.328  28.348  -4.828  0.00  0.00     0.048 C 
BRANCH  23  25
HETATM   25  C   UNK N   1      27.138  28.129  -6.210  0.00  0.00     0.007 C 
HETATM   26  C   UNK N   1      26.033  27.611  -5.636  0.00  0.00     0.001 C 
BRANCH  26  27
HETATM   27  C   UNK N   1      26.121  26.527  -4.637  0.00  0.00     0.007 C 
HETATM   28  C   UNK N   1      26.225  25.210  -4.871  0.00  0.00    -0.062 C 
HETATM   29  C   UNK N   1      26.312  24.313  -3.688  0.00  0.00     0.048 C 
BRANCH  28  30
HETATM   30  C   UNK N   1      26.213  24.562  -6.203  0.00  0.00     0.007 C 
HETATM   31  C   UNK N   1      27.039  23.598  -6.618  0.00  0.00     0.009 C 
BRANCH  31  32
HETATM   32  C   UNK N   1      26.937  23.010  -7.991  0.00  0.00    -0.048 C 
HETATM   33  C   UNK N   1      26.059  21.991  -8.206  0.00  0.00    -0.077 C 
HETATM   34  C   UNK N   1      25.935  21.312  -9.547  0.00  0.00     0.034 C 
HETATM   35  C   UNK N   1      25.190  21.477  -7.101  0.00  0.00     0.044 C 
HETATM   36  C   UNK N   1      27.197  21.453 -10.380  0.00  0.00     0.005 C 
HETATM   37  C   UNK N   1      27.503  22.930 -10.496  0.00  0.00     0.014 C 
HETATM   38  C   UNK N   1      27.832  23.536  -9.131  0.00  0.00    -0.020 C 
HETATM   39  C   UNK N   1      29.292  23.244  -8.814  0.00  0.00     0.020 C 
HETATM   40  C   UNK N   1      27.660  25.037  -9.291  0.00  0.00     0.020 C 
ENDBRANCH  31  32
ENDBRANCH  28  30
ENDBRANCH  26  27
ENDBRANCH  23  25
ENDBRANCH   2  22
TORSDOF 10
ENDMDL
MODEL 5
REMARK VINA RESULT:      -7.8     12.971     16.501
REMARK  10 active torsions:
REMARK  status: ('A' for Active; 'I' for Inactive)
REMARK    1  A    between atoms: C_1  and  C_2 
REMARK    2  A    between atoms: C_5  and  C_7 
REMARK    3  A    between atoms: C_8  and  C_10 
REMARK    4  A    between atoms: C_11  and  C_12 
REMARK    5  A    between atoms: C_13  and  C_15 
REMARK    6  A    between atoms: C_16  and  C_17 
REMARK    7  A    between atoms: C_18  and  C_19 
REMARK    8  A    between atoms: C_21  and  C_22 
REMARK    9  A    between atoms: C_23  and  C_24 
REMARK   10  A    between atoms: C_26  and  C_27 
ROOT
HETATM    1  C   UNK N   1      27.069  24.187  -3.062  0.00  0.00     0.001 C 
HETATM    2  C   UNK N   1      28.300  23.658  -3.076  0.00  0.00     0.001 C 
ENDROOT
BRANCH   1   3
HETATM    3  C   UNK N   1      26.465  25.236  -3.914  0.00  0.00     0.007 C 
HETATM    4  C   UNK N   1      25.848  25.025  -5.083  0.00  0.00    -0.062 C 
HETATM    5  C   UNK N   1      25.745  23.645  -5.665  0.00  0.00     0.048 C 
BRANCH   4   6
HETATM    6  C   UNK N   1      25.058  26.154  -5.636  0.00  0.00     0.007 C 
HETATM    7  C   UNK N   1      25.428  26.864  -6.719  0.00  0.00     0.001 C 
BRANCH   7   8
HETATM    8  C   UNK N   1      26.678  26.571  -7.448  0.00  0.00     0.007 C 
HETATM    9  C   UNK N   1      27.919  26.969  -7.128  0.00  0.00    -0.062 C 
HETATM   10  C   UNK N   1      29.026  26.529  -8.019  0.00  0.00     0.048 C 
BRANCH   9  11
HETATM   11  C   UNK N   1      28.282  27.846  -5.991  0.00  0.00     0.007 C 
HETATM   12  C   UNK N   1      28.626  27.444  -4.765  0.00  0.00     0.009 C 
BRANCH  12  13
HETATM   13  C   UNK N   1      28.976  28.421  -3.684  0.00  0.00    -0.048 C 
HETATM   14  C   UNK N   1      27.970  29.067  -3.033  0.00  0.00    -0.077 C 
HETATM   15  C   UNK N   1      28.241  30.104  -1.970  0.00  0.00     0.034 C 
HETATM   16  C   UNK N   1      26.536  28.797  -3.365  0.00  0.00     0.044 C 
HETATM   17  C   UNK N   1      29.615  30.734  -2.121  0.00  0.00     0.005 C 
HETATM   18  C   UNK N   1      30.631  29.615  -2.124  0.00  0.00     0.014 C 
HETATM   19  C   UNK N   1      30.452  28.705  -3.340  0.00  0.00    -0.020 C 
HETATM   20  C   UNK N   1      31.176  27.413  -3.003  0.00  0.00     0.020 C 
HETATM   21  C   UNK N   1      31.142  29.353  -4.532  0.00  0.00     0.020 C 
ENDBRANCH  12  13
ENDBRANCH   9  11
ENDBRANCH   7   8
ENDBRANCH   4   6
ENDBRANCH   1   3
BRANCH   2  22
HETATM   22  C   UNK N   1      29.531  24.105  -3.769  0.00  0.00     0.007 C 
HETATM   23  C   UNK N   1      29.974  23.644  -4.944  0.00  0.00    -0.062 C 
HETATM   24  C   UNK N   1      29.241  22.559  -5.678  0.00  0.00     0.048 C 
BRANCH  23  25
HETATM   25  C   UNK N   1      31.047  24.427  -5.607  0.00  0.00     0.007 C 
HETATM   26  C   UNK N   1      32.360  24.187  -5.420  0.00  0.00     0.001 C 
BRANCH  26  27
HETATM   27  C   UNK N   1      32.826  23.112  -4.521  0.00  0.00     0.007 C 
HETATM   28  C   UNK N   1      33.032  21.823  -4.831  0.00  0.00    -0.062 C 
HETATM   29  C   UNK N   1      33.520  20.932  -3.744  0.00  0.00     0.048 C 
BRANCH  28  30
HETATM   30  C   UNK N   1      32.770  21.194  -6.146  0.00  0.00     0.007 C 
HETATM   31  C   UNK N   1      31.985  20.138  -6.372  0.00  0.00     0.009 C 
BRANCH  31  32
HETATM   32  C   UNK N   1      31.790  19.582  -7.749  0.00  0.00    -0.048 C 
HETATM   33  C   UNK N   1      32.804  18.873  -8.320  0.00  0.00    -0.077 C 
HETATM   34  C   UNK N   1      32.705  18.326  -9.722  0.00  0.00     0.034 C 
HETATM   35  C   UNK N   1      34.084  18.629  -7.585  0.00  0.00     0.044 C 
HETATM   36  C   UNK N   1      31.707  19.096 -10.569  0.00  0.00     0.005 C 
HETATM   37  C   UNK N   1      30.383  19.080  -9.839  0.00  0.00     0.014 C 
HETATM   38  C   UNK N   1      30.474  19.834  -8.511  0.00  0.00    -0.020 C 
HETATM   39  C   UNK N   1      30.319  21.322  -8.790  0.00  0.00     0.020 C 
HETATM   40  C   UNK N   1      29.286  19.367  -7.687  0.00  0.00     0.020 C 
ENDBRANCH  31  32
ENDBRANCH  28  30
ENDBRANCH  26  27
ENDBRANCH  23  25
ENDBRANCH   2  22
TORSDOF 10
ENDMDL
MODEL 6
REMARK VINA RESULT:      -7.8     13.048     16.414
REMARK  10 active torsions:
REMARK  status: ('A' for Active; 'I' for Inactive)
REMARK    1  A    between atoms: C_1  and  C_2 
REMARK    2  A    between atoms: C_5  and  C_7 
REMARK    3  A    between atoms: C_8  and  C_10 
REMARK    4  A    between atoms: C_11  and  C_12 
REMARK    5  A    between atoms: C_13  and  C_15 
REMARK    6  A    between atoms: C_16  and  C_17 
REMARK    7  A    between atoms: C_18  and  C_19 
REMARK    8  A    between atoms: C_21  and  C_22 
REMARK    9  A    between atoms: C_23  and  C_24 
REMARK   10  A    between atoms: C_26  and  C_27 
ROOT
HETATM    1  C   UNK N   1      28.366  23.653  -3.147  0.00  0.00     0.001 C 
HETATM    2  C   UNK N   1      27.130  24.166  -3.079  0.00  0.00     0.001 C 
ENDROOT
BRANCH   1   3
HETATM    3  C   UNK N   1      29.561  24.124  -3.882  0.00  0.00     0.007 C 
HETATM    4  C   UNK N   1      29.982  23.650  -5.061  0.00  0.00    -0.062 C 
HETATM    5  C   UNK N   1      29.258  22.526  -5.746  0.00  0.00     0.048 C 
BRANCH   4   6
HETATM    6  C   UNK N   1      31.017  24.444  -5.771  0.00  0.00     0.007 C 
HETATM    7  C   UNK N   1      32.341  24.251  -5.616  0.00  0.00     0.001 C 
BRANCH   7   8
HETATM    8  C   UNK N   1      32.873  23.220  -4.703  0.00  0.00     0.007 C 
HETATM    9  C   UNK N   1      33.108  21.929  -4.984  0.00  0.00    -0.062 C 
HETATM   10  C   UNK N   1      33.665  21.086  -3.892  0.00  0.00     0.048 C 
BRANCH   9  11
HETATM   11  C   UNK N   1      32.820  21.255  -6.271  0.00  0.00     0.007 C 
HETATM   12  C   UNK N   1      32.125  20.125  -6.429  0.00  0.00     0.009 C 
BRANCH  12  13
HETATM   13  C   UNK N   1      31.891  19.526  -7.782  0.00  0.00    -0.048 C 
HETATM   14  C   UNK N   1      32.880  18.781  -8.349  0.00  0.00    -0.077 C 
HETATM   15  C   UNK N   1      32.743  18.189  -9.731  0.00  0.00     0.034 C 
HETATM   16  C   UNK N   1      34.172  18.538  -7.634  0.00  0.00     0.044 C 
HETATM   17  C   UNK N   1      31.739  18.947 -10.582  0.00  0.00     0.005 C 
HETATM   18  C   UNK N   1      30.432  18.980  -9.823  0.00  0.00     0.014 C 
HETATM   19  C   UNK N   1      30.563  19.775  -8.524  0.00  0.00    -0.020 C 
HETATM   20  C   UNK N   1      29.386  19.358  -7.660  0.00  0.00     0.020 C 
HETATM   21  C   UNK N   1      30.428  21.256  -8.850  0.00  0.00     0.020 C 
ENDBRANCH  12  13
ENDBRANCH   9  11
ENDBRANCH   7   8
ENDBRANCH   4   6
ENDBRANCH   1   3
BRANCH   2  22
HETATM   22  C   UNK N   1      26.478  25.216  -3.896  0.00  0.00     0.007 C 
HETATM   23  C   UNK N   1      25.860  25.020  -5.066  0.00  0.00    -0.062 C 
HETATM   24  C   UNK N   1      25.801  23.658  -5.694  0.00  0.00     0.048 C 
BRANCH  23  25
HETATM   25  C   UNK N   1      25.017  26.133  -5.571  0.00  0.00     0.007 C 
HETATM   26  C   UNK N   1      25.338  26.871  -6.652  0.00  0.00     0.001 C 
BRANCH  26  27
HETATM   27  C   UNK N   1      26.576  26.621  -7.417  0.00  0.00     0.007 C 
HETATM   28  C   UNK N   1      27.815  27.039  -7.119  0.00  0.00    -0.062 C 
HETATM   29  C   UNK N   1      28.909  26.642  -8.046  0.00  0.00     0.048 C 
BRANCH  28  30
HETATM   30  C   UNK N   1      28.188  27.904  -5.976  0.00  0.00     0.007 C 
HETATM   31  C   UNK N   1      28.606  27.489  -4.777  0.00  0.00     0.009 C 
BRANCH  31  32
HETATM   32  C   UNK N   1      28.959  28.454  -3.688  0.00  0.00    -0.048 C 
HETATM   33  C   UNK N   1      27.955  29.102  -3.034  0.00  0.00    -0.077 C 
HETATM   34  C   UNK N   1      28.230  30.127  -1.963  0.00  0.00     0.034 C 
HETATM   35  C   UNK N   1      26.521  28.843  -3.374  0.00  0.00     0.044 C 
HETATM   36  C   UNK N   1      29.608  30.749  -2.105  0.00  0.00     0.005 C 
HETATM   37  C   UNK N   1      30.618  29.623  -2.112  0.00  0.00     0.014 C 
HETATM   38  C   UNK N   1      30.436  28.725  -3.337  0.00  0.00    -0.020 C 
HETATM   39  C   UNK N   1      31.134  29.378  -4.521  0.00  0.00     0.020 C 
HETATM   40  C   UNK N   1      31.150  27.425  -3.007  0.00  0.00     0.020 C 
ENDBRANCH  31  32
ENDBRANCH  28  30
ENDBRANCH  26  27
ENDBRANCH  23  25
ENDBRANCH   2  22
TORSDOF 10
ENDMDL
MODEL 7
REMARK VINA RESULT:      -7.7      1.531      3.327
REMARK  10 active torsions:
REMARK  status: ('A' for Active; 'I' for Inactive)
REMARK    1  A    between atoms: C_1  and  C_2 
REMARK    2  A    between atoms: C_5  and  C_7 
REMARK    3  A    between atoms: C_8  and  C_10 
REMARK    4  A    between atoms: C_11  and  C_12 
REMARK    5  A    between atoms: C_13  and  C_15 
REMARK    6  A    between atoms: C_16  and  C_17 
REMARK    7  A    between atoms: C_18  and  C_19 
REMARK    8  A    between atoms: C_21  and  C_22 
REMARK    9  A    between atoms: C_23  and  C_24 
REMARK   10  A    between atoms: C_26  and  C_27 
ROOT
HETATM    1  C   UNK N   1      25.226  12.737   2.150  0.00  0.00     0.001 C 
HETATM    2  C   UNK N   1      26.146  13.689   1.937  0.00  0.00     0.001 C 
ENDROOT
BRANCH   1   3
HETATM    3  C   UNK N   1      23.870  12.827   2.737  0.00  0.00     0.007 C 
HETATM    4  C   UNK N   1      22.790  13.317   2.117  0.00  0.00    -0.062 C 
HETATM    5  C   UNK N   1      22.881  13.872   0.725  0.00  0.00     0.048 C 
BRANCH   4   6
HETATM    6  C   UNK N   1      21.475  13.052   2.756  0.00  0.00     0.007 C 
HETATM    7  C   UNK N   1      20.933  13.841   3.703  0.00  0.00     0.001 C 
BRANCH   7   8
HETATM    8  C   UNK N   1      21.623  15.051   4.193  0.00  0.00     0.007 C 
HETATM    9  C   UNK N   1      22.164  15.242   5.406  0.00  0.00    -0.062 C 
HETATM   10  C   UNK N   1      22.824  16.553   5.657  0.00  0.00     0.048 C 
BRANCH   9  11
HETATM   11  C   UNK N   1      22.124  14.284   6.535  0.00  0.00     0.007 C 
HETATM   12  C   UNK N   1      22.406  14.559   7.811  0.00  0.00     0.009 C 
BRANCH  12  13
HETATM   13  C   UNK N   1      22.334  13.511   8.878  0.00  0.00    -0.048 C 
HETATM   14  C   UNK N   1      21.258  13.498   9.713  0.00  0.00    -0.077 C 
HETATM   15  C   UNK N   1      21.137  12.508  10.846  0.00  0.00     0.034 C 
HETATM   16  C   UNK N   1      20.150  14.492   9.562  0.00  0.00     0.044 C 
HETATM   17  C   UNK N   1      22.489  11.981  11.294  0.00  0.00     0.005 C 
HETATM   18  C   UNK N   1      23.178  11.403  10.079  0.00  0.00     0.014 C 
HETATM   19  C   UNK N   1      23.474  12.486   9.040  0.00  0.00    -0.020 C 
HETATM   20  C   UNK N   1      23.717  11.752   7.733  0.00  0.00     0.020 C 
HETATM   21  C   UNK N   1      24.755  13.202   9.442  0.00  0.00     0.020 C 
ENDBRANCH  12  13
ENDBRANCH   9  11
ENDBRANCH   7   8
ENDBRANCH   4   6
ENDBRANCH   1   3
BRANCH   2  22
HETATM   22  C   UNK N   1      26.219  15.083   2.432  0.00  0.00     0.007 C 
HETATM   23  C   UNK N   1      27.322  15.693   2.882  0.00  0.00    -0.062 C 
HETATM   24  C   UNK N   1      28.635  14.967   2.955  0.00  0.00     0.048 C 
BRANCH  23  25
HETATM   25  C   UNK N   1      27.252  17.166   3.043  0.00  0.00     0.007 C 
HETATM   26  C   UNK N   1      26.910  17.768   4.200  0.00  0.00     0.001 C 
BRANCH  26  27
HETATM   27  C   UNK N   1      26.570  16.984   5.404  0.00  0.00     0.007 C 
HETATM   28  C   UNK N   1      27.350  16.748   6.470  0.00  0.00    -0.062 C 
HETATM   29  C   UNK N   1      26.770  15.934   7.571  0.00  0.00     0.048 C 
BRANCH  28  30
HETATM   30  C   UNK N   1      28.757  17.183   6.628  0.00  0.00     0.007 C 
HETATM   31  C   UNK N   1      29.843  16.435   6.411  0.00  0.00     0.009 C 
BRANCH  31  32
HETATM   32  C   UNK N   1      31.225  16.979   6.603  0.00  0.00    -0.048 C 
HETATM   33  C   UNK N   1      31.998  17.210   5.504  0.00  0.00    -0.077 C 
HETATM   34  C   UNK N   1      33.417  17.706   5.616  0.00  0.00     0.034 C 
HETATM   35  C   UNK N   1      31.476  16.950   4.126  0.00  0.00     0.044 C 
HETATM   36  C   UNK N   1      34.038  17.369   6.960  0.00  0.00     0.005 C 
HETATM   37  C   UNK N   1      33.134  17.932   8.034  0.00  0.00     0.014 C 
HETATM   38  C   UNK N   1      31.767  17.246   8.021  0.00  0.00    -0.020 C 
HETATM   39  C   UNK N   1      31.879  15.933   8.783  0.00  0.00     0.020 C 
HETATM   40  C   UNK N   1      30.832  18.171   8.781  0.00  0.00     0.020 C 
ENDBRANCH  31  32
ENDBRANCH  28  30
ENDBRANCH  26  27
ENDBRANCH  23  25
ENDBRANCH   2  22
TORSDOF 10
ENDMDL
MODEL 8
REMARK VINA RESULT:      -7.7     12.964     17.607
REMARK  10 active torsions:
REMARK  status: ('A' for Active; 'I' for Inactive)
REMARK    1  A    between atoms: C_1  and  C_2 
REMARK    2  A    between atoms: C_5  and  C_7 
REMARK    3  A    between atoms: C_8  and  C_10 
REMARK    4  A    between atoms: C_11  and  C_12 
REMARK    5  A    between atoms: C_13  and  C_15 
REMARK    6  A    between atoms: C_16  and  C_17 
REMARK    7  A    between atoms: C_18  and  C_19 
REMARK    8  A    between atoms: C_21  and  C_22 
REMARK    9  A    between atoms: C_23  and  C_24 
REMARK   10  A    between atoms: C_26  and  C_27 
ROOT
HETATM    1  C   UNK N   1      29.684  19.891  -6.760  0.00  0.00     0.001 C 
HETATM    2  C   UNK N   1      29.119  19.323  -7.835  0.00  0.00     0.001 C 
ENDROOT
BRANCH   1   3
HETATM    3  C   UNK N   1      30.383  21.188  -6.616  0.00  0.00     0.007 C 
HETATM    4  C   UNK N   1      31.710  21.360  -6.646  0.00  0.00    -0.062 C 
HETATM    5  C   UNK N   1      32.638  20.190  -6.801  0.00  0.00     0.048 C 
BRANCH   4   6
HETATM    6  C   UNK N   1      32.200  22.755  -6.780  0.00  0.00     0.007 C 
HETATM    7  C   UNK N   1      32.291  23.617  -5.749  0.00  0.00     0.001 C 
BRANCH   7   8
HETATM    8  C   UNK N   1      31.893  23.233  -4.381  0.00  0.00     0.007 C 
HETATM    9  C   UNK N   1      30.791  23.614  -3.718  0.00  0.00    -0.062 C 
HETATM   10  C   UNK N   1      30.604  23.077  -2.343  0.00  0.00     0.048 C 
BRANCH   9  11
HETATM   11  C   UNK N   1      29.764  24.560  -4.213  0.00  0.00     0.007 C 
HETATM   12  C   UNK N   1      28.846  24.307  -5.149  0.00  0.00     0.009 C 
BRANCH  12  13
HETATM   13  C   UNK N   1      27.850  25.341  -5.578  0.00  0.00    -0.048 C 
HETATM   14  C   UNK N   1      28.234  26.286  -6.480  0.00  0.00    -0.077 C 
HETATM   15  C   UNK N   1      27.307  27.393  -6.922  0.00  0.00     0.034 C 
HETATM   16  C   UNK N   1      29.614  26.288  -7.058  0.00  0.00     0.044 C 
HETATM   17  C   UNK N   1      26.222  27.675  -5.897  0.00  0.00     0.005 C 
HETATM   18  C   UNK N   1      25.500  26.374  -5.629  0.00  0.00     0.014 C 
HETATM   19  C   UNK N   1      26.429  25.345  -4.983  0.00  0.00    -0.020 C 
HETATM   20  C   UNK N   1      25.763  23.996  -5.190  0.00  0.00     0.020 C 
HETATM   21  C   UNK N   1      26.498  25.630  -3.489  0.00  0.00     0.020 C 
ENDBRANCH  12  13
ENDBRANCH   9  11
ENDBRANCH   7   8
ENDBRANCH   4   6
ENDBRANCH   1   3
BRANCH   2  22
HETATM   22  C   UNK N   1      29.217  19.674  -9.270  0.00  0.00     0.007 C 
HETATM   23  C   UNK N   1      29.978  19.047 -10.175  0.00  0.00    -0.062 C 
HETATM   24  C   UNK N   1      30.864  17.900  -9.782  0.00  0.00     0.048 C 
BRANCH  23  25
HETATM   25  C   UNK N   1      29.707  19.352 -11.602  0.00  0.00     0.007 C 
HETATM   26  C   UNK N   1      30.297  20.365 -12.266  0.00  0.00     0.001 C 
BRANCH  26  27
HETATM   27  C   UNK N   1      31.266  21.260 -11.603  0.00  0.00     0.007 C 
HETATM   28  C   UNK N   1      31.002  22.393 -10.934  0.00  0.00    -0.062 C 
HETATM   29  C   UNK N   1      32.157  23.117 -10.339  0.00  0.00     0.048 C 
BRANCH  28  30
HETATM   30  C   UNK N   1      29.668  23.017 -10.776  0.00  0.00     0.007 C 
HETATM   31  C   UNK N   1      29.306  23.872  -9.815  0.00  0.00     0.009 C 
BRANCH  31  32
HETATM   32  C   UNK N   1      27.925  24.445  -9.750  0.00  0.00    -0.048 C 
HETATM   33  C   UNK N   1      27.006  23.854  -8.936  0.00  0.00    -0.077 C 
HETATM   34  C   UNK N   1      25.580  24.338  -8.854  0.00  0.00     0.034 C 
HETATM   35  C   UNK N   1      27.368  22.667  -8.099  0.00  0.00     0.044 C 
HETATM   36  C   UNK N   1      25.157  25.087 -10.106  0.00  0.00     0.005 C 
HETATM   37  C   UNK N   1      26.147  26.210 -10.321  0.00  0.00     0.014 C 
HETATM   38  C   UNK N   1      27.547  25.665 -10.612  0.00  0.00    -0.020 C 
HETATM   39  C   UNK N   1      27.623  25.297 -12.087  0.00  0.00     0.020 C 
HETATM   40  C   UNK N   1      28.503  26.817 -10.350  0.00  0.00     0.020 C 
ENDBRANCH  31  32
ENDBRANCH  28  30
ENDBRANCH  26  27
ENDBRANCH  23  25
ENDBRANCH   2  22
TORSDOF 10
ENDMDL
MODEL 9
REMARK VINA RESULT:      -7.7     12.949     15.697
REMARK  10 active torsions:
REMARK  status: ('A' for Active; 'I' for Inactive)
REMARK    1  A    between atoms: C_1  and  C_2 
REMARK    2  A    between atoms: C_5  and  C_7 
REMARK    3  A    between atoms: C_8  and  C_10 
REMARK    4  A    between atoms: C_11  and  C_12 
REMARK    5  A    between atoms: C_13  and  C_15 
REMARK    6  A    between atoms: C_16  and  C_17 
REMARK    7  A    between atoms: C_18  and  C_19 
REMARK    8  A    between atoms: C_21  and  C_22 
REMARK    9  A    between atoms: C_23  and  C_24 
REMARK   10  A    between atoms: C_26  and  C_27 
ROOT
HETATM    1  C   UNK N   1      27.948  29.061  -5.099  0.00  0.00     0.001 C 
HETATM    2  C   UNK N   1      29.025  28.619  -4.435  0.00  0.00     0.001 C 
ENDROOT
BRANCH   1   3
HETATM    3  C   UNK N   1      26.802  28.319  -5.671  0.00  0.00     0.007 C 
HETATM    4  C   UNK N   1      26.870  27.454  -6.690  0.00  0.00    -0.062 C 
HETATM    5  C   UNK N   1      28.172  27.182  -7.388  0.00  0.00     0.048 C 
BRANCH   4   6
HETATM    6  C   UNK N   1      25.679  26.599  -6.922  0.00  0.00     0.007 C 
HETATM    7  C   UNK N   1      25.190  25.737  -6.010  0.00  0.00     0.001 C 
BRANCH   7   8
HETATM    8  C   UNK N   1      25.820  25.569  -4.686  0.00  0.00     0.007 C 
HETATM    9  C   UNK N   1      26.753  24.670  -4.337  0.00  0.00    -0.062 C 
HETATM   10  C   UNK N   1      27.246  24.710  -2.934  0.00  0.00     0.048 C 
BRANCH   9  11
HETATM   11  C   UNK N   1      27.302  23.607  -5.210  0.00  0.00     0.007 C 
HETATM   12  C   UNK N   1      28.576  23.482  -5.592  0.00  0.00     0.009 C 
BRANCH  12  13
HETATM   13  C   UNK N   1      29.026  22.364  -6.482  0.00  0.00    -0.048 C 
HETATM   14  C   UNK N   1      29.743  21.342  -5.938  0.00  0.00    -0.077 C 
HETATM   15  C   UNK N   1      30.279  20.207  -6.776  0.00  0.00     0.034 C 
HETATM   16  C   UNK N   1      30.062  21.313  -4.476  0.00  0.00     0.044 C 
HETATM   17  C   UNK N   1      30.446  20.599  -8.234  0.00  0.00     0.005 C 
HETATM   18  C   UNK N   1      29.110  21.112  -8.723  0.00  0.00     0.014 C 
HETATM   19  C   UNK N   1      28.703  22.391  -7.989  0.00  0.00    -0.020 C 
HETATM   20  C   UNK N   1      27.208  22.538  -8.208  0.00  0.00     0.020 C 
HETATM   21  C   UNK N   1      29.411  23.568  -8.645  0.00  0.00     0.020 C 
ENDBRANCH  12  13
ENDBRANCH   9  11
ENDBRANCH   7   8
ENDBRANCH   4   6
ENDBRANCH   1   3
BRANCH   2  22
HETATM   22  C   UNK N   1      29.553  27.246  -4.265  0.00  0.00     0.007 C 
HETATM   23  C   UNK N   1      30.684  26.920  -3.629  0.00  0.00    -0.062 C 
HETATM   24  C   UNK N   1      31.571  27.975  -3.034  0.00  0.00     0.048 C 
BRANCH  23  25
HETATM   25  C   UNK N   1      30.880  25.485  -3.307  0.00  0.00     0.007 C 
HETATM   26  C   UNK N   1      31.487  24.616  -4.141  0.00  0.00     0.001 C 
BRANCH  26  27
HETATM   27  C   UNK N   1      32.001  25.043  -5.457  0.00  0.00     0.007 C 
HETATM   28  C   UNK N   1      32.611  24.283  -6.379  0.00  0.00    -0.062 C 
HETATM   29  C   UNK N   1      33.029  24.949  -7.642  0.00  0.00     0.048 C 
BRANCH  28  30
HETATM   30  C   UNK N   1      32.951  22.849  -6.234  0.00  0.00     0.007 C 
HETATM   31  C   UNK N   1      33.920  22.342  -5.467  0.00  0.00     0.009 C 
BRANCH  31  32
HETATM   32  C   UNK N   1      34.177  20.869  -5.394  0.00  0.00    -0.048 C 
HETATM   33  C   UNK N   1      33.906  20.211  -4.232  0.00  0.00    -0.077 C 
HETATM   34  C   UNK N   1      34.187  18.739  -4.062  0.00  0.00     0.034 C 
HETATM   35  C   UNK N   1      33.339  20.935  -3.051  0.00  0.00     0.044 C 
HETATM   36  C   UNK N   1      35.265  18.248  -5.012  0.00  0.00     0.005 C 
HETATM   37  C   UNK N   1      34.830  18.603  -6.417  0.00  0.00     0.014 C 
HETATM   38  C   UNK N   1      34.764  20.120  -6.607  0.00  0.00    -0.020 C 
HETATM   39  C   UNK N   1      36.168  20.631  -6.897  0.00  0.00     0.020 C 
HETATM   40  C   UNK N   1      33.901  20.345  -7.838  0.00  0.00     0.020 C 
ENDBRANCH  31  32
ENDBRANCH  28  30
ENDBRANCH  26  27
ENDBRANCH  23  25
ENDBRANCH   2  22
TORSDOF 10
ENDMDL
