MODEL 1
REMARK VINA RESULT:      -7.4      0.000      0.000
REMARK  8 active torsions:
REMARK  status: ('A' for Active; 'I' for Inactive)
REMARK    1  A    between atoms: C_3  and  O_4 
REMARK    2  A    between atoms: C_8  and  O_9 
REMARK    3  A    between atoms: C_14  and  O_15 
REMARK    4  A    between atoms: C_20  and  C_23 
REMARK    5  A    between atoms: C_23  and  C_25 
REMARK    6  A    between atoms: C_25  and  C_26 
REMARK    7  A    between atoms: C_26  and  C_28 
REMARK    8  A    between atoms: C_28  and  O_29 
ROOT
HETATM    1  C   UNK N   1      27.926  26.887  -4.996  0.00  0.00     0.012 C 
HETATM    2  C   UNK N   1      27.045  28.129  -5.282  0.00  0.00     0.032 C 
HETATM    3  C   UNK N   1      25.522  27.935  -5.156  0.00  0.00     0.118 C 
HETATM    4  C   UNK N   1      25.067  26.599  -5.741  0.00  0.00     0.037 C 
HETATM    5  C   UNK N   1      25.957  25.382  -5.423  0.00  0.00    -0.001 C 
HETATM    6  C   UNK N   1      26.485  24.873  -6.767  0.00  0.00     0.037 C 
HETATM    7  C   UNK N   1      27.247  23.563  -6.601  0.00  0.00     0.123 C 
HETATM    8  C   UNK N   1      28.475  23.737  -5.668  0.00  0.00     0.024 C 
HETATM    9  C   UNK N   1      28.030  24.383  -4.334  0.00  0.00     0.003 C 
HETATM   10  C   UNK N   1      27.152  25.669  -4.465  0.00  0.00    -0.036 C 
HETATM   11  C   UNK N   1      29.291  24.610  -3.482  0.00  0.00     0.038 C 
HETATM   12  C   UNK N   1      29.881  23.261  -3.079  0.00  0.00     0.127 C 
HETATM   13  C   UNK N   1      30.252  22.351  -4.297  0.00  0.00    -0.010 C 
HETATM   14  C   UNK N   1      29.098  22.335  -5.332  0.00  0.00     0.003 C 
HETATM   15  C   UNK N   1      29.716  21.688  -6.566  0.00  0.00     0.006 C 
HETATM   16  C   UNK N   1      31.220  21.923  -6.473  0.00  0.00     0.006 C 
HETATM   17  C   UNK N   1      31.497  22.696  -5.178  0.00  0.00     0.000 C 
HETATM   18  C   UNK N   1      30.411  20.919  -3.755  0.00  0.00     0.018 C 
HETATM   19  C   UNK N   1      26.655  25.983  -3.052  0.00  0.00     0.016 C 
ENDROOT
BRANCH  17  20
HETATM   20  C   UNK N   1      32.900  22.283  -4.606  0.00  0.00    -0.013 C 
HETATM   21  C   UNK N   1      33.995  23.232  -5.038  0.00  0.00     0.010 C 
BRANCH  20  22
HETATM   22  C   UNK N   1      33.364  20.888  -5.051  0.00  0.00     0.015 C 
BRANCH  22  23
HETATM   23  C   UNK N   1      34.078  20.094  -3.952  0.00  0.00     0.110 C 
BRANCH  23  24
HETATM   24  C   UNK N   1      34.276  18.655  -4.339  0.00  0.00     0.139 C 
HETATM   25  O   UNK N   1      34.890  18.368  -5.356  0.00  0.00    -0.650 OA
BRANCH  24  26
HETATM   26  O   UNK N   1      33.767  17.677  -3.568  0.00  0.00    -0.776 OA
HETATM   27  H   UNK N   1      33.020  17.310  -3.137  0.00  0.00     0.167 HD
ENDBRANCH  24  26
ENDBRANCH  23  24
ENDBRANCH  22  23
ENDBRANCH  20  22
ENDBRANCH  17  20
BRANCH  12  28
HETATM   28  O   UNK N   1      30.948  23.457  -2.208  0.00  0.00    -0.395 OA
HETATM   29  H   UNK N   1      30.814  23.407  -1.248  0.00  0.00     0.210 HD
ENDBRANCH  12  28
BRANCH   7  30
HETATM   30  O   UNK N   1      27.644  23.120  -7.863  0.00  0.00    -0.395 OA
HETATM   31  H   UNK N   1      27.622  23.622  -8.693  0.00  0.00     0.210 HD
ENDBRANCH   7  30
BRANCH   3  32
HETATM   32  O   UNK N   1      25.109  28.042  -3.827  0.00  0.00    -0.396 OA
HETATM   33  H   UNK N   1      24.257  27.971  -3.366  0.00  0.00     0.210 HD
ENDBRANCH   3  32
TORSDOF 8
ENDMDL
MODEL 2
REMARK VINA RESULT:      -7.4      1.435      8.160
REMARK  8 active torsions:
REMARK  status: ('A' for Active; 'I' for Inactive)
REMARK    1  A    between atoms: C_3  and  O_4 
REMARK    2  A    between atoms: C_8  and  O_9 
REMARK    3  A    between atoms: C_14  and  O_15 
REMARK    4  A    between atoms: C_20  and  C_23 
REMARK    5  A    between atoms: C_23  and  C_25 
REMARK    6  A    between atoms: C_25  and  C_26 
REMARK    7  A    between atoms: C_26  and  C_28 
REMARK    8  A    between atoms: C_28  and  O_29 
ROOT
HETATM    1  C   UNK N   1      32.103  22.660  -5.822  0.00  0.00     0.012 C 
HETATM    2  C   UNK N   1      33.524  22.044  -5.753  0.00  0.00     0.032 C 
HETATM    3  C   UNK N   1      33.616  20.584  -5.271  0.00  0.00     0.118 C 
HETATM    4  C   UNK N   1      32.671  20.309  -4.102  0.00  0.00     0.037 C 
HETATM    5  C   UNK N   1      31.262  20.922  -4.211  0.00  0.00    -0.001 C 
HETATM    6  C   UNK N   1      31.128  21.900  -3.041  0.00  0.00     0.037 C 
HETATM    7  C   UNK N   1      29.709  22.450  -2.940  0.00  0.00     0.123 C 
HETATM    8  C   UNK N   1      29.309  23.223  -4.225  0.00  0.00     0.024 C 
HETATM    9  C   UNK N   1      29.557  22.335  -5.467  0.00  0.00     0.003 C 
HETATM   10  C   UNK N   1      30.965  21.663  -5.550  0.00  0.00    -0.036 C 
HETATM   11  C   UNK N   1      29.226  23.173  -6.715  0.00  0.00     0.038 C 
HETATM   12  C   UNK N   1      27.729  23.470  -6.744  0.00  0.00     0.127 C 
HETATM   13  C   UNK N   1      27.216  24.229  -5.476  0.00  0.00    -0.010 C 
HETATM   14  C   UNK N   1      27.779  23.573  -4.188  0.00  0.00     0.003 C 
HETATM   15  C   UNK N   1      27.462  24.581  -3.090  0.00  0.00     0.006 C 
HETATM   16  C   UNK N   1      27.339  25.941  -3.770  0.00  0.00     0.006 C 
HETATM   17  C   UNK N   1      27.568  25.739  -5.273  0.00  0.00     0.000 C 
HETATM   18  C   UNK N   1      25.685  24.070  -5.446  0.00  0.00     0.018 C 
HETATM   19  C   UNK N   1      30.891  20.675  -6.715  0.00  0.00     0.016 C 
ENDROOT
BRANCH  17  20
HETATM   20  C   UNK N   1      26.711  26.776  -6.082  0.00  0.00    -0.013 C 
HETATM   21  C   UNK N   1      27.552  27.589  -7.040  0.00  0.00     0.010 C 
BRANCH  20  22
HETATM   22  C   UNK N   1      25.984  27.801  -5.200  0.00  0.00     0.015 C 
BRANCH  22  23
HETATM   23  C   UNK N   1      26.755  29.114  -5.012  0.00  0.00     0.110 C 
BRANCH  23  24
HETATM   24  C   UNK N   1      26.474  29.742  -3.676  0.00  0.00     0.139 C 
HETATM   25  O   UNK N   1      26.711  29.130  -2.645  0.00  0.00    -0.650 OA
BRANCH  24  26
HETATM   26  O   UNK N   1      25.952  30.980  -3.614  0.00  0.00    -0.776 OA
HETATM   27  H   UNK N   1      25.458  31.658  -4.032  0.00  0.00     0.167 HD
ENDBRANCH  24  26
ENDBRANCH  23  24
ENDBRANCH  22  23
ENDBRANCH  20  22
ENDBRANCH  17  20
BRANCH  12  28
HETATM   28  O   UNK N   1      27.404  24.122  -7.929  0.00  0.00    -0.395 OA
HETATM   29  H   UNK N   1      27.993  24.064  -8.699  0.00  0.00     0.210 HD
ENDBRANCH  12  28
BRANCH   7  30
HETATM   30  O   UNK N   1      29.635  23.280  -1.821  0.00  0.00    -0.395 OA
HETATM   31  H   UNK N   1      28.832  23.564  -1.355  0.00  0.00     0.210 HD
ENDBRANCH   7  30
BRANCH   3  32
HETATM   32  O   UNK N   1      33.362  19.691  -6.313  0.00  0.00    -0.396 OA
HETATM   33  H   UNK N   1      32.563  19.372  -6.764  0.00  0.00     0.210 HD
ENDBRANCH   3  32
TORSDOF 8
ENDMDL
MODEL 3
REMARK VINA RESULT:      -7.4      2.300      8.158
REMARK  8 active torsions:
REMARK  status: ('A' for Active; 'I' for Inactive)
REMARK    1  A    between atoms: C_3  and  O_4 
REMARK    2  A    between atoms: C_8  and  O_9 
REMARK    3  A    between atoms: C_14  and  O_15 
REMARK    4  A    between atoms: C_20  and  C_23 
REMARK    5  A    between atoms: C_23  and  C_25 
REMARK    6  A    between atoms: C_25  and  C_26 
REMARK    7  A    between atoms: C_26  and  C_28 
REMARK    8  A    between atoms: C_28  and  O_29 
ROOT
HETATM    1  C   UNK N   1      30.351  21.306  -8.754  0.00  0.00     0.012 C 
HETATM    2  C   UNK N   1      31.431  20.458  -9.472  0.00  0.00     0.032 C 
HETATM    3  C   UNK N   1      31.958  19.229  -8.708  0.00  0.00     0.118 C 
HETATM    4  C   UNK N   1      32.168  19.528  -7.224  0.00  0.00     0.037 C 
HETATM    5  C   UNK N   1      31.067  20.358  -6.538  0.00  0.00    -0.001 C 
HETATM    6  C   UNK N   1      31.737  21.652  -6.066  0.00  0.00     0.037 C 
HETATM    7  C   UNK N   1      30.786  22.491  -5.220  0.00  0.00     0.123 C 
HETATM    8  C   UNK N   1      29.524  22.901  -6.025  0.00  0.00     0.024 C 
HETATM    9  C   UNK N   1      28.874  21.645  -6.652  0.00  0.00     0.003 C 
HETATM   10  C   UNK N   1      29.841  20.701  -7.436  0.00  0.00    -0.036 C 
HETATM   11  C   UNK N   1      27.681  22.113  -7.505  0.00  0.00     0.038 C 
HETATM   12  C   UNK N   1      26.602  22.693  -6.594  0.00  0.00     0.127 C 
HETATM   13  C   UNK N   1      27.099  23.892  -5.720  0.00  0.00    -0.010 C 
HETATM   14  C   UNK N   1      28.465  23.558  -5.069  0.00  0.00     0.003 C 
HETATM   15  C   UNK N   1      28.955  24.895  -4.527  0.00  0.00     0.006 C 
HETATM   16  C   UNK N   1      28.272  25.977  -5.357  0.00  0.00     0.006 C 
HETATM   17  C   UNK N   1      27.366  25.283  -6.382  0.00  0.00     0.000 C 
HETATM   18  C   UNK N   1      26.076  24.073  -4.584  0.00  0.00     0.018 C 
HETATM   19  C   UNK N   1      29.031  19.443  -7.757  0.00  0.00     0.016 C 
ENDROOT
BRANCH  17  20
HETATM   20  C   UNK N   1      26.110  26.179  -6.668  0.00  0.00    -0.013 C 
HETATM   21  C   UNK N   1      25.934  26.462  -8.143  0.00  0.00     0.010 C 
BRANCH  20  22
HETATM   22  C   UNK N   1      26.162  27.555  -5.988  0.00  0.00     0.015 C 
BRANCH  22  23
HETATM   23  C   UNK N   1      25.110  27.743  -4.889  0.00  0.00     0.110 C 
BRANCH  23  24
HETATM   24  C   UNK N   1      25.731  28.148  -3.582  0.00  0.00     0.139 C 
HETATM   25  O   UNK N   1      26.020  27.304  -2.748  0.00  0.00    -0.650 OA
BRANCH  24  26
HETATM   26  O   UNK N   1      25.965  29.448  -3.325  0.00  0.00    -0.776 OA
HETATM   27  H   UNK N   1      26.486  30.210  -3.485  0.00  0.00     0.167 HD
ENDBRANCH  24  26
ENDBRANCH  23  24
ENDBRANCH  22  23
ENDBRANCH  20  22
ENDBRANCH  17  20
BRANCH  12  28
HETATM   28  O   UNK N   1      25.473  23.006  -7.345  0.00  0.00    -0.395 OA
HETATM   29  H   UNK N   1      25.441  23.825  -7.865  0.00  0.00     0.210 HD
ENDBRANCH  12  28
BRANCH   7  30
HETATM   30  O   UNK N   1      31.472  23.618  -4.768  0.00  0.00    -0.395 OA
HETATM   31  H   UNK N   1      31.903  23.735  -3.906  0.00  0.00     0.210 HD
ENDBRANCH   7  30
BRANCH   3  32
HETATM   32  O   UNK N   1      31.106  18.135  -8.861  0.00  0.00    -0.396 OA
HETATM   33  H   UNK N   1      31.067  17.374  -9.462  0.00  0.00     0.210 HD
ENDBRANCH   3  32
TORSDOF 8
ENDMDL
MODEL 4
REMARK VINA RESULT:      -7.3     13.528     17.811
REMARK  8 active torsions:
REMARK  status: ('A' for Active; 'I' for Inactive)
REMARK    1  A    between atoms: C_3  and  O_4 
REMARK    2  A    between atoms: C_8  and  O_9 
REMARK    3  A    between atoms: C_14  and  O_15 
REMARK    4  A    between atoms: C_20  and  C_23 
REMARK    5  A    between atoms: C_23  and  C_25 
REMARK    6  A    between atoms: C_25  and  C_26 
REMARK    7  A    between atoms: C_26  and  C_28 
REMARK    8  A    between atoms: C_28  and  O_29 
ROOT
HETATM    1  C   UNK N   1      36.586  12.978  10.019  0.00  0.00     0.012 C 
HETATM    2  C   UNK N   1      37.657  12.375  10.962  0.00  0.00     0.032 C 
HETATM    3  C   UNK N   1      37.321  12.366  12.465  0.00  0.00     0.118 C 
HETATM    4  C   UNK N   1      36.644  13.664  12.906  0.00  0.00     0.037 C 
HETATM    5  C   UNK N   1      35.573  14.226  11.953  0.00  0.00    -0.001 C 
HETATM    6  C   UNK N   1      36.084  15.594  11.492  0.00  0.00     0.037 C 
HETATM    7  C   UNK N   1      35.030  16.331  10.672  0.00  0.00     0.123 C 
HETATM    8  C   UNK N   1      34.650  15.535   9.394  0.00  0.00     0.024 C 
HETATM    9  C   UNK N   1      34.257  14.089   9.778  0.00  0.00     0.003 C 
HETATM   10  C   UNK N   1      35.261  13.338  10.710  0.00  0.00    -0.036 C 
HETATM   11  C   UNK N   1      33.971  13.322   8.474  0.00  0.00     0.038 C 
HETATM   12  C   UNK N   1      32.723  13.898   7.809  0.00  0.00     0.127 C 
HETATM   13  C   UNK N   1      32.837  15.424   7.482  0.00  0.00    -0.010 C 
HETATM   14  C   UNK N   1      33.407  16.197   8.698  0.00  0.00     0.003 C 
HETATM   15  C   UNK N   1      33.749  17.572   8.137  0.00  0.00     0.006 C 
HETATM   16  C   UNK N   1      33.974  17.387   6.639  0.00  0.00     0.006 C 
HETATM   17  C   UNK N   1      33.752  15.906   6.310  0.00  0.00     0.000 C 
HETATM   18  C   UNK N   1      31.407  15.937   7.235  0.00  0.00     0.018 C 
HETATM   19  C   UNK N   1      34.559  12.044  11.127  0.00  0.00     0.016 C 
ENDROOT
BRANCH  17  20
HETATM   20  C   UNK N   1      33.169  15.769   4.859  0.00  0.00    -0.013 C 
HETATM   21  C   UNK N   1      34.044  14.916   3.969  0.00  0.00     0.010 C 
BRANCH  20  22
HETATM   22  C   UNK N   1      33.015  17.108   4.124  0.00  0.00     0.015 C 
BRANCH  22  23
HETATM   23  C   UNK N   1      32.108  17.038   2.890  0.00  0.00     0.110 C 
BRANCH  23  24
HETATM   24  C   UNK N   1      30.708  16.627   3.247  0.00  0.00     0.139 C 
HETATM   25  O   UNK N   1      30.270  15.545   2.886  0.00  0.00    -0.650 OA
BRANCH  24  26
HETATM   26  O   UNK N   1      29.927  17.458   3.962  0.00  0.00    -0.776 OA
HETATM   27  H   UNK N   1      29.826  18.288   4.385  0.00  0.00     0.167 HD
ENDBRANCH  24  26
ENDBRANCH  23  24
ENDBRANCH  22  23
ENDBRANCH  20  22
ENDBRANCH  17  20
BRANCH  12  28
HETATM   28  O   UNK N   1      32.390  13.132   6.697  0.00  0.00    -0.395 OA
HETATM   29  H   UNK N   1      33.079  12.836   6.081  0.00  0.00     0.210 HD
ENDBRANCH  12  28
BRANCH   7  30
HETATM   30  O   UNK N   1      35.530  17.591  10.339  0.00  0.00    -0.395 OA
HETATM   31  H   UNK N   1      35.024  18.414  10.246  0.00  0.00     0.210 HD
ENDBRANCH   7  30
BRANCH   3  32
HETATM   32  O   UNK N   1      36.520  11.272  12.797  0.00  0.00    -0.396 OA
HETATM   33  H   UNK N   1      36.538  10.595  13.493  0.00  0.00     0.210 HD
ENDBRANCH   3  32
TORSDOF 8
ENDMDL
MODEL 5
REMARK VINA RESULT:      -7.3     14.645     17.238
REMARK  8 active torsions:
REMARK  status: ('A' for Active; 'I' for Inactive)
REMARK    1  A    between atoms: C_3  and  O_4 
REMARK    2  A    between atoms: C_8  and  O_9 
REMARK    3  A    between atoms: C_14  and  O_15 
REMARK    4  A    between atoms: C_20  and  C_23 
REMARK    5  A    between atoms: C_23  and  C_25 
REMARK    6  A    between atoms: C_25  and  C_26 
REMARK    7  A    between atoms: C_26  and  C_28 
REMARK    8  A    between atoms: C_28  and  O_29 
ROOT
HETATM    1  C   UNK N   1      23.780  13.427   9.094  0.00  0.00     0.012 C 
HETATM    2  C   UNK N   1      24.142  12.676  10.400  0.00  0.00     0.032 C 
HETATM    3  C   UNK N   1      23.119  11.639  10.901  0.00  0.00     0.118 C 
HETATM    4  C   UNK N   1      21.682  12.136  10.749  0.00  0.00     0.037 C 
HETATM    5  C   UNK N   1      21.353  12.863   9.431  0.00  0.00    -0.001 C 
HETATM    6  C   UNK N   1      20.952  14.290   9.816  0.00  0.00     0.037 C 
HETATM    7  C   UNK N   1      20.439  15.065   8.608  0.00  0.00     0.123 C 
HETATM    8  C   UNK N   1      21.527  15.182   7.507  0.00  0.00     0.024 C 
HETATM    9  C   UNK N   1      22.081  13.777   7.169  0.00  0.00     0.003 C 
HETATM   10  C   UNK N   1      22.515  12.908   8.392  0.00  0.00    -0.036 C 
HETATM   11  C   UNK N   1      23.210  13.956   6.138  0.00  0.00     0.038 C 
HETATM   12  C   UNK N   1      22.622  14.466   4.825  0.00  0.00     0.127 C 
HETATM   13  C   UNK N   1      21.850  15.819   4.968  0.00  0.00    -0.010 C 
HETATM   14  C   UNK N   1      20.902  15.775   6.194  0.00  0.00     0.003 C 
HETATM   15  C   UNK N   1      20.475  17.226   6.385  0.00  0.00     0.006 C 
HETATM   16  C   UNK N   1      21.571  18.087   5.766  0.00  0.00     0.006 C 
HETATM   17  C   UNK N   1      22.642  17.149   5.195  0.00  0.00     0.000 C 
HETATM   18  C   UNK N   1      20.976  15.973   3.711  0.00  0.00     0.018 C 
HETATM   19  C   UNK N   1      22.801  11.512   7.835  0.00  0.00     0.016 C 
ENDROOT
BRANCH  17  20
HETATM   20  C   UNK N   1      23.296  17.804   3.927  0.00  0.00    -0.013 C 
HETATM   21  C   UNK N   1      24.801  17.887   4.039  0.00  0.00     0.010 C 
BRANCH  20  22
HETATM   22  C   UNK N   1      22.823  19.239   3.657  0.00  0.00     0.015 C 
BRANCH  22  23
HETATM   23  C   UNK N   1      21.577  19.324   2.767  0.00  0.00     0.110 C 
BRANCH  23  24
HETATM   24  C   UNK N   1      21.532  20.607   1.987  0.00  0.00     0.139 C 
HETATM   25  O   UNK N   1      21.461  20.587   0.767  0.00  0.00    -0.650 OA
BRANCH  24  26
HETATM   26  O   UNK N   1      21.578  21.787   2.634  0.00  0.00    -0.776 OA
HETATM   27  H   UNK N   1      21.759  22.254   3.425  0.00  0.00     0.167 HD
ENDBRANCH  24  26
ENDBRANCH  23  24
ENDBRANCH  22  23
ENDBRANCH  20  22
ENDBRANCH  17  20
BRANCH  12  28
HETATM   28  O   UNK N   1      23.616  14.513   3.854  0.00  0.00    -0.395 OA
HETATM   29  H   UNK N   1      24.051  15.353   3.637  0.00  0.00     0.210 HD
ENDBRANCH  12  28
BRANCH   7  30
HETATM   30  O   UNK N   1      20.031  16.329   9.035  0.00  0.00    -0.395 OA
HETATM   31  H   UNK N   1      19.477  16.961   8.548  0.00  0.00     0.210 HD
ENDBRANCH   7  30
BRANCH   3  32
HETATM   32  O   UNK N   1      23.276  10.418  10.245  0.00  0.00    -0.396 OA
HETATM   33  H   UNK N   1      22.937   9.518  10.380  0.00  0.00     0.210 HD
ENDBRANCH   3  32
TORSDOF 8
ENDMDL
MODEL 6
REMARK VINA RESULT:      -7.2     11.299     14.846
REMARK  8 active torsions:
REMARK  status: ('A' for Active; 'I' for Inactive)
REMARK    1  A    between atoms: C_3  and  O_4 
REMARK    2  A    between atoms: C_8  and  O_9 
REMARK    3  A    between atoms: C_14  and  O_15 
REMARK    4  A    between atoms: C_20  and  C_23 
REMARK    5  A    between atoms: C_23  and  C_25 
REMARK    6  A    between atoms: C_25  and  C_26 
REMARK    7  A    between atoms: C_26  and  C_28 
REMARK    8  A    between atoms: C_28  and  O_29 
ROOT
HETATM    1  C   UNK N   1      32.107  15.341   7.333  0.00  0.00     0.012 C 
HETATM    2  C   UNK N   1      33.504  14.722   7.589  0.00  0.00     0.032 C 
HETATM    3  C   UNK N   1      34.710  15.672   7.460  0.00  0.00     0.118 C 
HETATM    4  C   UNK N   1      34.566  16.616   6.267  0.00  0.00     0.037 C 
HETATM    5  C   UNK N   1      33.169  17.226   6.051  0.00  0.00    -0.001 C 
HETATM    6  C   UNK N   1      32.689  16.727   4.685  0.00  0.00     0.037 C 
HETATM    7  C   UNK N   1      31.382  17.399   4.279  0.00  0.00     0.123 C 
HETATM    8  C   UNK N   1      30.249  17.096   5.296  0.00  0.00     0.024 C 
HETATM    9  C   UNK N   1      30.724  17.447   6.726  0.00  0.00     0.003 C 
HETATM   10  C   UNK N   1      32.114  16.866   7.141  0.00  0.00    -0.036 C 
HETATM   11  C   UNK N   1      29.601  17.051   7.702  0.00  0.00     0.038 C 
HETATM   12  C   UNK N   1      28.386  17.946   7.467  0.00  0.00     0.127 C 
HETATM   13  C   UNK N   1      27.832  17.878   6.005  0.00  0.00    -0.010 C 
HETATM   14  C   UNK N   1      28.991  17.982   4.981  0.00  0.00     0.003 C 
HETATM   15  C   UNK N   1      28.351  17.592   3.655  0.00  0.00     0.006 C 
HETATM   16  C   UNK N   1      27.145  16.721   3.994  0.00  0.00     0.006 C 
HETATM   17  C   UNK N   1      27.060  16.607   5.520  0.00  0.00     0.000 C 
HETATM   18  C   UNK N   1      26.929  19.109   5.810  0.00  0.00     0.018 C 
HETATM   19  C   UNK N   1      32.463  17.526   8.476  0.00  0.00     0.016 C 
ENDROOT
BRANCH  17  20
HETATM   20  C   UNK N   1      25.558  16.486   5.959  0.00  0.00    -0.013 C 
HETATM   21  C   UNK N   1      25.279  15.193   6.691  0.00  0.00     0.010 C 
BRANCH  20  22
HETATM   22  C   UNK N   1      24.566  16.520   4.787  0.00  0.00     0.015 C 
BRANCH  22  23
HETATM   23  C   UNK N   1      23.596  17.706   4.831  0.00  0.00     0.110 C 
BRANCH  23  24
HETATM   24  C   UNK N   1      22.427  17.440   5.737  0.00  0.00     0.139 C 
HETATM   25  O   UNK N   1      21.861  16.358   5.712  0.00  0.00    -0.650 OA
BRANCH  24  26
HETATM   26  O   UNK N   1      21.995  18.401   6.574  0.00  0.00    -0.776 OA
HETATM   27  H   UNK N   1      21.729  18.642   7.440  0.00  0.00     0.167 HD
ENDBRANCH  24  26
ENDBRANCH  23  24
ENDBRANCH  22  23
ENDBRANCH  20  22
ENDBRANCH  17  20
BRANCH  12  28
HETATM   28  O   UNK N   1      27.414  17.675   8.424  0.00  0.00    -0.395 OA
HETATM   29  H   UNK N   1      26.498  17.497   8.157  0.00  0.00     0.210 HD
ENDBRANCH  12  28
BRANCH   7  30
HETATM   30  O   UNK N   1      31.033  16.953   3.004  0.00  0.00    -0.395 OA
HETATM   31  H   UNK N   1      31.239  16.090   2.609  0.00  0.00     0.210 HD
ENDBRANCH   7  30
BRANCH   3  32
HETATM   32  O   UNK N   1      34.903  16.405   8.631  0.00  0.00    -0.396 OA
HETATM   33  H   UNK N   1      35.214  17.302   8.836  0.00  0.00     0.210 HD
ENDBRANCH   3  32
TORSDOF 8
ENDMDL
MODEL 7
REMARK VINA RESULT:      -7.1     11.723     14.297
REMARK  8 active torsions:
REMARK  status: ('A' for Active; 'I' for Inactive)
REMARK    1  A    between atoms: C_3  and  O_4 
REMARK    2  A    between atoms: C_8  and  O_9 
REMARK    3  A    between atoms: C_14  and  O_15 
REMARK    4  A    between atoms: C_20  and  C_23 
REMARK    5  A    between atoms: C_23  and  C_25 
REMARK    6  A    between atoms: C_25  and  C_26 
REMARK    7  A    between atoms: C_26  and  C_28 
REMARK    8  A    between atoms: C_28  and  O_29 
ROOT
HETATM    1  C   UNK N   1      27.857  14.594   4.413  0.00  0.00     0.012 C 
HETATM    2  C   UNK N   1      26.539  14.208   3.696  0.00  0.00     0.032 C 
HETATM    3  C   UNK N   1      25.894  15.294   2.815  0.00  0.00     0.118 C 
HETATM    4  C   UNK N   1      25.963  16.674   3.468  0.00  0.00     0.037 C 
HETATM    5  C   UNK N   1      27.293  17.031   4.157  0.00  0.00    -0.001 C 
HETATM    6  C   UNK N   1      26.968  17.234   5.640  0.00  0.00     0.037 C 
HETATM    7  C   UNK N   1      28.178  17.759   6.405  0.00  0.00     0.123 C 
HETATM    8  C   UNK N   1      29.367  16.764   6.334  0.00  0.00     0.024 C 
HETATM    9  C   UNK N   1      29.659  16.403   4.858  0.00  0.00     0.003 C 
HETATM   10  C   UNK N   1      28.421  15.966   4.010  0.00  0.00    -0.036 C 
HETATM   11  C   UNK N   1      30.785  15.354   4.847  0.00  0.00     0.038 C 
HETATM   12  C   UNK N   1      32.077  15.992   5.351  0.00  0.00     0.127 C 
HETATM   13  C   UNK N   1      31.959  16.591   6.792  0.00  0.00    -0.010 C 
HETATM   14  C   UNK N   1      30.661  17.428   6.925  0.00  0.00     0.003 C 
HETATM   15  C   UNK N   1      30.529  17.672   8.424  0.00  0.00     0.006 C 
HETATM   16  C   UNK N   1      31.286  16.543   9.116  0.00  0.00     0.006 C 
HETATM   17  C   UNK N   1      31.880  15.638   8.030  0.00  0.00     0.000 C 
HETATM   18  C   UNK N   1      33.150  17.548   6.980  0.00  0.00     0.018 C 
HETATM   19  C   UNK N   1      28.911  15.887   2.562  0.00  0.00     0.016 C 
ENDROOT
BRANCH  17  20
HETATM   20  C   UNK N   1      33.235  15.026   8.534  0.00  0.00    -0.013 C 
HETATM   21  C   UNK N   1      33.282  13.525   8.363  0.00  0.00     0.010 C 
BRANCH  20  22
HETATM   22  C   UNK N   1      33.513  15.281  10.023  0.00  0.00     0.015 C 
BRANCH  22  23
HETATM   23  C   UNK N   1      34.947  14.947  10.451  0.00  0.00     0.110 C 
BRANCH  23  24
HETATM   24  C   UNK N   1      35.809  16.175  10.526  0.00  0.00     0.139 C 
HETATM   25  O   UNK N   1      35.342  17.274  10.267  0.00  0.00    -0.650 OA
BRANCH  24  26
HETATM   26  O   UNK N   1      37.105  16.064  10.871  0.00  0.00    -0.776 OA
HETATM   27  H   UNK N   1      37.808  16.343  11.424  0.00  0.00     0.167 HD
ENDBRANCH  24  26
ENDBRANCH  23  24
ENDBRANCH  22  23
ENDBRANCH  20  22
ENDBRANCH  17  20
BRANCH  12  28
HETATM   28  O   UNK N   1      33.126  15.086   5.229  0.00  0.00    -0.395 OA
HETATM   29  H   UNK N   1      34.046  15.390   5.290  0.00  0.00     0.210 HD
ENDBRANCH  12  28
BRANCH   7  30
HETATM   30  O   UNK N   1      27.800  17.984   7.729  0.00  0.00    -0.395 OA
HETATM   31  H   UNK N   1      27.274  18.726   8.069  0.00  0.00     0.210 HD
ENDBRANCH   7  30
BRANCH   3  32
HETATM   32  O   UNK N   1      26.482  15.333   1.550  0.00  0.00    -0.396 OA
HETATM   33  H   UNK N   1      26.892  14.677   0.963  0.00  0.00     0.210 HD
ENDBRANCH   3  32
TORSDOF 8
ENDMDL
MODEL 8
REMARK VINA RESULT:      -7.1     14.176     17.695
REMARK  8 active torsions:
REMARK  status: ('A' for Active; 'I' for Inactive)
REMARK    1  A    between atoms: C_3  and  O_4 
REMARK    2  A    between atoms: C_8  and  O_9 
REMARK    3  A    between atoms: C_14  and  O_15 
REMARK    4  A    between atoms: C_20  and  C_23 
REMARK    5  A    between atoms: C_23  and  C_25 
REMARK    6  A    between atoms: C_25  and  C_26 
REMARK    7  A    between atoms: C_26  and  C_28 
REMARK    8  A    between atoms: C_28  and  O_29 
ROOT
HETATM    1  C   UNK N   1      32.506  14.810   5.735  0.00  0.00     0.012 C 
HETATM    2  C   UNK N   1      31.545  15.241   4.598  0.00  0.00     0.032 C 
HETATM    3  C   UNK N   1      32.033  16.376   3.679  0.00  0.00     0.118 C 
HETATM    4  C   UNK N   1      32.736  17.483   4.465  0.00  0.00     0.037 C 
HETATM    5  C   UNK N   1      33.697  17.019   5.575  0.00  0.00    -0.001 C 
HETATM    6  C   UNK N   1      33.126  17.558   6.890  0.00  0.00     0.037 C 
HETATM    7  C   UNK N   1      34.081  17.308   8.052  0.00  0.00     0.123 C 
HETATM    8  C   UNK N   1      34.338  15.791   8.257  0.00  0.00     0.024 C 
HETATM    9  C   UNK N   1      34.785  15.152   6.921  0.00  0.00     0.003 C 
HETATM   10  C   UNK N   1      33.891  15.476   5.681  0.00  0.00    -0.036 C 
HETATM   11  C   UNK N   1      34.945  13.639   7.157  0.00  0.00     0.038 C 
HETATM   12  C   UNK N   1      36.111  13.394   8.112  0.00  0.00     0.127 C 
HETATM   13  C   UNK N   1      35.947  14.107   9.495  0.00  0.00    -0.010 C 
HETATM   14  C   UNK N   1      35.495  15.576   9.297  0.00  0.00     0.003 C 
HETATM   15  C   UNK N   1      35.082  16.029  10.693  0.00  0.00     0.006 C 
HETATM   16  C   UNK N   1      34.706  14.768  11.465  0.00  0.00     0.006 C 
HETATM   17  C   UNK N   1      34.910  13.567  10.534  0.00  0.00     0.000 C 
HETATM   18  C   UNK N   1      37.338  14.134  10.153  0.00  0.00     0.018 C 
HETATM   19  C   UNK N   1      34.646  14.937   4.465  0.00  0.00     0.016 C 
ENDROOT
BRANCH  17  20
HETATM   20  C   UNK N   1      35.344  12.314  11.374  0.00  0.00    -0.013 C 
HETATM   21  C   UNK N   1      34.467  11.112  11.103  0.00  0.00     0.010 C 
BRANCH  20  22
HETATM   22  C   UNK N   1      35.281  12.535  12.893  0.00  0.00     0.015 C 
BRANCH  22  23
HETATM   23  C   UNK N   1      36.647  12.796  13.537  0.00  0.00     0.110 C 
BRANCH  23  24
HETATM   24  C   UNK N   1      36.518  13.509  14.854  0.00  0.00     0.139 C 
HETATM   25  O   UNK N   1      35.472  13.458  15.484  0.00  0.00    -0.650 OA
BRANCH  24  26
HETATM   26  O   UNK N   1      37.556  14.213  15.340  0.00  0.00    -0.776 OA
HETATM   27  H   UNK N   1      37.948  15.051  15.494  0.00  0.00     0.167 HD
ENDBRANCH  24  26
ENDBRANCH  23  24
ENDBRANCH  22  23
ENDBRANCH  20  22
ENDBRANCH  17  20
BRANCH  12  28
HETATM   28  O   UNK N   1      36.338  12.028   8.233  0.00  0.00    -0.395 OA
HETATM   29  H   UNK N   1      35.834  11.397   7.693  0.00  0.00     0.210 HD
ENDBRANCH  12  28
BRANCH   7  30
HETATM   30  O   UNK N   1      33.536  17.877   9.203  0.00  0.00    -0.395 OA
HETATM   31  H   UNK N   1      32.721  17.609   9.658  0.00  0.00     0.210 HD
ENDBRANCH   7  30
BRANCH   3  32
HETATM   32  O   UNK N   1      32.876  15.889   2.679  0.00  0.00    -0.396 OA
HETATM   33  H   UNK N   1      33.722  15.413   2.666  0.00  0.00     0.210 HD
ENDBRANCH   3  32
TORSDOF 8
ENDMDL
MODEL 9
REMARK VINA RESULT:      -7.1     16.696     20.829
REMARK  8 active torsions:
REMARK  status: ('A' for Active; 'I' for Inactive)
REMARK    1  A    between atoms: C_3  and  O_4 
REMARK    2  A    between atoms: C_8  and  O_9 
REMARK    3  A    between atoms: C_14  and  O_15 
REMARK    4  A    between atoms: C_20  and  C_23 
REMARK    5  A    between atoms: C_23  and  C_25 
REMARK    6  A    between atoms: C_25  and  C_26 
REMARK    7  A    between atoms: C_26  and  C_28 
REMARK    8  A    between atoms: C_28  and  O_29 
ROOT
HETATM    1  C   UNK N   1      34.931  12.686  14.466  0.00  0.00     0.012 C 
HETATM    2  C   UNK N   1      34.673  12.139  15.893  0.00  0.00     0.032 C 
HETATM    3  C   UNK N   1      35.243  10.742  16.205  0.00  0.00     0.118 C 
HETATM    4  C   UNK N   1      35.057   9.776  15.035  0.00  0.00     0.037 C 
HETATM    5  C   UNK N   1      35.337  10.348  13.633  0.00  0.00    -0.001 C 
HETATM    6  C   UNK N   1      34.015  10.264  12.864  0.00  0.00     0.037 C 
HETATM    7  C   UNK N   1      34.203  10.647  11.399  0.00  0.00     0.123 C 
HETATM    8  C   UNK N   1      34.719  12.104  11.257  0.00  0.00     0.024 C 
HETATM    9  C   UNK N   1      35.982  12.298  12.129  0.00  0.00     0.003 C 
HETATM   10  C   UNK N   1      35.864  11.814  13.610  0.00  0.00    -0.036 C 
HETATM   11  C   UNK N   1      36.404  13.774  12.019  0.00  0.00     0.038 C 
HETATM   12  C   UNK N   1      36.869  14.065  10.594  0.00  0.00     0.127 C 
HETATM   13  C   UNK N   1      35.783  13.767   9.508  0.00  0.00    -0.010 C 
HETATM   14  C   UNK N   1      35.122  12.389   9.766  0.00  0.00     0.003 C 
HETATM   15  C   UNK N   1      33.906  12.383   8.848  0.00  0.00     0.006 C 
HETATM   16  C   UNK N   1      33.541  13.843   8.600  0.00  0.00     0.006 C 
HETATM   17  C   UNK N   1      34.548  14.716   9.358  0.00  0.00     0.000 C 
HETATM   18  C   UNK N   1      36.512  13.686   8.155  0.00  0.00     0.018 C 
HETATM   19  C   UNK N   1      37.277  11.894  14.192  0.00  0.00     0.016 C 
ENDROOT
BRANCH  17  20
HETATM   20  C   UNK N   1      34.782  16.056   8.574  0.00  0.00    -0.013 C 
HETATM   21  C   UNK N   1      34.804  17.258   9.491  0.00  0.00     0.010 C 
BRANCH  20  22
HETATM   22  C   UNK N   1      33.701  16.356   7.525  0.00  0.00     0.015 C 
BRANCH  22  23
HETATM   23  C   UNK N   1      32.753  17.494   7.921  0.00  0.00     0.110 C 
BRANCH  23  24
HETATM   24  C   UNK N   1      31.376  16.988   8.245  0.00  0.00     0.139 C 
HETATM   25  O   UNK N   1      30.467  17.110   7.438  0.00  0.00    -0.650 OA
BRANCH  24  26
HETATM   26  O   UNK N   1      31.139  16.403   9.434  0.00  0.00    -0.776 OA
HETATM   27  H   UNK N   1      31.402  15.778  10.080  0.00  0.00     0.167 HD
ENDBRANCH  24  26
ENDBRANCH  23  24
ENDBRANCH  22  23
ENDBRANCH  20  22
ENDBRANCH  17  20
BRANCH  12  28
HETATM   28  O   UNK N   1      37.365  15.362  10.519  0.00  0.00    -0.395 OA
HETATM   29  H   UNK N   1      37.286  15.962  11.278  0.00  0.00     0.210 HD
ENDBRANCH  12  28
BRANCH   7  30
HETATM   30  O   UNK N   1      32.983  10.488  10.741  0.00  0.00    -0.395 OA
HETATM   31  H   UNK N   1      32.096  10.620  11.113  0.00  0.00     0.210 HD
ENDBRANCH   7  30
BRANCH   3  32
HETATM   32  O   UNK N   1      36.591  10.814  16.557  0.00  0.00    -0.396 OA
HETATM   33  H   UNK N   1      37.298  10.164  16.699  0.00  0.00     0.210 HD
ENDBRANCH   3  32
TORSDOF 8
ENDMDL
