REMARK  20 active torsions:
REMARK  status: ('A' for Active; 'I' for Inactive)
REMARK    1  A    between atoms: C_1  and  C_15 
REMARK    2  A    between atoms: C_4  and  N_16 
REMARK    3  A    between atoms: C_5  and  O_7 
REMARK    4  A    between atoms: C_8  and  O_7 
REMARK    5  A    between atoms: C_9  and  O_18 
REMARK    6  A    between atoms: C_10  and  O_14 
REMARK    7  A    between atoms: C_11  and  N_31 
REMARK    8  A    between atoms: C_13  and  N_17 
REMARK    9  A    between atoms: C_20  and  O_14 
REMARK   10  A    between atoms: C_15  and  N_19 
REMARK   11  A    between atoms: C_22  and  C_26 
REMARK   12  A    between atoms: C_23  and  O_28 
REMARK   13  A    between atoms: C_24  and  N_29 
REMARK   14  A    between atoms: C_25  and  O_30 
REMARK   15  A    between atoms: C_26  and  O_27 
REMARK       I    between atoms: N_31  and  C_35 
REMARK   16  A    between atoms: C_37  and  C_32 
REMARK   17  A    between atoms: C_32  and  C_33 
REMARK   18  A    between atoms: C_33  and  N_34 
REMARK   19  A    between atoms: C_35  and  C_37 
REMARK   20  A    between atoms: C_37  and  O_38 
ROOT
HETATM    1  C   UNK N   1      12.986 -14.133   0.559  0.00  0.00     0.178 C 
HETATM    2  C   UNK N   1      12.002 -15.044  -0.195  0.00  0.00     0.180 C 
HETATM    3  C   UNK N   1      11.961 -16.516   0.226  0.00  0.00     0.178 C 
HETATM    4  C   UNK N   1      13.391 -17.047   0.296  0.00  0.00     0.118 C 
HETATM    5  C   UNK N   1      14.135 -16.280   1.360  0.00  0.00     0.055 C 
HETATM    6  C   UNK N   1      14.335 -14.865   0.850  0.00  0.00     0.107 C 
ENDROOT
BRANCH   3   7
HETATM    7  O   UNK N   1      11.247 -17.224  -0.751  0.00  0.00    -0.349 OA
BRANCH   7   8
HETATM    8  C   UNK N   1      10.097 -17.726  -0.131  0.00  0.00     0.291 C 
HETATM    9  C   UNK N   1       9.843 -19.153  -0.637  0.00  0.00     0.198 C 
HETATM   10  C   UNK N   1       8.568 -19.693   0.008  0.00  0.00     0.139 C 
HETATM   11  C   UNK N   1       7.420 -18.699  -0.164  0.00  0.00     0.174 C 
HETATM   12  C   UNK N   1       7.906 -17.324   0.314  0.00  0.00     0.179 C 
HETATM   13  O   UNK N   1       8.998 -16.913  -0.475  0.00  0.00    -0.349 OA
BRANCH   9  14
HETATM   14  O   UNK N   1      10.920 -19.979  -0.313  0.00  0.00    -0.388 OA
HETATM   15  H   UNK N   1      10.797 -20.915  -0.087  0.00  0.00     0.210 HD
ENDBRANCH   9  14
BRANCH  10  16
HETATM   16  N   UNK N   1       8.215 -20.974  -0.581  0.00  0.00    -0.421 N 
HETATM   17  H   UNK N   1       7.312 -21.208  -0.994  0.00  0.00     0.150 HD
HETATM   18  H   UNK N   1       8.930 -21.700  -0.581  0.00  0.00     0.150 HD
ENDBRANCH  10  16
BRANCH  11  19
HETATM   19  O   UNK N   1       6.322 -19.120   0.590  0.00  0.00    -0.391 OA
HETATM   20  H   UNK N   1       5.688 -18.606   1.114  0.00  0.00     0.210 HD
ENDBRANCH  11  19
BRANCH  12  21
HETATM   21  C   UNK N   1       6.800 -16.276   0.243  0.00  0.00     0.198 C 
BRANCH  21  22
HETATM   22  O   UNK N   1       6.379 -16.090  -1.075  0.00  0.00    -0.398 OA
HETATM   23  H   UNK N   1       6.345 -15.773  -1.991  0.00  0.00     0.209 HD
ENDBRANCH  21  22
ENDBRANCH  12  21
ENDBRANCH   7   8
ENDBRANCH   3   7
BRANCH   2  24
HETATM   24  O   UNK N   1      10.720 -14.492  -0.144  0.00  0.00    -0.390 OA
HETATM   25  H   UNK N   1      10.607 -13.529  -0.109  0.00  0.00     0.210 HD
ENDBRANCH   2  24
BRANCH   4  26
HETATM   26  N   UNK N   1      13.412 -18.461   0.572  0.00  0.00    -0.352 N 
HETATM   27  C   UNK N   1      14.347 -19.299   0.052  0.00  0.00     0.246 C 
HETATM   28  O   UNK N   1      14.231 -20.499   0.237  0.00  0.00    -0.271 OA
HETATM   29  H   UNK N   1      12.720 -18.836   1.163  0.00  0.00     0.163 HD
BRANCH  27  30
HETATM   30  C   UNK N   1      15.536 -18.814  -0.739  0.00  0.00     0.211 C 
BRANCH  30  31
HETATM   31  C   UNK N   1      16.585 -18.161   0.143  0.00  0.00     0.060 C 
BRANCH  31  32
HETATM   32  C   UNK N   1      17.958 -18.608  -0.322  0.00  0.00     0.114 C 
BRANCH  32  33
HETATM   33  N   UNK N   1      18.957 -18.237   0.664  0.00  0.00    -0.430 N 
HETATM   34  H   UNK N   1      19.533 -18.715   1.358  0.00  0.00     0.149 HD
HETATM   35  H   UNK N   1      19.127 -17.232   0.664  0.00  0.00     0.149 HD
ENDBRANCH  32  33
ENDBRANCH  31  32
ENDBRANCH  30  31
BRANCH  30  36
HETATM   36  O   UNK N   1      15.165 -17.978  -1.795  0.00  0.00    -0.386 OA
HETATM   37  H   UNK N   1      15.538 -17.465  -2.528  0.00  0.00     0.210 HD
ENDBRANCH  30  36
ENDBRANCH  27  30
ENDBRANCH   4  26
BRANCH   1  38
HETATM   38  O   UNK N   1      13.116 -12.996  -0.285  0.00  0.00    -0.349 OA
BRANCH  38  39
HETATM   39  C   UNK N   1      14.200 -12.187   0.079  0.00  0.00     0.282 C 
HETATM   40  C   UNK N   1      13.877 -10.707  -0.131  0.00  0.00     0.129 C 
HETATM   41  C   UNK N   1      15.093  -9.886   0.311  0.00  0.00     0.032 C 
HETATM   42  C   UNK N   1      16.386 -10.435  -0.305  0.00  0.00     0.036 C 
HETATM   43  C   UNK N   1      16.424 -11.950  -0.100  0.00  0.00     0.142 C 
HETATM   44  O   UNK N   1      15.304 -12.519  -0.726  0.00  0.00    -0.352 OA
BRANCH  40  45
HETATM   45  N   UNK N   1      12.719 -10.324   0.658  0.00  0.00    -0.422 N 
HETATM   46  H   UNK N   1      12.546  -9.485   1.211  0.00  0.00     0.150 HD
HETATM   47  H   UNK N   1      11.958 -11.003   0.658  0.00  0.00     0.150 HD
ENDBRANCH  40  45
BRANCH  43  48
HETATM   48  C   UNK N   1      17.694 -12.536  -0.688  0.00  0.00     0.143 C 
BRANCH  48  49
HETATM   49  N   UNK N   1      17.737 -13.970  -0.450  0.00  0.00    -0.428 N 
HETATM   50  H   UNK N   1      16.880 -14.498  -0.283  0.00  0.00     0.150 HD
HETATM   51  H   UNK N   1      18.634 -14.454  -0.450  0.00  0.00     0.150 HD
ENDBRANCH  48  49
ENDBRANCH  43  48
ENDBRANCH  38  39
ENDBRANCH   1  38
BRANCH   6  52
HETATM   52  N   UNK N   1      15.102 -14.144   1.853  0.00  0.00    -0.423 N 
HETATM   53  H   UNK N   1      15.809 -14.356   2.557  0.00  0.00     0.150 HD
HETATM   54  H   UNK N   1      14.867 -13.151   1.853  0.00  0.00     0.150 HD
ENDBRANCH   6  52
TORSDOF 20
