MODEL 1
REMARK VINA RESULT:      -6.9      0.000      0.000
REMARK  20 active torsions:
REMARK  status: ('A' for Active; 'I' for Inactive)
REMARK    1  A    between atoms: C_1  and  C_15 
REMARK    2  A    between atoms: C_4  and  N_16 
REMARK    3  A    between atoms: C_5  and  O_7 
REMARK    4  A    between atoms: C_8  and  O_7 
REMARK    5  A    between atoms: C_9  and  O_18 
REMARK    6  A    between atoms: C_10  and  O_14 
REMARK    7  A    between atoms: C_11  and  N_31 
REMARK    8  A    between atoms: C_13  and  N_17 
REMARK    9  A    between atoms: C_20  and  O_14 
REMARK   10  A    between atoms: C_15  and  N_19 
REMARK   11  A    between atoms: C_22  and  C_26 
REMARK   12  A    between atoms: C_23  and  O_28 
REMARK   13  A    between atoms: C_24  and  N_29 
REMARK   14  A    between atoms: C_25  and  O_30 
REMARK   15  A    between atoms: C_26  and  O_27 
REMARK       I    between atoms: N_31  and  C_35 
REMARK   16  A    between atoms: C_37  and  C_32 
REMARK   17  A    between atoms: C_32  and  C_33 
REMARK   18  A    between atoms: C_33  and  N_34 
REMARK   19  A    between atoms: C_35  and  C_37 
REMARK   20  A    between atoms: C_37  and  O_38 
ROOT
HETATM    1  C   UNK N   1      22.254  15.513   7.200  0.00  0.00     0.178 C 
HETATM    2  C   UNK N   1      23.161  15.952   6.037  0.00  0.00     0.180 C 
HETATM    3  C   UNK N   1      22.981  17.383   5.522  0.00  0.00     0.178 C 
HETATM    4  C   UNK N   1      21.493  17.642   5.299  0.00  0.00     0.118 C 
HETATM    5  C   UNK N   1      20.783  17.532   6.625  0.00  0.00     0.055 C 
HETATM    6  C   UNK N   1      20.804  16.072   7.038  0.00  0.00     0.107 C 
ENDROOT
BRANCH   3   7
HETATM    7  O   UNK N   1      23.662  17.491   4.302  0.00  0.00    -0.349 OA
BRANCH   7   8
HETATM    8  C   UNK N   1      24.784  18.296   4.531  0.00  0.00     0.291 C 
HETATM    9  C   UNK N   1      24.833  19.396   3.462  0.00  0.00     0.198 C 
HETATM   10  C   UNK N   1      26.075  20.256   3.684  0.00  0.00     0.139 C 
HETATM   11  C   UNK N   1      27.319  19.376   3.808  0.00  0.00     0.174 C 
HETATM   12  C   UNK N   1      27.032  18.293   4.857  0.00  0.00     0.179 C 
HETATM   13  O   UNK N   1      25.946  17.504   4.431  0.00  0.00    -0.349 OA
BRANCH   9  14
HETATM   14  O   UNK N   1      23.690  20.193   3.536  0.00  0.00    -0.388 OA
HETATM   15  H   UNK N   1      22.804  19.834   3.367  0.00  0.00     0.210 HD
ENDBRANCH   9  14
BRANCH  10  16
HETATM   16  N   UNK N   1      26.234  21.197   2.588  0.00  0.00    -0.421 N 
HETATM   17  H   UNK N   1      25.658  21.229   1.746  0.00  0.00     0.150 HD
HETATM   18  H   UNK N   1      26.983  21.883   2.667  0.00  0.00     0.150 HD
ENDBRANCH  10  16
BRANCH  11  19
HETATM   19  O   UNK N   1      28.407  20.160   4.198  0.00  0.00    -0.391 OA
HETATM   20  H   UNK N   1      29.097  19.989   4.858  0.00  0.00     0.210 HD
ENDBRANCH  11  19
BRANCH  12  21
HETATM   21  C   UNK N   1      28.247  17.403   5.099  0.00  0.00     0.198 C 
BRANCH  21  22
HETATM   22  O   UNK N   1      29.144  17.490   4.033  0.00  0.00    -0.398 OA
HETATM   23  H   UNK N   1      29.660  17.851   3.296  0.00  0.00     0.209 HD
ENDBRANCH  21  22
ENDBRANCH  12  21
ENDBRANCH   7   8
ENDBRANCH   3   7
BRANCH   2  24
HETATM   24  O   UNK N   1      24.497  15.724   6.374  0.00  0.00    -0.390 OA
HETATM   25  H   UNK N   1      24.982  16.377   6.903  0.00  0.00     0.210 HD
ENDBRANCH   2  24
BRANCH   4  26
HETATM   26  N   UNK N   1      21.269  18.933   4.702  0.00  0.00    -0.352 N 
HETATM   27  C   UNK N   1      20.476  19.114   3.613  0.00  0.00     0.246 C 
HETATM   28  O   UNK N   1      20.428  20.217   3.095  0.00  0.00    -0.271 OA
HETATM   29  H   UNK N   1      21.709  19.719   5.099  0.00  0.00     0.163 HD
BRANCH  27  30
HETATM   30  C   UNK N   1      19.636  18.012   3.016  0.00  0.00     0.211 C 
BRANCH  30  31
HETATM   31  C   UNK N   1      20.428  17.144   2.055  0.00  0.00     0.060 C 
BRANCH  31  32
HETATM   32  C   UNK N   1      20.032  17.504   0.636  0.00  0.00     0.114 C 
BRANCH  32  33
HETATM   33  N   UNK N   1      18.924  16.670   0.206  0.00  0.00    -0.430 N 
HETATM   34  H   UNK N   1      18.550  16.325  -0.678  0.00  0.00     0.149 HD
HETATM   35  H   UNK N   1      18.372  16.345   0.999  0.00  0.00     0.149 HD
ENDBRANCH  32  33
ENDBRANCH  31  32
ENDBRANCH  30  31
BRANCH  30  36
HETATM   36  O   UNK N   1      18.469  18.498   2.423  0.00  0.00    -0.386 OA
HETATM   37  H   UNK N   1      18.018  18.559   1.567  0.00  0.00     0.210 HD
ENDBRANCH  30  36
ENDBRANCH  27  30
ENDBRANCH   4  26
BRANCH   1  38
HETATM   38  O   UNK N   1      22.331  14.093   7.177  0.00  0.00    -0.349 OA
BRANCH  38  39
HETATM   39  C   UNK N   1      22.626  13.558   8.438  0.00  0.00     0.282 C 
HETATM   40  C   UNK N   1      23.676  12.452   8.334  0.00  0.00     0.129 C 
HETATM   41  C   UNK N   1      23.966  11.935   9.748  0.00  0.00     0.032 C 
HETATM   42  C   UNK N   1      22.667  11.626  10.502  0.00  0.00     0.036 C 
HETATM   43  C   UNK N   1      21.714  12.812  10.347  0.00  0.00     0.142 C 
HETATM   44  O   UNK N   1      21.452  13.007   8.982  0.00  0.00    -0.352 OA
BRANCH  40  45
HETATM   45  N   UNK N   1      24.900  12.968   7.745  0.00  0.00    -0.422 N 
HETATM   46  H   UNK N   1      25.188  13.026   6.769  0.00  0.00     0.150 HD
HETATM   47  H   UNK N   1      25.578  13.330   8.416  0.00  0.00     0.150 HD
ENDBRANCH  40  45
BRANCH  43  48
HETATM   48  C   UNK N   1      20.415  12.552  11.087  0.00  0.00     0.143 C 
BRANCH  48  49
HETATM   49  N   UNK N   1      20.638  11.602  12.165  0.00  0.00    -0.428 N 
HETATM   50  H   UNK N   1      20.249  11.766  13.095  0.00  0.00     0.150 HD
HETATM   51  H   UNK N   1      21.188  10.762  11.991  0.00  0.00     0.150 HD
ENDBRANCH  48  49
ENDBRANCH  43  48
ENDBRANCH  38  39
ENDBRANCH   1  38
BRANCH   6  52
HETATM   52  N   UNK N   1      20.071  15.961   8.288  0.00  0.00    -0.423 N 
HETATM   53  H   UNK N   1      20.150  15.447   9.165  0.00  0.00     0.150 HD
HETATM   54  H   UNK N   1      19.248  16.564   8.287  0.00  0.00     0.150 HD
ENDBRANCH   6  52
TORSDOF 20
ENDMDL
MODEL 2
REMARK VINA RESULT:      -6.2      3.021      6.579
REMARK  20 active torsions:
REMARK  status: ('A' for Active; 'I' for Inactive)
REMARK    1  A    between atoms: C_1  and  C_15 
REMARK    2  A    between atoms: C_4  and  N_16 
REMARK    3  A    between atoms: C_5  and  O_7 
REMARK    4  A    between atoms: C_8  and  O_7 
REMARK    5  A    between atoms: C_9  and  O_18 
REMARK    6  A    between atoms: C_10  and  O_14 
REMARK    7  A    between atoms: C_11  and  N_31 
REMARK    8  A    between atoms: C_13  and  N_17 
REMARK    9  A    between atoms: C_20  and  O_14 
REMARK   10  A    between atoms: C_15  and  N_19 
REMARK   11  A    between atoms: C_22  and  C_26 
REMARK   12  A    between atoms: C_23  and  O_28 
REMARK   13  A    between atoms: C_24  and  N_29 
REMARK   14  A    between atoms: C_25  and  O_30 
REMARK   15  A    between atoms: C_26  and  O_27 
REMARK       I    between atoms: N_31  and  C_35 
REMARK   16  A    between atoms: C_37  and  C_32 
REMARK   17  A    between atoms: C_32  and  C_33 
REMARK   18  A    between atoms: C_33  and  N_34 
REMARK   19  A    between atoms: C_35  and  C_37 
REMARK   20  A    between atoms: C_37  and  O_38 
ROOT
HETATM    1  C   UNK N   1      24.577  17.185   4.952  0.00  0.00     0.178 C 
HETATM    2  C   UNK N   1      23.489  18.228   4.643  0.00  0.00     0.180 C 
HETATM    3  C   UNK N   1      22.286  18.274   5.589  0.00  0.00     0.178 C 
HETATM    4  C   UNK N   1      21.764  16.853   5.789  0.00  0.00     0.118 C 
HETATM    5  C   UNK N   1      22.844  16.035   6.451  0.00  0.00     0.055 C 
HETATM    6  C   UNK N   1      23.955  15.836   5.436  0.00  0.00     0.107 C 
ENDROOT
BRANCH   3   7
HETATM    7  O   UNK N   1      21.292  19.056   4.984  0.00  0.00    -0.349 OA
BRANCH   7   8
HETATM    8  C   UNK N   1      21.348  18.795   3.610  0.00  0.00     0.291 C 
HETATM    9  C   UNK N   1      20.873  20.041   2.849  0.00  0.00     0.198 C 
HETATM   10  C   UNK N   1      20.897  19.749   1.349  0.00  0.00     0.139 C 
HETATM   11  C   UNK N   1      20.157  18.447   1.046  0.00  0.00     0.174 C 
HETATM   12  C   UNK N   1      20.716  17.356   1.970  0.00  0.00     0.179 C 
HETATM   13  O   UNK N   1      20.489  17.718   3.312  0.00  0.00    -0.349 OA
BRANCH   9  14
HETATM   14  O   UNK N   1      21.706  21.125   3.130  0.00  0.00    -0.388 OA
HETATM   15  H   UNK N   1      22.316  21.119   3.885  0.00  0.00     0.210 HD
ENDBRANCH   9  14
BRANCH  10  16
HETATM   16  N   UNK N   1      20.295  20.851   0.618  0.00  0.00    -0.421 N 
HETATM   17  H   UNK N   1      20.481  21.088  -0.357  0.00  0.00     0.150 HD
HETATM   18  H   UNK N   1      19.630  21.437   1.121  0.00  0.00     0.150 HD
ENDBRANCH  10  16
BRANCH  11  19
HETATM   19  O   UNK N   1      20.350  18.102  -0.293  0.00  0.00    -0.391 OA
HETATM   20  H   UNK N   1      20.280  17.241  -0.735  0.00  0.00     0.210 HD
ENDBRANCH  11  19
BRANCH  12  21
HETATM   21  C   UNK N   1      20.080  15.998   1.691  0.00  0.00     0.198 C 
BRANCH  21  22
HETATM   22  O   UNK N   1      20.718  15.364   0.623  0.00  0.00    -0.398 OA
HETATM   23  H   UNK N   1      21.165  15.224  -0.226  0.00  0.00     0.209 HD
ENDBRANCH  21  22
ENDBRANCH  12  21
ENDBRANCH   7   8
ENDBRANCH   3   7
BRANCH   2  24
HETATM   24  O   UNK N   1      24.070  19.494   4.539  0.00  0.00    -0.390 OA
HETATM   25  H   UNK N   1      23.511  20.276   4.413  0.00  0.00     0.210 HD
ENDBRANCH   2  24
BRANCH   4  26
HETATM   26  N   UNK N   1      20.557  16.844   6.577  0.00  0.00    -0.352 N 
HETATM   27  C   UNK N   1      19.639  15.845   6.506  0.00  0.00     0.246 C 
HETATM   28  O   UNK N   1      18.589  15.965   7.115  0.00  0.00    -0.271 OA
HETATM   29  H   UNK N   1      20.391  17.593   7.193  0.00  0.00     0.163 HD
BRANCH  27  30
HETATM   30  C   UNK N   1      19.860  14.580   5.714  0.00  0.00     0.211 C 
BRANCH  30  31
HETATM   31  C   UNK N   1      18.781  14.362   4.668  0.00  0.00     0.060 C 
BRANCH  31  32
HETATM   32  C   UNK N   1      18.844  12.921   4.199  0.00  0.00     0.114 C 
BRANCH  32  33
HETATM   33  N   UNK N   1      20.111  12.674   3.535  0.00  0.00    -0.430 N 
HETATM   34  H   UNK N   1      21.042  12.350   3.801  0.00  0.00     0.149 HD
HETATM   35  H   UNK N   1      20.057  12.879   2.538  0.00  0.00     0.149 HD
ENDBRANCH  32  33
ENDBRANCH  31  32
ENDBRANCH  30  31
BRANCH  30  36
HETATM   36  O   UNK N   1      20.009  13.460   6.535  0.00  0.00    -0.386 OA
HETATM   37  H   UNK N   1      19.976  12.491   6.516  0.00  0.00     0.210 HD
ENDBRANCH  30  36
ENDBRANCH  27  30
ENDBRANCH   4  26
BRANCH   1  38
HETATM   38  O   UNK N   1      25.308  17.080   3.737  0.00  0.00    -0.349 OA
BRANCH  38  39
HETATM   39  C   UNK N   1      26.602  17.603   3.850  0.00  0.00     0.282 C 
HETATM   40  C   UNK N   1      27.647  16.487   3.866  0.00  0.00     0.129 C 
HETATM   41  C   UNK N   1      29.033  17.132   3.965  0.00  0.00     0.032 C 
HETATM   42  C   UNK N   1      29.080  18.176   5.087  0.00  0.00     0.036 C 
HETATM   43  C   UNK N   1      27.863  19.094   4.956  0.00  0.00     0.142 C 
HETATM   44  O   UNK N   1      26.698  18.318   5.058  0.00  0.00    -0.352 OA
BRANCH  40  45
HETATM   45  N   UNK N   1      27.564  15.698   2.648  0.00  0.00    -0.422 N 
HETATM   46  H   UNK N   1      27.214  14.752   2.498  0.00  0.00     0.150 HD
HETATM   47  H   UNK N   1      27.911  16.166   1.811  0.00  0.00     0.150 HD
ENDBRANCH  40  45
BRANCH  43  48
HETATM   48  C   UNK N   1      27.873  20.151   6.044  0.00  0.00     0.143 C 
BRANCH  48  49
HETATM   49  N   UNK N   1      26.528  20.342   6.564  0.00  0.00    -0.428 N 
HETATM   50  H   UNK N   1      26.332  21.072   7.250  0.00  0.00     0.150 HD
HETATM   51  H   UNK N   1      25.772  19.740   6.240  0.00  0.00     0.150 HD
ENDBRANCH  48  49
ENDBRANCH  43  48
ENDBRANCH  38  39
ENDBRANCH   1  38
BRANCH   6  52
HETATM   52  N   UNK N   1      24.969  14.999   6.058  0.00  0.00    -0.423 N 
HETATM   53  H   UNK N   1      25.001  14.176   6.659  0.00  0.00     0.150 HD
HETATM   54  H   UNK N   1      25.908  15.327   5.829  0.00  0.00     0.150 HD
ENDBRANCH   6  52
TORSDOF 20
ENDMDL
MODEL 3
REMARK VINA RESULT:      -6.1     10.229     14.362
REMARK  20 active torsions:
REMARK  status: ('A' for Active; 'I' for Inactive)
REMARK    1  A    between atoms: C_1  and  C_15 
REMARK    2  A    between atoms: C_4  and  N_16 
REMARK    3  A    between atoms: C_5  and  O_7 
REMARK    4  A    between atoms: C_8  and  O_7 
REMARK    5  A    between atoms: C_9  and  O_18 
REMARK    6  A    between atoms: C_10  and  O_14 
REMARK    7  A    between atoms: C_11  and  N_31 
REMARK    8  A    between atoms: C_13  and  N_17 
REMARK    9  A    between atoms: C_20  and  O_14 
REMARK   10  A    between atoms: C_15  and  N_19 
REMARK   11  A    between atoms: C_22  and  C_26 
REMARK   12  A    between atoms: C_23  and  O_28 
REMARK   13  A    between atoms: C_24  and  N_29 
REMARK   14  A    between atoms: C_25  and  O_30 
REMARK   15  A    between atoms: C_26  and  O_27 
REMARK       I    between atoms: N_31  and  C_35 
REMARK   16  A    between atoms: C_37  and  C_32 
REMARK   17  A    between atoms: C_32  and  C_33 
REMARK   18  A    between atoms: C_33  and  N_34 
REMARK   19  A    between atoms: C_35  and  C_37 
REMARK   20  A    between atoms: C_37  and  O_38 
ROOT
HETATM    1  C   UNK N   1      35.927  13.589  11.560  0.00  0.00     0.178 C 
HETATM    2  C   UNK N   1      35.503  14.821  10.743  0.00  0.00     0.180 C 
HETATM    3  C   UNK N   1      35.279  14.612   9.242  0.00  0.00     0.178 C 
HETATM    4  C   UNK N   1      36.472  13.850   8.669  0.00  0.00     0.118 C 
HETATM    5  C   UNK N   1      36.533  12.493   9.323  0.00  0.00     0.055 C 
HETATM    6  C   UNK N   1      36.940  12.699  10.770  0.00  0.00     0.107 C 
ENDROOT
BRANCH   3   7
HETATM    7  O   UNK N   1      35.197  15.875   8.639  0.00  0.00    -0.349 OA
BRANCH   7   8
HETATM    8  C   UNK N   1      33.979  15.919   7.951  0.00  0.00     0.291 C 
HETATM    9  C   UNK N   1      34.180  16.684   6.635  0.00  0.00     0.198 C 
HETATM   10  C   UNK N   1      32.845  16.768   5.896  0.00  0.00     0.139 C 
HETATM   11  C   UNK N   1      31.753  17.295   6.826  0.00  0.00     0.174 C 
HETATM   12  C   UNK N   1      31.778  16.458   8.112  0.00  0.00     0.179 C 
HETATM   13  O   UNK N   1      33.031  16.602   8.740  0.00  0.00    -0.349 OA
BRANCH   9  14
HETATM   14  O   UNK N   1      35.119  16.031   5.835  0.00  0.00    -0.388 OA
HETATM   15  H   UNK N   1      35.027  15.986   4.870  0.00  0.00     0.210 HD
ENDBRANCH   9  14
BRANCH  10  16
HETATM   16  N   UNK N   1      32.972  17.629   4.733  0.00  0.00    -0.421 N 
HETATM   17  H   UNK N   1      33.181  18.627   4.754  0.00  0.00     0.150 HD
HETATM   18  H   UNK N   1      32.841  17.199   3.818  0.00  0.00     0.150 HD
ENDBRANCH  10  16
BRANCH  11  19
HETATM   19  O   UNK N   1      30.511  17.186   6.195  0.00  0.00    -0.391 OA
HETATM   20  H   UNK N   1      29.700  17.703   6.316  0.00  0.00     0.210 HD
ENDBRANCH  11  19
BRANCH  12  21
HETATM   21  C   UNK N   1      30.672  16.869   9.078  0.00  0.00     0.198 C 
BRANCH  21  22
HETATM   22  O   UNK N   1      30.654  18.255   9.249  0.00  0.00    -0.398 OA
HETATM   23  H   UNK N   1      30.336  19.153   9.430  0.00  0.00     0.209 HD
ENDBRANCH  21  22
ENDBRANCH  12  21
ENDBRANCH   7   8
ENDBRANCH   3   7
BRANCH   2  24
HETATM   24  O   UNK N   1      34.372  15.401  11.323  0.00  0.00    -0.390 OA
HETATM   25  H   UNK N   1      34.068  15.105  12.195  0.00  0.00     0.210 HD
ENDBRANCH   2  24
BRANCH   4  26
HETATM   26  N   UNK N   1      36.376  13.727   7.237  0.00  0.00    -0.352 N 
HETATM   27  C   UNK N   1      37.466  13.693   6.426  0.00  0.00     0.246 C 
HETATM   28  O   UNK N   1      37.302  13.704   5.217  0.00  0.00    -0.271 OA
HETATM   29  H   UNK N   1      35.483  13.664   6.828  0.00  0.00     0.163 HD
BRANCH  27  30
HETATM   30  C   UNK N   1      38.879  13.629   6.950  0.00  0.00     0.211 C 
BRANCH  30  31
HETATM   31  C   UNK N   1      39.818  14.542   6.182  0.00  0.00     0.060 C 
BRANCH  31  32
HETATM   32  C   UNK N   1      40.822  13.687   5.433  0.00  0.00     0.114 C 
BRANCH  32  33
HETATM   33  N   UNK N   1      40.265  13.275   4.157  0.00  0.00    -0.430 N 
HETATM   34  H   UNK N   1      39.663  13.682   3.441  0.00  0.00     0.149 HD
HETATM   35  H   UNK N   1      40.550  12.327   3.913  0.00  0.00     0.149 HD
ENDBRANCH  32  33
ENDBRANCH  31  32
ENDBRANCH  30  31
BRANCH  30  36
HETATM   36  O   UNK N   1      39.367  12.321   7.002  0.00  0.00    -0.386 OA
HETATM   37  H   UNK N   1      39.096  11.401   6.863  0.00  0.00     0.210 HD
ENDBRANCH  30  36
ENDBRANCH  27  30
ENDBRANCH   4  26
BRANCH   1  38
HETATM   38  O   UNK N   1      36.455  14.138  12.760  0.00  0.00    -0.349 OA
BRANCH  38  39
HETATM   39  C   UNK N   1      35.801  13.650  13.899  0.00  0.00     0.282 C 
HETATM   40  C   UNK N   1      36.737  13.642  15.109  0.00  0.00     0.129 C 
HETATM   41  C   UNK N   1      35.949  13.123  16.317  0.00  0.00     0.032 C 
HETATM   42  C   UNK N   1      35.201  11.828  15.977  0.00  0.00     0.036 C 
HETATM   43  C   UNK N   1      34.454  12.024  14.657  0.00  0.00     0.142 C 
HETATM   44  O   UNK N   1      35.384  12.331  13.652  0.00  0.00    -0.352 OA
BRANCH  40  45
HETATM   45  N   UNK N   1      37.221  14.983  15.384  0.00  0.00    -0.422 N 
HETATM   46  H   UNK N   1      37.300  15.795  14.772  0.00  0.00     0.150 HD
HETATM   47  H   UNK N   1      37.532  15.138  16.343  0.00  0.00     0.150 HD
ENDBRANCH  40  45
BRANCH  43  48
HETATM   48  C   UNK N   1      33.690  10.767  14.285  0.00  0.00     0.143 C 
BRANCH  48  49
HETATM   49  N   UNK N   1      33.696  10.590  12.841  0.00  0.00    -0.428 N 
HETATM   50  H   UNK N   1      33.805   9.664  12.429  0.00  0.00     0.150 HD
HETATM   51  H   UNK N   1      33.590  11.402  12.234  0.00  0.00     0.150 HD
ENDBRANCH  48  49
ENDBRANCH  43  48
ENDBRANCH  38  39
ENDBRANCH   1  38
BRANCH   6  52
HETATM   52  N   UNK N   1      37.053  11.385  11.383  0.00  0.00    -0.423 N 
HETATM   53  H   UNK N   1      37.381  10.991  12.264  0.00  0.00     0.150 HD
HETATM   54  H   UNK N   1      36.710  10.656  10.757  0.00  0.00     0.150 HD
ENDBRANCH   6  52
TORSDOF 20
ENDMDL
MODEL 4
REMARK VINA RESULT:      -6.1      6.800     11.447
REMARK  20 active torsions:
REMARK  status: ('A' for Active; 'I' for Inactive)
REMARK    1  A    between atoms: C_1  and  C_15 
REMARK    2  A    between atoms: C_4  and  N_16 
REMARK    3  A    between atoms: C_5  and  O_7 
REMARK    4  A    between atoms: C_8  and  O_7 
REMARK    5  A    between atoms: C_9  and  O_18 
REMARK    6  A    between atoms: C_10  and  O_14 
REMARK    7  A    between atoms: C_11  and  N_31 
REMARK    8  A    between atoms: C_13  and  N_17 
REMARK    9  A    between atoms: C_20  and  O_14 
REMARK   10  A    between atoms: C_15  and  N_19 
REMARK   11  A    between atoms: C_22  and  C_26 
REMARK   12  A    between atoms: C_23  and  O_28 
REMARK   13  A    between atoms: C_24  and  N_29 
REMARK   14  A    between atoms: C_25  and  O_30 
REMARK   15  A    between atoms: C_26  and  O_27 
REMARK       I    between atoms: N_31  and  C_35 
REMARK   16  A    between atoms: C_37  and  C_32 
REMARK   17  A    between atoms: C_32  and  C_33 
REMARK   18  A    between atoms: C_33  and  N_34 
REMARK   19  A    between atoms: C_35  and  C_37 
REMARK   20  A    between atoms: C_37  and  O_38 
ROOT
HETATM    1  C   UNK N   1      31.657  14.189   3.068  0.00  0.00     0.178 C 
HETATM    2  C   UNK N   1      30.921  14.612   4.351  0.00  0.00     0.180 C 
HETATM    3  C   UNK N   1      31.365  15.924   5.003  0.00  0.00     0.178 C 
HETATM    4  C   UNK N   1      32.888  15.926   5.115  0.00  0.00     0.118 C 
HETATM    5  C   UNK N   1      33.471  15.877   3.725  0.00  0.00     0.055 C 
HETATM    6  C   UNK N   1      33.186  14.500   3.157  0.00  0.00     0.107 C 
ENDROOT
BRANCH   3   7
HETATM    7  O   UNK N   1      30.802  15.981   6.285  0.00  0.00    -0.349 OA
BRANCH   7   8
HETATM    8  C   UNK N   1      30.062  17.167   6.353  0.00  0.00     0.291 C 
HETATM    9  C   UNK N   1      29.395  17.258   7.733  0.00  0.00     0.198 C 
HETATM   10  C   UNK N   1      28.556  18.533   7.799  0.00  0.00     0.139 C 
HETATM   11  C   UNK N   1      27.626  18.624   6.590  0.00  0.00     0.174 C 
HETATM   12  C   UNK N   1      28.469  18.419   5.325  0.00  0.00     0.179 C 
HETATM   13  O   UNK N   1      29.062  17.142   5.359  0.00  0.00    -0.349 OA
BRANCH   9  14
HETATM   14  O   UNK N   1      30.364  17.280   8.737  0.00  0.00    -0.388 OA
HETATM   15  H   UNK N   1      31.307  17.162   8.540  0.00  0.00     0.210 HD
ENDBRANCH   9  14
BRANCH  10  16
HETATM   16  N   UNK N   1      27.783  18.557   9.030  0.00  0.00    -0.421 N 
HETATM   17  H   UNK N   1      28.116  18.255   9.946  0.00  0.00     0.150 HD
HETATM   18  H   UNK N   1      26.826  18.904   8.973  0.00  0.00     0.150 HD
ENDBRANCH  10  16
BRANCH  11  19
HETATM   19  O   UNK N   1      27.008  19.877   6.570  0.00  0.00    -0.391 OA
HETATM   20  H   UNK N   1      26.080  20.120   6.710  0.00  0.00     0.210 HD
ENDBRANCH  11  19
BRANCH  12  21
HETATM   21  C   UNK N   1      27.633  18.562   4.057  0.00  0.00     0.198 C 
BRANCH  21  22
HETATM   22  O   UNK N   1      27.687  19.870   3.574  0.00  0.00    -0.398 OA
HETATM   23  H   UNK N   1      27.408  20.742   3.254  0.00  0.00     0.209 HD
ENDBRANCH  21  22
ENDBRANCH  12  21
ENDBRANCH   7   8
ENDBRANCH   3   7
BRANCH   2  24
HETATM   24  O   UNK N   1      29.544  14.632   4.115  0.00  0.00    -0.390 OA
HETATM   25  H   UNK N   1      28.956  14.053   4.625  0.00  0.00     0.210 HD
ENDBRANCH   2  24
BRANCH   4  26
HETATM   26  N   UNK N   1      33.359  17.085   5.830  0.00  0.00    -0.352 N 
HETATM   27  C   UNK N   1      33.839  17.023   7.099  0.00  0.00     0.246 C 
HETATM   28  O   UNK N   1      34.110  18.061   7.679  0.00  0.00    -0.271 OA
HETATM   29  H   UNK N   1      33.333  17.960   5.378  0.00  0.00     0.163 HD
BRANCH  27  30
HETATM   30  C   UNK N   1      34.066  15.723   7.829  0.00  0.00     0.211 C 
BRANCH  30  31
HETATM   31  C   UNK N   1      33.466  15.734   9.224  0.00  0.00     0.060 C 
BRANCH  31  32
HETATM   32  C   UNK N   1      34.593  15.716  10.238  0.00  0.00     0.114 C 
BRANCH  32  33
HETATM   33  N   UNK N   1      35.009  17.074  10.537  0.00  0.00    -0.430 N 
HETATM   34  H   UNK N   1      35.401  17.575  11.336  0.00  0.00     0.149 HD
HETATM   35  H   UNK N   1      34.874  17.691   9.737  0.00  0.00     0.149 HD
ENDBRANCH  32  33
ENDBRANCH  31  32
ENDBRANCH  30  31
BRANCH  30  36
HETATM   36  O   UNK N   1      35.414  15.358   7.857  0.00  0.00    -0.386 OA
HETATM   37  H   UNK N   1      36.025  14.728   8.269  0.00  0.00     0.210 HD
ENDBRANCH  30  36
ENDBRANCH  27  30
ENDBRANCH   4  26
BRANCH   1  38
HETATM   38  O   UNK N   1      31.355  12.805   2.939  0.00  0.00    -0.349 OA
BRANCH  38  39
HETATM   39  C   UNK N   1      30.759  12.505   1.707  0.00  0.00     0.282 C 
HETATM   40  C   UNK N   1      29.641  11.476   1.874  0.00  0.00     0.129 C 
HETATM   41  C   UNK N   1      29.021  11.218   0.496  0.00  0.00     0.032 C 
HETATM   42  C   UNK N   1      30.102  10.942  -0.555  0.00  0.00     0.036 C 
HETATM   43  C   UNK N   1      31.186  12.015  -0.440  0.00  0.00     0.142 C 
HETATM   44  O   UNK N   1      31.735  11.966   0.851  0.00  0.00    -0.352 OA
BRANCH  40  45
HETATM   45  N   UNK N   1      28.621  11.977   2.780  0.00  0.00    -0.422 N 
HETATM   46  H   UNK N   1      27.625  11.768   2.832  0.00  0.00     0.150 HD
HETATM   47  H   UNK N   1      28.957  12.644   3.474  0.00  0.00     0.150 HD
ENDBRANCH  40  45
BRANCH  43  48
HETATM   48  C   UNK N   1      32.276  11.785  -1.471  0.00  0.00     0.143 C 
BRANCH  48  49
HETATM   49  N   UNK N   1      31.705  11.791  -2.808  0.00  0.00    -0.428 N 
HETATM   50  H   UNK N   1      32.274  11.550  -3.620  0.00  0.00     0.150 HD
HETATM   51  H   UNK N   1      30.724  12.039  -2.936  0.00  0.00     0.150 HD
ENDBRANCH  48  49
ENDBRANCH  43  48
ENDBRANCH  38  39
ENDBRANCH   1  38
BRANCH   6  52
HETATM   52  N   UNK N   1      33.798  14.436   1.840  0.00  0.00    -0.423 N 
HETATM   53  H   UNK N   1      33.903  15.044   1.027  0.00  0.00     0.150 HD
HETATM   54  H   UNK N   1      34.245  13.532   1.685  0.00  0.00     0.150 HD
ENDBRANCH   6  52
TORSDOF 20
ENDMDL
MODEL 5
REMARK VINA RESULT:      -6.0      2.903      7.886
REMARK  20 active torsions:
REMARK  status: ('A' for Active; 'I' for Inactive)
REMARK    1  A    between atoms: C_1  and  C_15 
REMARK    2  A    between atoms: C_4  and  N_16 
REMARK    3  A    between atoms: C_5  and  O_7 
REMARK    4  A    between atoms: C_8  and  O_7 
REMARK    5  A    between atoms: C_9  and  O_18 
REMARK    6  A    between atoms: C_10  and  O_14 
REMARK    7  A    between atoms: C_11  and  N_31 
REMARK    8  A    between atoms: C_13  and  N_17 
REMARK    9  A    between atoms: C_20  and  O_14 
REMARK   10  A    between atoms: C_15  and  N_19 
REMARK   11  A    between atoms: C_22  and  C_26 
REMARK   12  A    between atoms: C_23  and  O_28 
REMARK   13  A    between atoms: C_24  and  N_29 
REMARK   14  A    between atoms: C_25  and  O_30 
REMARK   15  A    between atoms: C_26  and  O_27 
REMARK       I    between atoms: N_31  and  C_35 
REMARK   16  A    between atoms: C_37  and  C_32 
REMARK   17  A    between atoms: C_32  and  C_33 
REMARK   18  A    between atoms: C_33  and  N_34 
REMARK   19  A    between atoms: C_35  and  C_37 
REMARK   20  A    between atoms: C_37  and  O_38 
ROOT
HETATM    1  C   UNK N   1      25.592  15.585   5.144  0.00  0.00     0.178 C 
HETATM    2  C   UNK N   1      24.758  15.541   6.436  0.00  0.00     0.180 C 
HETATM    3  C   UNK N   1      23.538  14.615   6.441  0.00  0.00     0.178 C 
HETATM    4  C   UNK N   1      22.728  14.864   5.171  0.00  0.00     0.118 C 
HETATM    5  C   UNK N   1      23.580  14.503   3.981  0.00  0.00     0.055 C 
HETATM    6  C   UNK N   1      24.682  15.541   3.875  0.00  0.00     0.107 C 
ENDROOT
BRANCH   3   7
HETATM    7  O   UNK N   1      22.760  14.933   7.563  0.00  0.00    -0.349 OA
BRANCH   7   8
HETATM    8  C   UNK N   1      22.689  13.779   8.350  0.00  0.00     0.291 C 
HETATM    9  C   UNK N   1      21.384  13.809   9.159  0.00  0.00     0.198 C 
HETATM   10  C   UNK N   1      21.319  12.569  10.049  0.00  0.00     0.139 C 
HETATM   11  C   UNK N   1      22.610  12.419  10.852  0.00  0.00     0.174 C 
HETATM   12  C   UNK N   1      23.790  12.505   9.875  0.00  0.00     0.179 C 
HETATM   13  O   UNK N   1      23.782  13.763   9.240  0.00  0.00    -0.349 OA
BRANCH   9  14
HETATM   14  O   UNK N   1      20.284  13.830   8.301  0.00  0.00    -0.388 OA
HETATM   15  H   UNK N   1      20.242  13.269   7.510  0.00  0.00     0.210 HD
ENDBRANCH   9  14
BRANCH  10  16
HETATM   16  N   UNK N   1      20.178  12.658  10.946  0.00  0.00    -0.421 N 
HETATM   17  H   UNK N   1      20.137  13.214  11.800  0.00  0.00     0.150 HD
HETATM   18  H   UNK N   1      19.349  12.120  10.700  0.00  0.00     0.150 HD
ENDBRANCH  10  16
BRANCH  11  19
HETATM   19  O   UNK N   1      22.609  11.188  11.512  0.00  0.00    -0.391 OA
HETATM   20  H   UNK N   1      22.297  10.953  12.400  0.00  0.00     0.210 HD
ENDBRANCH  11  19
BRANCH  12  21
HETATM   21  C   UNK N   1      25.127  12.297  10.581  0.00  0.00     0.198 C 
BRANCH  21  22
HETATM   22  O   UNK N   1      25.000  12.515  11.954  0.00  0.00    -0.398 OA
HETATM   23  H   UNK N   1      25.120  12.899  12.836  0.00  0.00     0.209 HD
ENDBRANCH  21  22
ENDBRANCH  12  21
ENDBRANCH   7   8
ENDBRANCH   3   7
BRANCH   2  24
HETATM   24  O   UNK N   1      25.590  15.249   7.520  0.00  0.00    -0.390 OA
HETATM   25  H   UNK N   1      26.450  14.826   7.372  0.00  0.00     0.210 HD
ENDBRANCH   2  24
BRANCH   4  26
HETATM   26  N   UNK N   1      21.502  14.106   5.175  0.00  0.00    -0.352 N 
HETATM   27  C   UNK N   1      20.277  14.686   5.076  0.00  0.00     0.246 C 
HETATM   28  O   UNK N   1      19.284  13.990   5.203  0.00  0.00    -0.271 OA
HETATM   29  H   UNK N   1      21.555  13.126   5.251  0.00  0.00     0.163 HD
BRANCH  27  30
HETATM   30  C   UNK N   1      20.084  16.156   4.804  0.00  0.00     0.211 C 
BRANCH  30  31
HETATM   31  C   UNK N   1      20.517  17.019   5.975  0.00  0.00     0.060 C 
BRANCH  31  32
HETATM   32  C   UNK N   1      19.616  16.721   7.159  0.00  0.00     0.114 C 
BRANCH  32  33
HETATM   33  N   UNK N   1      20.350  16.909   8.397  0.00  0.00    -0.430 N 
HETATM   34  H   UNK N   1      20.196  16.728   9.390  0.00  0.00     0.149 HD
HETATM   35  H   UNK N   1      21.261  17.336   8.230  0.00  0.00     0.149 HD
ENDBRANCH  32  33
ENDBRANCH  31  32
ENDBRANCH  30  31
BRANCH  30  36
HETATM   36  O   UNK N   1      18.779  16.455   4.406  0.00  0.00    -0.386 OA
HETATM   37  H   UNK N   1      18.081  17.119   4.517  0.00  0.00     0.210 HD
ENDBRANCH  30  36
ENDBRANCH  27  30
ENDBRANCH   4  26
BRANCH   1  38
HETATM   38  O   UNK N   1      26.353  16.780   5.268  0.00  0.00    -0.349 OA
BRANCH  38  39
HETATM   39  C   UNK N   1      27.695  16.524   5.576  0.00  0.00     0.282 C 
HETATM   40  C   UNK N   1      28.235  17.548   6.575  0.00  0.00     0.129 C 
HETATM   41  C   UNK N   1      29.693  17.190   6.884  0.00  0.00     0.032 C 
HETATM   42  C   UNK N   1      30.490  16.952   5.595  0.00  0.00     0.036 C 
HETATM   43  C   UNK N   1      29.692  16.013   4.690  0.00  0.00     0.142 C 
HETATM   44  O   UNK N   1      28.456  16.610   4.397  0.00  0.00    -0.352 OA
BRANCH  40  45
HETATM   45  N   UNK N   1      27.458  17.519   7.802  0.00  0.00    -0.422 N 
HETATM   46  H   UNK N   1      26.604  17.009   8.030  0.00  0.00     0.150 HD
HETATM   47  H   UNK N   1      27.824  18.101   8.555  0.00  0.00     0.150 HD
ENDBRANCH  40  45
BRANCH  43  48
HETATM   48  C   UNK N   1      30.449  15.742   3.403  0.00  0.00     0.143 C 
BRANCH  48  49
HETATM   49  N   UNK N   1      30.273  16.851   2.479  0.00  0.00    -0.428 N 
HETATM   50  H   UNK N   1      29.809  16.714   1.580  0.00  0.00     0.150 HD
HETATM   51  H   UNK N   1      30.616  17.776   2.732  0.00  0.00     0.150 HD
ENDBRANCH  48  49
ENDBRANCH  43  48
ENDBRANCH  38  39
ENDBRANCH   1  38
BRANCH   6  52
HETATM   52  N   UNK N   1      25.468  15.224   2.694  0.00  0.00    -0.423 N 
HETATM   53  H   UNK N   1      25.723  15.675   1.815  0.00  0.00     0.150 HD
HETATM   54  H   UNK N   1      25.877  14.291   2.762  0.00  0.00     0.150 HD
ENDBRANCH   6  52
TORSDOF 20
ENDMDL
MODEL 6
REMARK VINA RESULT:      -5.9     10.648     13.719
REMARK  20 active torsions:
REMARK  status: ('A' for Active; 'I' for Inactive)
REMARK    1  A    between atoms: C_1  and  C_15 
REMARK    2  A    between atoms: C_4  and  N_16 
REMARK    3  A    between atoms: C_5  and  O_7 
REMARK    4  A    between atoms: C_8  and  O_7 
REMARK    5  A    between atoms: C_9  and  O_18 
REMARK    6  A    between atoms: C_10  and  O_14 
REMARK    7  A    between atoms: C_11  and  N_31 
REMARK    8  A    between atoms: C_13  and  N_17 
REMARK    9  A    between atoms: C_20  and  O_14 
REMARK   10  A    between atoms: C_15  and  N_19 
REMARK   11  A    between atoms: C_22  and  C_26 
REMARK   12  A    between atoms: C_23  and  O_28 
REMARK   13  A    between atoms: C_24  and  N_29 
REMARK   14  A    between atoms: C_25  and  O_30 
REMARK   15  A    between atoms: C_26  and  O_27 
REMARK       I    between atoms: N_31  and  C_35 
REMARK   16  A    between atoms: C_37  and  C_32 
REMARK   17  A    between atoms: C_32  and  C_33 
REMARK   18  A    between atoms: C_33  and  N_34 
REMARK   19  A    between atoms: C_35  and  C_37 
REMARK   20  A    between atoms: C_37  and  O_38 
ROOT
HETATM    1  C   UNK N   1      35.201  12.832  11.291  0.00  0.00     0.178 C 
HETATM    2  C   UNK N   1      34.168  12.558  10.185  0.00  0.00     0.180 C 
HETATM    3  C   UNK N   1      34.635  12.748   8.739  0.00  0.00     0.178 C 
HETATM    4  C   UNK N   1      35.343  14.096   8.625  0.00  0.00     0.118 C 
HETATM    5  C   UNK N   1      36.565  14.071   9.508  0.00  0.00     0.055 C 
HETATM    6  C   UNK N   1      36.089  14.071  10.949  0.00  0.00     0.107 C 
ENDROOT
BRANCH   3   7
HETATM    7  O   UNK N   1      33.500  12.745   7.916  0.00  0.00    -0.349 OA
BRANCH   7   8
HETATM    8  C   UNK N   1      33.505  11.531   7.219  0.00  0.00     0.291 C 
HETATM    9  C   UNK N   1      33.313  11.816   5.723  0.00  0.00     0.198 C 
HETATM   10  C   UNK N   1      33.281  10.492   4.962  0.00  0.00     0.139 C 
HETATM   11  C   UNK N   1      32.279   9.532   5.602  0.00  0.00     0.174 C 
HETATM   12  C   UNK N   1      32.586   9.457   7.104  0.00  0.00     0.179 C 
HETATM   13  O   UNK N   1      32.436  10.735   7.677  0.00  0.00    -0.349 OA
BRANCH   9  14
HETATM   14  O   UNK N   1      34.358  12.608   5.245  0.00  0.00    -0.388 OA
HETATM   15  H   UNK N   1      34.481  12.775   4.296  0.00  0.00     0.210 HD
ENDBRANCH   9  14
BRANCH  10  16
HETATM   16  N   UNK N   1      32.933  10.725   3.570  0.00  0.00    -0.421 N 
HETATM   17  H   UNK N   1      33.235  10.155   2.780  0.00  0.00     0.150 HD
HETATM   18  H   UNK N   1      32.337  11.526   3.367  0.00  0.00     0.150 HD
ENDBRANCH  10  16
BRANCH  11  19
HETATM   19  O   UNK N   1      32.400   8.271   5.014  0.00  0.00    -0.391 OA
HETATM   20  H   UNK N   1      31.726   7.700   4.612  0.00  0.00     0.210 HD
ENDBRANCH  11  19
BRANCH  12  21
HETATM   21  C   UNK N   1      31.674   8.465   7.820  0.00  0.00     0.198 C 
BRANCH  21  22
HETATM   22  O   UNK N   1      30.855   9.121   8.740  0.00  0.00    -0.398 OA
HETATM   23  H   UNK N   1      30.062   9.439   9.199  0.00  0.00     0.209 HD
ENDBRANCH  21  22
ENDBRANCH  12  21
ENDBRANCH   7   8
ENDBRANCH   3   7
BRANCH   2  24
HETATM   24  O   UNK N   1      33.630  11.280  10.354  0.00  0.00    -0.390 OA
HETATM   25  H   UNK N   1      33.160  11.055  11.173  0.00  0.00     0.210 HD
ENDBRANCH   2  24
BRANCH   4  26
HETATM   26  N   UNK N   1      35.702  14.385   7.259  0.00  0.00    -0.352 N 
HETATM   27  C   UNK N   1      35.165  15.419   6.560  0.00  0.00     0.246 C 
HETATM   28  O   UNK N   1      35.431  15.530   5.375  0.00  0.00    -0.271 OA
HETATM   29  H   UNK N   1      36.365  13.809   6.814  0.00  0.00     0.163 HD
BRANCH  27  30
HETATM   30  C   UNK N   1      34.260  16.451   7.185  0.00  0.00     0.211 C 
BRANCH  30  31
HETATM   31  C   UNK N   1      32.792  16.142   6.955  0.00  0.00     0.060 C 
BRANCH  31  32
HETATM   32  C   UNK N   1      31.965  17.318   7.438  0.00  0.00     0.114 C 
BRANCH  32  33
HETATM   33  N   UNK N   1      32.178  17.519   8.860  0.00  0.00    -0.430 N 
HETATM   34  H   UNK N   1      31.608  17.759   9.673  0.00  0.00     0.149 HD
HETATM   35  H   UNK N   1      33.155  17.384   9.115  0.00  0.00     0.149 HD
ENDBRANCH  32  33
ENDBRANCH  31  32
ENDBRANCH  30  31
BRANCH  30  36
HETATM   36  O   UNK N   1      34.577  17.750   6.780  0.00  0.00    -0.386 OA
HETATM   37  H   UNK N   1      35.273  18.421   6.851  0.00  0.00     0.210 HD
ENDBRANCH  30  36
ENDBRANCH  27  30
ENDBRANCH   4  26
BRANCH   1  38
HETATM   38  O   UNK N   1      34.414  12.992  12.464  0.00  0.00    -0.349 OA
BRANCH  38  39
HETATM   39  C   UNK N   1      35.079  12.546  13.613  0.00  0.00     0.282 C 
HETATM   40  C   UNK N   1      34.209  11.573  14.410  0.00  0.00     0.129 C 
HETATM   41  C   UNK N   1      35.008  11.110  15.633  0.00  0.00     0.032 C 
HETATM   42  C   UNK N   1      35.623  12.302  16.378  0.00  0.00     0.036 C 
HETATM   43  C   UNK N   1      36.317  13.211  15.363  0.00  0.00     0.142 C 
HETATM   44  O   UNK N   1      35.368  13.654  14.429  0.00  0.00    -0.352 OA
BRANCH  40  45
HETATM   45  N   UNK N   1      33.857  10.424  13.595  0.00  0.00    -0.422 N 
HETATM   46  H   UNK N   1      34.139   9.447  13.676  0.00  0.00     0.150 HD
HETATM   47  H   UNK N   1      33.228  10.627  12.819  0.00  0.00     0.150 HD
ENDBRANCH  40  45
BRANCH  43  48
HETATM   48  C   UNK N   1      36.949  14.402  16.059  0.00  0.00     0.143 C 
BRANCH  48  49
HETATM   49  N   UNK N   1      37.381  15.381  15.074  0.00  0.00    -0.428 N 
HETATM   50  H   UNK N   1      38.347  15.401  14.745  0.00  0.00     0.150 HD
HETATM   51  H   UNK N   1      36.712  16.057  14.709  0.00  0.00     0.150 HD
ENDBRANCH  48  49
ENDBRANCH  43  48
ENDBRANCH  38  39
ENDBRANCH   1  38
BRANCH   6  52
HETATM   52  N   UNK N   1      37.269  14.105  11.798  0.00  0.00    -0.423 N 
HETATM   53  H   UNK N   1      38.245  13.812  11.744  0.00  0.00     0.150 HD
HETATM   54  H   UNK N   1      37.064  14.542  12.697  0.00  0.00     0.150 HD
ENDBRANCH   6  52
TORSDOF 20
ENDMDL
MODEL 7
REMARK VINA RESULT:      -5.7      8.266     13.381
REMARK  20 active torsions:
REMARK  status: ('A' for Active; 'I' for Inactive)
REMARK    1  A    between atoms: C_1  and  C_15 
REMARK    2  A    between atoms: C_4  and  N_16 
REMARK    3  A    between atoms: C_5  and  O_7 
REMARK    4  A    between atoms: C_8  and  O_7 
REMARK    5  A    between atoms: C_9  and  O_18 
REMARK    6  A    between atoms: C_10  and  O_14 
REMARK    7  A    between atoms: C_11  and  N_31 
REMARK    8  A    between atoms: C_13  and  N_17 
REMARK    9  A    between atoms: C_20  and  O_14 
REMARK   10  A    between atoms: C_15  and  N_19 
REMARK   11  A    between atoms: C_22  and  C_26 
REMARK   12  A    between atoms: C_23  and  O_28 
REMARK   13  A    between atoms: C_24  and  N_29 
REMARK   14  A    between atoms: C_25  and  O_30 
REMARK   15  A    between atoms: C_26  and  O_27 
REMARK       I    between atoms: N_31  and  C_35 
REMARK   16  A    between atoms: C_37  and  C_32 
REMARK   17  A    between atoms: C_32  and  C_33 
REMARK   18  A    between atoms: C_33  and  N_34 
REMARK   19  A    between atoms: C_35  and  C_37 
REMARK   20  A    between atoms: C_37  and  O_38 
ROOT
HETATM    1  C   UNK N   1      31.955  15.086   6.405  0.00  0.00     0.178 C 
HETATM    2  C   UNK N   1      32.747  13.862   6.898  0.00  0.00     0.180 C 
HETATM    3  C   UNK N   1      32.840  13.664   8.414  0.00  0.00     0.178 C 
HETATM    4  C   UNK N   1      33.249  14.986   9.059  0.00  0.00     0.118 C 
HETATM    5  C   UNK N   1      32.170  16.005   8.789  0.00  0.00     0.055 C 
HETATM    6  C   UNK N   1      32.211  16.335   7.308  0.00  0.00     0.107 C 
ENDROOT
BRANCH   3   7
HETATM    7  O   UNK N   1      33.825  12.698   8.663  0.00  0.00    -0.349 OA
BRANCH   7   8
HETATM    8  C   UNK N   1      33.174  11.580   9.195  0.00  0.00     0.291 C 
HETATM    9  C   UNK N   1      34.059  10.963  10.287  0.00  0.00     0.198 C 
HETATM   10  C   UNK N   1      33.370   9.719  10.847  0.00  0.00     0.139 C 
HETATM   11  C   UNK N   1      32.946   8.788   9.712  0.00  0.00     0.174 C 
HETATM   12  C   UNK N   1      32.155   9.614   8.689  0.00  0.00     0.179 C 
HETATM   13  O   UNK N   1      32.979  10.631   8.171  0.00  0.00    -0.349 OA
BRANCH   9  14
HETATM   14  O   UNK N   1      34.272  11.884  11.314  0.00  0.00    -0.388 OA
HETATM   15  H   UNK N   1      34.411  11.603  12.232  0.00  0.00     0.210 HD
ENDBRANCH   9  14
BRANCH  10  16
HETATM   16  N   UNK N   1      34.261   9.024  11.760  0.00  0.00    -0.421 N 
HETATM   17  H   UNK N   1      34.625   8.080  11.630  0.00  0.00     0.150 HD
HETATM   18  H   UNK N   1      34.547   9.522  12.602  0.00  0.00     0.150 HD
ENDBRANCH  10  16
BRANCH  11  19
HETATM   19  O   UNK N   1      32.156   7.757  10.226  0.00  0.00    -0.391 OA
HETATM   20  H   UNK N   1      31.191   7.668  10.267  0.00  0.00     0.210 HD
ENDBRANCH  11  19
BRANCH  12  21
HETATM   21  C   UNK N   1      31.629   8.749   7.548  0.00  0.00     0.198 C 
BRANCH  21  22
HETATM   22  O   UNK N   1      30.402   8.176   7.886  0.00  0.00    -0.398 OA
HETATM   23  H   UNK N   1      29.661   7.551   7.927  0.00  0.00     0.209 HD
ENDBRANCH  21  22
ENDBRANCH  12  21
ENDBRANCH   7   8
ENDBRANCH   3   7
BRANCH   2  24
HETATM   24  O   UNK N   1      32.250  12.707   6.290  0.00  0.00    -0.390 OA
HETATM   25  H   UNK N   1      31.509  12.767   5.667  0.00  0.00     0.210 HD
ENDBRANCH   2  24
BRANCH   4  26
HETATM   26  N   UNK N   1      33.469  14.833  10.474  0.00  0.00    -0.352 N 
HETATM   27  C   UNK N   1      34.700  14.924  11.042  0.00  0.00     0.246 C 
HETATM   28  O   UNK N   1      34.823  14.668  12.229  0.00  0.00    -0.271 OA
HETATM   29  H   UNK N   1      32.694  14.657  11.055  0.00  0.00     0.163 HD
BRANCH  27  30
HETATM   30  C   UNK N   1      35.931  15.339  10.275  0.00  0.00     0.211 C 
BRANCH  30  31
HETATM   31  C   UNK N   1      36.633  14.157   9.632  0.00  0.00     0.060 C 
BRANCH  31  32
HETATM   32  C   UNK N   1      37.399  13.405  10.704  0.00  0.00     0.114 C 
BRANCH  32  33
HETATM   33  N   UNK N   1      38.819  13.681  10.579  0.00  0.00    -0.430 N 
HETATM   34  H   UNK N   1      39.626  13.734  11.202  0.00  0.00     0.149 HD
HETATM   35  H   UNK N   1      39.079  13.874   9.613  0.00  0.00     0.149 HD
ENDBRANCH  32  33
ENDBRANCH  31  32
ENDBRANCH  30  31
BRANCH  30  36
HETATM   36  O   UNK N   1      36.811  16.094  11.053  0.00  0.00    -0.386 OA
HETATM   37  H   UNK N   1      37.715  16.446  11.058  0.00  0.00     0.210 HD
ENDBRANCH  30  36
ENDBRANCH  27  30
ENDBRANCH   4  26
BRANCH   1  38
HETATM   38  O   UNK N   1      32.381  15.250   5.058  0.00  0.00    -0.349 OA
BRANCH  38  39
HETATM   39  C   UNK N   1      31.340  15.046   4.145  0.00  0.00     0.282 C 
HETATM   40  C   UNK N   1      30.674  16.369   3.765  0.00  0.00     0.129 C 
HETATM   41  C   UNK N   1      29.567  16.072   2.747  0.00  0.00     0.032 C 
HETATM   42  C   UNK N   1      28.668  14.925   3.226  0.00  0.00     0.036 C 
HETATM   43  C   UNK N   1      29.552  13.767   3.691  0.00  0.00     0.142 C 
HETATM   44  O   UNK N   1      30.371  14.216   4.738  0.00  0.00    -0.352 OA
BRANCH  40  45
HETATM   45  N   UNK N   1      31.646  17.274   3.175  0.00  0.00    -0.422 N 
HETATM   46  H   UNK N   1      32.654  17.339   3.312  0.00  0.00     0.150 HD
HETATM   47  H   UNK N   1      31.256  17.952   2.521  0.00  0.00     0.150 HD
ENDBRANCH  40  45
BRANCH  43  48
HETATM   48  C   UNK N   1      28.702  12.604   4.166  0.00  0.00     0.143 C 
BRANCH  48  49
HETATM   49  N   UNK N   1      29.535  11.623   4.843  0.00  0.00    -0.428 N 
HETATM   50  H   UNK N   1      29.263  10.640   4.875  0.00  0.00     0.150 HD
HETATM   51  H   UNK N   1      30.400  11.921   5.292  0.00  0.00     0.150 HD
ENDBRANCH  48  49
ENDBRANCH  43  48
ENDBRANCH  38  39
ENDBRANCH   1  38
BRANCH   6  52
HETATM   52  N   UNK N   1      31.209  17.358   7.061  0.00  0.00    -0.423 N 
HETATM   53  H   UNK N   1      31.178  18.372   6.950  0.00  0.00     0.150 HD
HETATM   54  H   UNK N   1      30.277  16.949   6.977  0.00  0.00     0.150 HD
ENDBRANCH   6  52
TORSDOF 20
ENDMDL
MODEL 8
REMARK VINA RESULT:      -5.7      7.366     11.431
REMARK  20 active torsions:
REMARK  status: ('A' for Active; 'I' for Inactive)
REMARK    1  A    between atoms: C_1  and  C_15 
REMARK    2  A    between atoms: C_4  and  N_16 
REMARK    3  A    between atoms: C_5  and  O_7 
REMARK    4  A    between atoms: C_8  and  O_7 
REMARK    5  A    between atoms: C_9  and  O_18 
REMARK    6  A    between atoms: C_10  and  O_14 
REMARK    7  A    between atoms: C_11  and  N_31 
REMARK    8  A    between atoms: C_13  and  N_17 
REMARK    9  A    between atoms: C_20  and  O_14 
REMARK   10  A    between atoms: C_15  and  N_19 
REMARK   11  A    between atoms: C_22  and  C_26 
REMARK   12  A    between atoms: C_23  and  O_28 
REMARK   13  A    between atoms: C_24  and  N_29 
REMARK   14  A    between atoms: C_25  and  O_30 
REMARK   15  A    between atoms: C_26  and  O_27 
REMARK       I    between atoms: N_31  and  C_35 
REMARK   16  A    between atoms: C_37  and  C_32 
REMARK   17  A    between atoms: C_32  and  C_33 
REMARK   18  A    between atoms: C_33  and  N_34 
REMARK   19  A    between atoms: C_35  and  C_37 
REMARK   20  A    between atoms: C_37  and  O_38 
ROOT
HETATM    1  C   UNK N   1      33.731  14.356   8.383  0.00  0.00     0.178 C 
HETATM    2  C   UNK N   1      33.132  15.605   7.713  0.00  0.00     0.180 C 
HETATM    3  C   UNK N   1      32.006  15.373   6.701  0.00  0.00     0.178 C 
HETATM    4  C   UNK N   1      32.436  14.277   5.729  0.00  0.00     0.118 C 
HETATM    5  C   UNK N   1      32.633  12.999   6.505  0.00  0.00     0.055 C 
HETATM    6  C   UNK N   1      33.868  13.174   7.371  0.00  0.00     0.107 C 
ENDROOT
BRANCH   3   7
HETATM    7  O   UNK N   1      31.806  16.569   5.997  0.00  0.00    -0.349 OA
BRANCH   7   8
HETATM    8  C   UNK N   1      30.458  16.913   6.153  0.00  0.00     0.291 C 
HETATM    9  C   UNK N   1      30.020  17.761   4.951  0.00  0.00     0.198 C 
HETATM   10  C   UNK N   1      28.560  18.171   5.133  0.00  0.00     0.139 C 
HETATM   11  C   UNK N   1      28.347  18.791   6.513  0.00  0.00     0.174 C 
HETATM   12  C   UNK N   1      28.930  17.833   7.560  0.00  0.00     0.179 C 
HETATM   13  O   UNK N   1      30.311  17.673   7.331  0.00  0.00    -0.349 OA
BRANCH   9  14
HETATM   14  O   UNK N   1      30.160  17.033   3.769  0.00  0.00    -0.388 OA
HETATM   15  H   UNK N   1      29.477  16.413   3.466  0.00  0.00     0.210 HD
ENDBRANCH   9  14
BRANCH  10  16
HETATM   16  N   UNK N   1      28.172  19.112   4.095  0.00  0.00    -0.421 N 
HETATM   17  H   UNK N   1      28.132  18.909   3.096  0.00  0.00     0.150 HD
HETATM   18  H   UNK N   1      27.920  20.054   4.390  0.00  0.00     0.150 HD
ENDBRANCH  10  16
BRANCH  11  19
HETATM   19  O   UNK N   1      26.981  18.983   6.733  0.00  0.00    -0.391 OA
HETATM   20  H   UNK N   1      26.432  18.761   7.501  0.00  0.00     0.210 HD
ENDBRANCH  11  19
BRANCH  12  21
HETATM   21  C   UNK N   1      28.703  18.339   8.981  0.00  0.00     0.198 C 
BRANCH  21  22
HETATM   22  O   UNK N   1      27.402  18.059   9.403  0.00  0.00    -0.398 OA
HETATM   23  H   UNK N   1      26.436  18.094   9.482  0.00  0.00     0.209 HD
ENDBRANCH  21  22
ENDBRANCH  12  21
ENDBRANCH   7   8
ENDBRANCH   3   7
BRANCH   2  24
HETATM   24  O   UNK N   1      32.720  16.510   8.694  0.00  0.00    -0.390 OA
HETATM   25  H   UNK N   1      31.778  16.720   8.796  0.00  0.00     0.210 HD
ENDBRANCH   2  24
BRANCH   4  26
HETATM   26  N   UNK N   1      31.466  14.096   4.679  0.00  0.00    -0.352 N 
HETATM   27  C   UNK N   1      31.741  14.343   3.372  0.00  0.00     0.246 C 
HETATM   28  O   UNK N   1      30.836  14.279   2.556  0.00  0.00    -0.271 OA
HETATM   29  H   UNK N   1      30.565  13.780   4.920  0.00  0.00     0.163 HD
BRANCH  27  30
HETATM   30  C   UNK N   1      33.123  14.683   2.873  0.00  0.00     0.211 C 
BRANCH  30  31
HETATM   31  C   UNK N   1      34.020  13.461   2.786  0.00  0.00     0.060 C 
BRANCH  31  32
HETATM   32  C   UNK N   1      35.276  13.721   3.597  0.00  0.00     0.114 C 
BRANCH  32  33
HETATM   33  N   UNK N   1      36.420  13.114   2.941  0.00  0.00    -0.430 N 
HETATM   34  H   UNK N   1      37.095  12.378   3.150  0.00  0.00     0.149 HD
HETATM   35  H   UNK N   1      36.597  13.538   2.031  0.00  0.00     0.149 HD
ENDBRANCH  32  33
ENDBRANCH  31  32
ENDBRANCH  30  31
BRANCH  30  36
HETATM   36  O   UNK N   1      33.720  15.702   3.619  0.00  0.00    -0.386 OA
HETATM   37  H   UNK N   1      34.568  15.965   4.010  0.00  0.00     0.210 HD
ENDBRANCH  30  36
ENDBRANCH  27  30
ENDBRANCH   4  26
BRANCH   1  38
HETATM   38  O   UNK N   1      34.971  14.812   8.909  0.00  0.00    -0.349 OA
BRANCH  38  39
HETATM   39  C   UNK N   1      35.120  14.495  10.265  0.00  0.00     0.282 C 
HETATM   40  C   UNK N   1      35.833  15.619  11.018  0.00  0.00     0.129 C 
HETATM   41  C   UNK N   1      35.936  15.214  12.493  0.00  0.00     0.032 C 
HETATM   42  C   UNK N   1      36.483  13.789  12.640  0.00  0.00     0.036 C 
HETATM   43  C   UNK N   1      35.717  12.867  11.690  0.00  0.00     0.142 C 
HETATM   44  O   UNK N   1      35.894  13.326  10.375  0.00  0.00    -0.352 OA
BRANCH  40  45
HETATM   45  N   UNK N   1      35.085  16.859  10.905  0.00  0.00    -0.422 N 
HETATM   46  H   UNK N   1      34.080  17.020  10.849  0.00  0.00     0.150 HD
HETATM   47  H   UNK N   1      35.657  17.702  10.877  0.00  0.00     0.150 HD
ENDBRANCH  40  45
BRANCH  43  48
HETATM   48  C   UNK N   1      36.221  11.441  11.808  0.00  0.00     0.143 C 
BRANCH  48  49
HETATM   49  N   UNK N   1      37.634  11.440  12.153  0.00  0.00    -0.428 N 
HETATM   50  H   UNK N   1      38.347  11.585  11.437  0.00  0.00     0.150 HD
HETATM   51  H   UNK N   1      37.917  11.293  13.121  0.00  0.00     0.150 HD
ENDBRANCH  48  49
ENDBRANCH  43  48
ENDBRANCH  38  39
ENDBRANCH   1  38
BRANCH   6  52
HETATM   52  N   UNK N   1      34.088  11.921   8.075  0.00  0.00    -0.423 N 
HETATM   53  H   UNK N   1      34.270  11.616   9.031  0.00  0.00     0.150 HD
HETATM   54  H   UNK N   1      34.051  11.127   7.435  0.00  0.00     0.150 HD
ENDBRANCH   6  52
TORSDOF 20
ENDMDL
MODEL 9
REMARK VINA RESULT:      -5.7      2.833      7.571
REMARK  20 active torsions:
REMARK  status: ('A' for Active; 'I' for Inactive)
REMARK    1  A    between atoms: C_1  and  C_15 
REMARK    2  A    between atoms: C_4  and  N_16 
REMARK    3  A    between atoms: C_5  and  O_7 
REMARK    4  A    between atoms: C_8  and  O_7 
REMARK    5  A    between atoms: C_9  and  O_18 
REMARK    6  A    between atoms: C_10  and  O_14 
REMARK    7  A    between atoms: C_11  and  N_31 
REMARK    8  A    between atoms: C_13  and  N_17 
REMARK    9  A    between atoms: C_20  and  O_14 
REMARK   10  A    between atoms: C_15  and  N_19 
REMARK   11  A    between atoms: C_22  and  C_26 
REMARK   12  A    between atoms: C_23  and  O_28 
REMARK   13  A    between atoms: C_24  and  N_29 
REMARK   14  A    between atoms: C_25  and  O_30 
REMARK   15  A    between atoms: C_26  and  O_27 
REMARK       I    between atoms: N_31  and  C_35 
REMARK   16  A    between atoms: C_37  and  C_32 
REMARK   17  A    between atoms: C_32  and  C_33 
REMARK   18  A    between atoms: C_33  and  N_34 
REMARK   19  A    between atoms: C_35  and  C_37 
REMARK   20  A    between atoms: C_37  and  O_38 
ROOT
HETATM    1  C   UNK N   1      27.225  17.202   5.708  0.00  0.00     0.178 C 
HETATM    2  C   UNK N   1      26.005  16.594   6.422  0.00  0.00     0.180 C 
HETATM    3  C   UNK N   1      24.884  16.049   5.532  0.00  0.00     0.178 C 
HETATM    4  C   UNK N   1      24.543  17.096   4.474  0.00  0.00     0.118 C 
HETATM    5  C   UNK N   1      25.759  17.314   3.608  0.00  0.00     0.055 C 
HETATM    6  C   UNK N   1      26.800  18.027   4.451  0.00  0.00     0.107 C 
ENDROOT
BRANCH   3   7
HETATM    7  O   UNK N   1      23.763  15.822   6.343  0.00  0.00    -0.349 OA
BRANCH   7   8
HETATM    8  C   UNK N   1      23.786  14.469   6.700  0.00  0.00     0.291 C 
HETATM    9  C   UNK N   1      22.435  13.836   6.335  0.00  0.00     0.198 C 
HETATM   10  C   UNK N   1      22.441  12.368   6.756  0.00  0.00     0.139 C 
HETATM   11  C   UNK N   1      22.880  12.232   8.213  0.00  0.00     0.174 C 
HETATM   12  C   UNK N   1      24.195  13.004   8.387  0.00  0.00     0.179 C 
HETATM   13  O   UNK N   1      23.982  14.365   8.092  0.00  0.00    -0.349 OA
BRANCH   9  14
HETATM   14  O   UNK N   1      22.214  13.930   4.960  0.00  0.00    -0.388 OA
HETATM   15  H   UNK N   1      22.925  13.781   4.316  0.00  0.00     0.210 HD
ENDBRANCH   9  14
BRANCH  10  16
HETATM   16  N   UNK N   1      21.118  11.793   6.575  0.00  0.00    -0.421 N 
HETATM   17  H   UNK N   1      20.238  12.308   6.601  0.00  0.00     0.150 HD
HETATM   18  H   UNK N   1      21.065  10.789   6.408  0.00  0.00     0.150 HD
ENDBRANCH  10  16
BRANCH  11  19
HETATM   19  O   UNK N   1      23.061  10.881   8.521  0.00  0.00    -0.391 OA
HETATM   20  H   UNK N   1      22.449  10.242   8.919  0.00  0.00     0.210 HD
ENDBRANCH  11  19
BRANCH  12  21
HETATM   21  C   UNK N   1      24.749  12.868   9.802  0.00  0.00     0.198 C 
BRANCH  21  22
HETATM   22  O   UNK N   1      23.713  12.826  10.736  0.00  0.00    -0.398 OA
HETATM   23  H   UNK N   1      22.832  12.908  11.133  0.00  0.00     0.209 HD
ENDBRANCH  21  22
ENDBRANCH  12  21
ENDBRANCH   7   8
ENDBRANCH   3   7
BRANCH   2  24
HETATM   24  O   UNK N   1      26.430  15.612   7.319  0.00  0.00    -0.390 OA
HETATM   25  H   UNK N   1      27.134  15.809   7.957  0.00  0.00     0.210 HD
ENDBRANCH   2  24
BRANCH   4  26
HETATM   26  N   UNK N   1      23.413  16.689   3.679  0.00  0.00    -0.352 N 
HETATM   27  C   UNK N   1      22.330  17.485   3.477  0.00  0.00     0.246 C 
HETATM   28  O   UNK N   1      21.363  17.027   2.890  0.00  0.00    -0.271 OA
HETATM   29  H   UNK N   1      23.425  15.796   3.265  0.00  0.00     0.163 HD
BRANCH  27  30
HETATM   30  C   UNK N   1      22.269  18.921   3.935  0.00  0.00     0.211 C 
BRANCH  30  31
HETATM   31  C   UNK N   1      20.845  19.441   4.005  0.00  0.00     0.060 C 
BRANCH  31  32
HETATM   32  C   UNK N   1      20.652  20.481   2.918  0.00  0.00     0.114 C 
BRANCH  32  33
HETATM   33  N   UNK N   1      20.297  19.829   1.670  0.00  0.00    -0.430 N 
HETATM   34  H   UNK N   1      20.065  18.883   1.363  0.00  0.00     0.149 HD
HETATM   35  H   UNK N   1      20.274  20.491   0.895  0.00  0.00     0.149 HD
ENDBRANCH  32  33
ENDBRANCH  31  32
ENDBRANCH  30  31
BRANCH  30  36
HETATM   36  O   UNK N   1      23.080  19.758   3.165  0.00  0.00    -0.386 OA
HETATM   37  H   UNK N   1      23.386  19.897   2.255  0.00  0.00     0.210 HD
ENDBRANCH  30  36
ENDBRANCH  27  30
ENDBRANCH   4  26
BRANCH   1  38
HETATM   38  O   UNK N   1      27.863  17.974   6.717  0.00  0.00    -0.349 OA
BRANCH  38  39
HETATM   39  C   UNK N   1      29.127  17.470   7.050  0.00  0.00     0.282 C 
HETATM   40  C   UNK N   1      29.655  18.112   8.334  0.00  0.00     0.129 C 
HETATM   41  C   UNK N   1      31.022  17.496   8.648  0.00  0.00     0.032 C 
HETATM   42  C   UNK N   1      31.931  17.505   7.413  0.00  0.00     0.036 C 
HETATM   43  C   UNK N   1      31.147  16.954   6.221  0.00  0.00     0.142 C 
HETATM   44  O   UNK N   1      30.022  17.765   6.006  0.00  0.00    -0.352 OA
BRANCH  40  45
HETATM   45  N   UNK N   1      28.744  17.862   9.437  0.00  0.00    -0.422 N 
HETATM   46  H   UNK N   1      28.934  17.689  10.423  0.00  0.00     0.150 HD
HETATM   47  H   UNK N   1      27.756  17.860   9.183  0.00  0.00     0.150 HD
ENDBRANCH  40  45
BRANCH  43  48
HETATM   48  C   UNK N   1      32.013  16.936   4.975  0.00  0.00     0.143 C 
BRANCH  48  49
HETATM   49  N   UNK N   1      31.520  17.909   4.013  0.00  0.00    -0.428 N 
HETATM   50  H   UNK N   1      30.667  17.732   3.482  0.00  0.00     0.150 HD
HETATM   51  H   UNK N   1      32.033  18.777   3.866  0.00  0.00     0.150 HD
ENDBRANCH  48  49
ENDBRANCH  43  48
ENDBRANCH  38  39
ENDBRANCH   1  38
BRANCH   6  52
HETATM   52  N   UNK N   1      27.948  18.287   3.598  0.00  0.00    -0.423 N 
HETATM   53  H   UNK N   1      28.153  18.819   2.752  0.00  0.00     0.150 HD
HETATM   54  H   UNK N   1      28.779  17.802   3.939  0.00  0.00     0.150 HD
ENDBRANCH   6  52
TORSDOF 20
ENDMDL
