MODEL 1
REMARK VINA RESULT:      -5.6      0.000      0.000
REMARK  8 active torsions:
REMARK  status: ('A' for Active; 'I' for Inactive)
REMARK    1  A    between atoms: N_2  and  C_9 
REMARK    2  A    between atoms: N_2  and  C_11 
REMARK    3  A    between atoms: N_2  and  C_12 
REMARK    4  A    between atoms: N_3  and  C_8 
REMARK    5  A    between atoms: N_3  and  C_13 
REMARK    6  A    between atoms: C_6  and  C_7 
REMARK    7  A    between atoms: C_6  and  C_8 
REMARK    8  A    between atoms: C_7  and  C_9 
ROOT
HETATM    1 Cl   UNK N   1      26.711  30.777  -3.139  0.00  0.00    -0.084 Cl
HETATM    2  N   UNK N   1      28.085  28.315  -7.406  0.00  0.00    -0.365 N 
ATOM      3  HN  UNK N   1      28.755  29.068  -7.560  1.00  0.00     0.165 HD
HETATM    4  C   UNK N   1      26.264  26.268  -6.993  0.00  0.00     0.042 A 
HETATM    5  C   UNK N   1      26.342  27.326  -6.079  0.00  0.00     0.017 A 
HETATM    6  C   UNK N   1      27.113  26.247  -8.102  0.00  0.00     0.047 A 
HETATM    7  C   UNK N   1      27.281  28.356  -6.310  0.00  0.00     0.046 A 
HETATM    8  C   UNK N   1      25.535  27.365  -4.935  0.00  0.00     0.018 A 
HETATM    9  C   UNK N   1      28.016  27.291  -8.300  0.00  0.00     0.090 A 
HETATM   10  C   UNK N   1      27.392  29.411  -5.401  0.00  0.00     0.054 A 
HETATM   11  C   UNK N   1      25.652  28.425  -4.032  0.00  0.00     0.025 A 
HETATM   12  C   UNK N   1      26.578  29.446  -4.266  0.00  0.00     0.036 A 
ENDROOT
BRANCH   4  13
HETATM   13  N   UNK N   1      25.416  25.171  -6.746  0.00  0.00    -0.385 N 
HETATM   14  H   UNK N   1      24.446  25.225  -6.911  0.00  0.00     0.160 HD
BRANCH  13  15
HETATM   15  C   UNK N   1      26.025  23.974  -6.246  0.00  0.00     0.077 C 
HETATM   16  C   UNK N   1      25.659  22.718  -7.020  0.00  0.00     0.032 C 
BRANCH  15  17
HETATM   17  C   UNK N   1      26.137  23.950  -4.723  0.00  0.00     0.026 C 
BRANCH  17  18
HETATM   18  C   UNK N   1      27.541  24.145  -4.185  0.00  0.00     0.032 C 
BRANCH  18  19
HETATM   19  C   UNK N   1      28.633  23.945  -5.244  0.00  0.00     0.272 C 
BRANCH  19  20
HETATM   20  N   UNK N   1      29.939  23.653  -4.637  0.00  0.00     0.087 N 
BRANCH  20  21
HETATM   21  C   UNK N   1      30.329  22.273  -4.959  0.00  0.00     0.268 C 
HETATM   22  C   UNK N   1      29.509  21.739  -6.117  0.00  0.00     0.037 C 
ENDBRANCH  20  21
BRANCH  20  23
HETATM   23  C   UNK N   1      29.805  23.916  -3.196  0.00  0.00     0.268 C 
HETATM   24  C   UNK N   1      30.382  22.847  -2.274  0.00  0.00     0.037 C 
ENDBRANCH  20  23
ENDBRANCH  19  20
ENDBRANCH  18  19
ENDBRANCH  17  18
ENDBRANCH  15  17
ENDBRANCH  13  15
ENDBRANCH   4  13
TORSDOF 8
ENDMDL
MODEL 2
REMARK VINA RESULT:      -5.3     18.527     23.218
REMARK  8 active torsions:
REMARK  status: ('A' for Active; 'I' for Inactive)
REMARK    1  A    between atoms: N_2  and  C_9 
REMARK    2  A    between atoms: N_2  and  C_11 
REMARK    3  A    between atoms: N_2  and  C_12 
REMARK    4  A    between atoms: N_3  and  C_8 
REMARK    5  A    between atoms: N_3  and  C_13 
REMARK    6  A    between atoms: C_6  and  C_7 
REMARK    7  A    between atoms: C_6  and  C_8 
REMARK    8  A    between atoms: C_7  and  C_9 
ROOT
HETATM    1 Cl   UNK N   1      35.210  13.802  18.652  0.00  0.00    -0.084 Cl
HETATM    2  N   UNK N   1      34.355  11.332  14.257  0.00  0.00    -0.365 N 
ATOM      3  HN  UNK N   1      33.682  10.763  14.770  1.00  0.00     0.165 HD
HETATM    4  C   UNK N   1      36.181  12.875  12.857  0.00  0.00     0.042 A 
HETATM    5  C   UNK N   1      35.980  13.102  14.225  0.00  0.00     0.017 A 
HETATM    6  C   UNK N   1      35.452  11.877  12.207  0.00  0.00     0.047 A 
HETATM    7  C   UNK N   1      35.040  12.304  14.915  0.00  0.00     0.046 A 
HETATM    8  C   UNK N   1      36.664  14.117  14.905  0.00  0.00     0.018 A 
HETATM    9  C   UNK N   1      34.545  11.103  12.929  0.00  0.00     0.090 A 
HETATM   10  C   UNK N   1      34.805  12.528  16.274  0.00  0.00     0.054 A 
HETATM   11  C   UNK N   1      36.424  14.332  16.265  0.00  0.00     0.025 A 
HETATM   12  C   UNK N   1      35.498  13.538  16.948  0.00  0.00     0.036 A 
ENDROOT
BRANCH   4  13
HETATM   13  N   UNK N   1      37.031  13.713  12.111  0.00  0.00    -0.385 N 
HETATM   14  H   UNK N   1      37.956  13.894  12.398  0.00  0.00     0.160 HD
BRANCH  13  15
HETATM   15  C   UNK N   1      36.492  14.291  10.915  0.00  0.00     0.077 C 
HETATM   16  C   UNK N   1      37.505  14.463   9.795  0.00  0.00     0.032 C 
BRANCH  15  17
HETATM   17  C   UNK N   1      35.439  15.362  11.189  0.00  0.00     0.026 C 
BRANCH  17  18
HETATM   18  C   UNK N   1      35.436  16.518  10.208  0.00  0.00     0.032 C 
BRANCH  18  19
HETATM   19  C   UNK N   1      34.522  16.288   8.997  0.00  0.00     0.272 C 
BRANCH  19  20
HETATM   20  N   UNK N   1      33.561  17.385   8.818  0.00  0.00     0.087 N 
BRANCH  20  21
HETATM   21  C   UNK N   1      32.199  16.836   8.765  0.00  0.00     0.268 C 
HETATM   22  C   UNK N   1      31.172  17.951   8.721  0.00  0.00     0.037 C 
ENDBRANCH  20  21
BRANCH  20  23
HETATM   23  C   UNK N   1      33.963  18.105   7.600  0.00  0.00     0.268 C 
HETATM   24  C   UNK N   1      33.856  17.315   6.301  0.00  0.00     0.037 C 
ENDBRANCH  20  23
ENDBRANCH  19  20
ENDBRANCH  18  19
ENDBRANCH  17  18
ENDBRANCH  15  17
ENDBRANCH  13  15
ENDBRANCH   4  13
TORSDOF 8
ENDMDL
MODEL 3
REMARK VINA RESULT:      -5.2     13.230     16.562
REMARK  8 active torsions:
REMARK  status: ('A' for Active; 'I' for Inactive)
REMARK    1  A    between atoms: N_2  and  C_9 
REMARK    2  A    between atoms: N_2  and  C_11 
REMARK    3  A    between atoms: N_2  and  C_12 
REMARK    4  A    between atoms: N_3  and  C_8 
REMARK    5  A    between atoms: N_3  and  C_13 
REMARK    6  A    between atoms: C_6  and  C_7 
REMARK    7  A    between atoms: C_6  and  C_8 
REMARK    8  A    between atoms: C_7  and  C_9 
ROOT
HETATM    1 Cl   UNK N   1      26.381  19.871   3.809  0.00  0.00    -0.084 Cl
HETATM    2  N   UNK N   1      27.825  18.725   8.579  0.00  0.00    -0.365 N 
ATOM      3  HN  UNK N   1      26.990  19.221   8.893  1.00  0.00     0.165 HD
HETATM    4  C   UNK N   1      30.093  17.379   7.733  0.00  0.00     0.042 A 
HETATM    5  C   UNK N   1      29.241  17.971   6.791  0.00  0.00     0.017 A 
HETATM    6  C   UNK N   1      29.788  17.465   9.093  0.00  0.00     0.047 A 
HETATM    7  C   UNK N   1      28.089  18.648   7.248  0.00  0.00     0.046 A 
HETATM    8  C   UNK N   1      29.493  17.875   5.417  0.00  0.00     0.018 A 
HETATM    9  C   UNK N   1      28.648  18.155   9.502  0.00  0.00     0.090 A 
HETATM   10  C   UNK N   1      27.213  19.225   6.326  0.00  0.00     0.054 A 
HETATM   11  C   UNK N   1      28.611  18.458   4.502  0.00  0.00     0.025 A 
HETATM   12  C   UNK N   1      27.475  19.133   4.957  0.00  0.00     0.036 A 
ENDROOT
BRANCH   4  13
HETATM   13  N   UNK N   1      31.195  16.608   7.315  0.00  0.00    -0.385 N 
HETATM   14  H   UNK N   1      31.151  15.625   7.281  0.00  0.00     0.160 HD
BRANCH  13  15
HETATM   15  C   UNK N   1      32.384  17.318   6.942  0.00  0.00     0.077 C 
HETATM   16  C   UNK N   1      33.210  16.627   5.869  0.00  0.00     0.032 C 
BRANCH  15  17
HETATM   17  C   UNK N   1      33.058  18.018   8.119  0.00  0.00     0.026 C 
BRANCH  17  18
HETATM   18  C   UNK N   1      34.453  17.520   8.443  0.00  0.00     0.032 C 
BRANCH  18  19
HETATM   19  C   UNK N   1      34.468  16.356   9.442  0.00  0.00     0.272 C 
BRANCH  19  20
HETATM   20  N   UNK N   1      35.495  15.358   9.108  0.00  0.00     0.087 N 
BRANCH  20  21
HETATM   21  C   UNK N   1      34.857  14.193   8.481  0.00  0.00     0.268 C 
HETATM   22  C   UNK N   1      33.427  14.040   8.960  0.00  0.00     0.037 C 
ENDBRANCH  20  21
BRANCH  20  23
HETATM   23  C   UNK N   1      36.207  15.049  10.358  0.00  0.00     0.268 C 
HETATM   24  C   UNK N   1      35.741  15.818  11.589  0.00  0.00     0.037 C 
ENDBRANCH  20  23
ENDBRANCH  19  20
ENDBRANCH  18  19
ENDBRANCH  17  18
ENDBRANCH  15  17
ENDBRANCH  13  15
ENDBRANCH   4  13
TORSDOF 8
ENDMDL
MODEL 4
REMARK VINA RESULT:      -5.1     15.964     18.697
REMARK  8 active torsions:
REMARK  status: ('A' for Active; 'I' for Inactive)
REMARK    1  A    between atoms: N_2  and  C_9 
REMARK    2  A    between atoms: N_2  and  C_11 
REMARK    3  A    between atoms: N_2  and  C_12 
REMARK    4  A    between atoms: N_3  and  C_8 
REMARK    5  A    between atoms: N_3  and  C_13 
REMARK    6  A    between atoms: C_6  and  C_7 
REMARK    7  A    between atoms: C_6  and  C_8 
REMARK    8  A    between atoms: C_7  and  C_9 
ROOT
HETATM    1 Cl   UNK N   1      23.097  11.552  13.082  0.00  0.00    -0.084 Cl
HETATM    2  N   UNK N   1      24.629  13.245   8.506  0.00  0.00    -0.365 N 
ATOM      3  HN  UNK N   1      25.581  13.039   8.808  1.00  0.00     0.165 HD
HETATM    4  C   UNK N   1      22.045  13.808   7.680  0.00  0.00     0.042 A 
HETATM    5  C   UNK N   1      22.270  13.291   8.961  0.00  0.00     0.017 A 
HETATM    6  C   UNK N   1      23.126  14.029   6.823  0.00  0.00     0.047 A 
HETATM    7  C   UNK N   1      23.596  13.009   9.358  0.00  0.00     0.046 A 
HETATM    8  C   UNK N   1      21.210  13.021   9.837  0.00  0.00     0.018 A 
HETATM    9  C   UNK N   1      24.420  13.750   7.259  0.00  0.00     0.090 A 
HETATM   10  C   UNK N   1      23.843  12.470  10.623  0.00  0.00     0.054 A 
HETATM   11  C   UNK N   1      21.467  12.484  11.101  0.00  0.00     0.025 A 
HETATM   12  C   UNK N   1      22.781  12.211  11.493  0.00  0.00     0.036 A 
ENDROOT
BRANCH   4  13
HETATM   13  N   UNK N   1      20.733  14.006   7.209  0.00  0.00    -0.385 N 
HETATM   14  H   UNK N   1      20.076  13.273   7.195  0.00  0.00     0.160 HD
BRANCH  13  15
HETATM   15  C   UNK N   1      20.396  15.322   6.750  0.00  0.00     0.077 C 
HETATM   16  C   UNK N   1      20.146  16.325   7.863  0.00  0.00     0.032 C 
BRANCH  15  17
HETATM   17  C   UNK N   1      19.527  15.315   5.494  0.00  0.00     0.026 C 
BRANCH  17  18
HETATM   18  C   UNK N   1      20.253  15.685   4.216  0.00  0.00     0.032 C 
BRANCH  18  19
HETATM   19  C   UNK N   1      19.958  17.112   3.738  0.00  0.00     0.272 C 
BRANCH  19  20
HETATM   20  N   UNK N   1      21.190  17.878   3.500  0.00  0.00     0.087 N 
BRANCH  20  21
HETATM   21  C   UNK N   1      22.340  17.125   4.019  0.00  0.00     0.268 C 
HETATM   22  C   UNK N   1      23.042  17.904   5.115  0.00  0.00     0.037 C 
ENDBRANCH  20  21
BRANCH  20  23
HETATM   23  C   UNK N   1      21.001  19.192   4.134  0.00  0.00     0.268 C 
HETATM   24  C   UNK N   1      20.632  20.331   3.190  0.00  0.00     0.037 C 
ENDBRANCH  20  23
ENDBRANCH  19  20
ENDBRANCH  18  19
ENDBRANCH  17  18
ENDBRANCH  15  17
ENDBRANCH  13  15
ENDBRANCH   4  13
TORSDOF 8
ENDMDL
MODEL 5
REMARK VINA RESULT:      -5.1      1.964      2.902
REMARK  8 active torsions:
REMARK  status: ('A' for Active; 'I' for Inactive)
REMARK    1  A    between atoms: N_2  and  C_9 
REMARK    2  A    between atoms: N_2  and  C_11 
REMARK    3  A    between atoms: N_2  and  C_12 
REMARK    4  A    between atoms: N_3  and  C_8 
REMARK    5  A    between atoms: N_3  and  C_13 
REMARK    6  A    between atoms: C_6  and  C_7 
REMARK    7  A    between atoms: C_6  and  C_8 
REMARK    8  A    between atoms: C_7  and  C_9 
ROOT
HETATM    1 Cl   UNK N   1      30.163  30.089  -8.495  0.00  0.00    -0.084 Cl
HETATM    2  N   UNK N   1      27.049  29.674  -4.460  0.00  0.00    -0.365 N 
ATOM      3  HN  UNK N   1      27.442  30.557  -4.134  1.00  0.00     0.165 HD
HETATM    4  C   UNK N   1      25.980  27.274  -5.339  0.00  0.00     0.042 A 
HETATM    5  C   UNK N   1      26.974  27.911  -6.092  0.00  0.00     0.017 A 
HETATM    6  C   UNK N   1      25.528  27.858  -4.154  0.00  0.00     0.047 A 
HETATM    7  C   UNK N   1      27.501  29.136  -5.624  0.00  0.00     0.046 A 
HETATM    8  C   UNK N   1      27.428  27.377  -7.305  0.00  0.00     0.018 A 
HETATM    9  C   UNK N   1      26.084  29.061  -3.721  0.00  0.00     0.090 A 
HETATM   10  C   UNK N   1      28.477  29.802  -6.370  0.00  0.00     0.054 A 
HETATM   11  C   UNK N   1      28.406  28.050  -8.043  0.00  0.00     0.025 A 
HETATM   12  C   UNK N   1      28.930  29.258  -7.575  0.00  0.00     0.036 A 
ENDROOT
BRANCH   4  13
HETATM   13  N   UNK N   1      25.357  26.107  -5.821  0.00  0.00    -0.385 N 
HETATM   14  H   UNK N   1      24.469  26.136  -6.246  0.00  0.00     0.160 HD
BRANCH  13  15
HETATM   15  C   UNK N   1      26.072  24.874  -5.666  0.00  0.00     0.077 C 
HETATM   16  C   UNK N   1      26.052  23.984  -6.898  0.00  0.00     0.032 C 
BRANCH  15  17
HETATM   17  C   UNK N   1      25.941  24.277  -4.267  0.00  0.00     0.026 C 
BRANCH  17  18
HETATM   18  C   UNK N   1      27.174  24.419  -3.397  0.00  0.00     0.032 C 
BRANCH  18  19
HETATM   19  C   UNK N   1      28.412  24.900  -4.166  0.00  0.00     0.272 C 
BRANCH  19  20
HETATM   20  N   UNK N   1      29.661  24.514  -3.494  0.00  0.00     0.087 N 
BRANCH  20  21
HETATM   21  C   UNK N   1      30.749  24.463  -4.480  0.00  0.00     0.268 C 
HETATM   22  C   UNK N   1      30.218  24.698  -5.880  0.00  0.00     0.037 C 
ENDBRANCH  20  21
BRANCH  20  23
HETATM   23  C   UNK N   1      29.401  23.230  -2.824  0.00  0.00     0.268 C 
HETATM   24  C   UNK N   1      30.420  22.128  -3.093  0.00  0.00     0.037 C 
ENDBRANCH  20  23
ENDBRANCH  19  20
ENDBRANCH  18  19
ENDBRANCH  17  18
ENDBRANCH  15  17
ENDBRANCH  13  15
ENDBRANCH   4  13
TORSDOF 8
ENDMDL
MODEL 6
REMARK VINA RESULT:      -5.1      3.772      5.769
REMARK  8 active torsions:
REMARK  status: ('A' for Active; 'I' for Inactive)
REMARK    1  A    between atoms: N_2  and  C_9 
REMARK    2  A    between atoms: N_2  and  C_11 
REMARK    3  A    between atoms: N_2  and  C_12 
REMARK    4  A    between atoms: N_3  and  C_8 
REMARK    5  A    between atoms: N_3  and  C_13 
REMARK    6  A    between atoms: C_6  and  C_7 
REMARK    7  A    between atoms: C_6  and  C_8 
REMARK    8  A    between atoms: C_7  and  C_9 
ROOT
HETATM    1 Cl   UNK N   1      25.624  20.895  -9.429  0.00  0.00    -0.084 Cl
HETATM    2  N   UNK N   1      25.429  24.121  -5.466  0.00  0.00    -0.365 N 
ATOM      3  HN  UNK N   1      24.425  24.181  -5.633  1.00  0.00     0.165 HD
HETATM    4  C   UNK N   1      28.156  23.963  -5.007  0.00  0.00     0.042 A 
HETATM    5  C   UNK N   1      27.584  23.242  -6.063  0.00  0.00     0.017 A 
HETATM    6  C   UNK N   1      27.345  24.749  -4.186  0.00  0.00     0.047 A 
HETATM    7  C   UNK N   1      26.191  23.337  -6.274  0.00  0.00     0.046 A 
HETATM    8  C   UNK N   1      28.358  22.413  -6.885  0.00  0.00     0.018 A 
HETATM    9  C   UNK N   1      25.976  24.826  -4.438  0.00  0.00     0.090 A 
HETATM   10  C   UNK N   1      25.595  22.609  -7.307  0.00  0.00     0.054 A 
HETATM   11  C   UNK N   1      27.753  21.691  -7.917  0.00  0.00     0.025 A 
HETATM   12  C   UNK N   1      26.374  21.790  -8.128  0.00  0.00     0.036 A 
ENDROOT
BRANCH   4  13
HETATM   13  N   UNK N   1      29.523  23.816  -4.699  0.00  0.00    -0.385 N 
HETATM   14  H   UNK N   1      30.151  23.404  -5.335  0.00  0.00     0.160 HD
BRANCH  13  15
HETATM   15  C   UNK N   1      29.958  24.294  -3.419  0.00  0.00     0.077 C 
HETATM   16  C   UNK N   1      30.831  25.535  -3.482  0.00  0.00     0.032 C 
BRANCH  15  17
HETATM   17  C   UNK N   1      30.266  23.169  -2.433  0.00  0.00     0.026 C 
BRANCH  17  18
HETATM   18  C   UNK N   1      30.697  21.863  -3.071  0.00  0.00     0.032 C 
BRANCH  18  19
HETATM   19  C   UNK N   1      32.218  21.730  -3.220  0.00  0.00     0.272 C 
BRANCH  19  20
HETATM   20  N   UNK N   1      32.595  21.162  -4.522  0.00  0.00     0.087 N 
BRANCH  20  21
HETATM   21  C   UNK N   1      32.599  22.225  -5.536  0.00  0.00     0.268 C 
HETATM   22  C   UNK N   1      33.439  23.401  -5.078  0.00  0.00     0.037 C 
ENDBRANCH  20  21
BRANCH  20  23
HETATM   23  C   UNK N   1      31.645  20.074  -4.800  0.00  0.00     0.268 C 
HETATM   24  C   UNK N   1      31.063  20.051  -6.209  0.00  0.00     0.037 C 
ENDBRANCH  20  23
ENDBRANCH  19  20
ENDBRANCH  18  19
ENDBRANCH  17  18
ENDBRANCH  15  17
ENDBRANCH  13  15
ENDBRANCH   4  13
TORSDOF 8
ENDMDL
MODEL 7
REMARK VINA RESULT:      -5.1     15.052     19.110
REMARK  8 active torsions:
REMARK  status: ('A' for Active; 'I' for Inactive)
REMARK    1  A    between atoms: N_2  and  C_9 
REMARK    2  A    between atoms: N_2  and  C_11 
REMARK    3  A    between atoms: N_2  and  C_12 
REMARK    4  A    between atoms: N_3  and  C_8 
REMARK    5  A    between atoms: N_3  and  C_13 
REMARK    6  A    between atoms: C_6  and  C_7 
REMARK    7  A    between atoms: C_6  and  C_8 
REMARK    8  A    between atoms: C_7  and  C_9 
ROOT
HETATM    1 Cl   UNK N   1      27.601  17.888   6.457  0.00  0.00    -0.084 Cl
HETATM    2  N   UNK N   1      32.489  16.996   5.250  0.00  0.00    -0.365 N 
ATOM      3  HN  UNK N   1      32.185  16.950   4.278  1.00  0.00     0.165 HD
HETATM    4  C   UNK N   1      33.323  17.119   7.889  0.00  0.00     0.042 A 
HETATM    5  C   UNK N   1      31.968  17.289   7.577  0.00  0.00     0.017 A 
HETATM    6  C   UNK N   1      34.246  16.897   6.865  0.00  0.00     0.047 A 
HETATM    7  C   UNK N   1      31.569  17.226   6.223  0.00  0.00     0.046 A 
HETATM    8  C   UNK N   1      31.016  17.550   8.571  0.00  0.00     0.018 A 
HETATM    9  C   UNK N   1      33.808  16.828   5.543  0.00  0.00     0.090 A 
HETATM   10  C   UNK N   1      30.226  17.415   5.886  0.00  0.00     0.054 A 
HETATM   11  C   UNK N   1      29.675  17.737   8.224  0.00  0.00     0.025 A 
HETATM   12  C   UNK N   1      29.282  17.667   6.885  0.00  0.00     0.036 A 
ENDROOT
BRANCH   4  13
HETATM   13  N   UNK N   1      33.777  17.277   9.212  0.00  0.00    -0.385 N 
HETATM   14  H   UNK N   1      33.692  18.136   9.686  0.00  0.00     0.160 HD
BRANCH  13  15
HETATM   15  C   UNK N   1      34.368  16.132   9.841  0.00  0.00     0.077 C 
HETATM   16  C   UNK N   1      33.427  14.948   9.991  0.00  0.00     0.032 C 
BRANCH  15  17
HETATM   17  C   UNK N   1      35.349  16.498  10.952  0.00  0.00     0.026 C 
BRANCH  17  18
HETATM   18  C   UNK N   1      36.223  15.356  11.431  0.00  0.00     0.032 C 
BRANCH  18  19
HETATM   19  C   UNK N   1      36.009  15.003  12.909  0.00  0.00     0.272 C 
BRANCH  19  20
HETATM   20  N   UNK N   1      35.543  13.620  13.082  0.00  0.00     0.087 N 
BRANCH  20  21
HETATM   21  C   UNK N   1      36.121  13.061  14.311  0.00  0.00     0.268 C 
HETATM   22  C   UNK N   1      35.082  13.000  15.414  0.00  0.00     0.037 C 
ENDBRANCH  20  21
BRANCH  20  23
HETATM   23  C   UNK N   1      35.917  12.891  11.860  0.00  0.00     0.268 C 
HETATM   24  C   UNK N   1      34.981  11.758  11.457  0.00  0.00     0.037 C 
ENDBRANCH  20  23
ENDBRANCH  19  20
ENDBRANCH  18  19
ENDBRANCH  17  18
ENDBRANCH  15  17
ENDBRANCH  13  15
ENDBRANCH   4  13
TORSDOF 8
ENDMDL
MODEL 8
REMARK VINA RESULT:      -5.1     23.364     27.579
REMARK  8 active torsions:
REMARK  status: ('A' for Active; 'I' for Inactive)
REMARK    1  A    between atoms: N_2  and  C_9 
REMARK    2  A    between atoms: N_2  and  C_11 
REMARK    3  A    between atoms: N_2  and  C_12 
REMARK    4  A    between atoms: N_3  and  C_8 
REMARK    5  A    between atoms: N_3  and  C_13 
REMARK    6  A    between atoms: C_6  and  C_7 
REMARK    7  A    between atoms: C_6  and  C_8 
REMARK    8  A    between atoms: C_7  and  C_9 
ROOT
HETATM    1 Cl   UNK N   1      35.997  15.828  11.252  0.00  0.00    -0.084 Cl
HETATM    2  N   UNK N   1      34.130  11.346  12.857  0.00  0.00    -0.365 N 
ATOM      3  HN  UNK N   1      33.674  11.272  11.947  1.00  0.00     0.165 HD
HETATM    4  C   UNK N   1      35.364  11.543  15.329  0.00  0.00     0.042 A 
HETATM    5  C   UNK N   1      35.516  12.571  14.390  0.00  0.00     0.017 A 
HETATM    6  C   UNK N   1      34.598  10.420  15.008  0.00  0.00     0.047 A 
HETATM    7  C   UNK N   1      34.879  12.445  13.135  0.00  0.00     0.046 A 
HETATM    8  C   UNK N   1      36.306  13.696  14.659  0.00  0.00     0.018 A 
HETATM    9  C   UNK N   1      33.975  10.342  13.763  0.00  0.00     0.090 A 
HETATM   10  C   UNK N   1      35.035  13.447  12.174  0.00  0.00     0.054 A 
HETATM   11  C   UNK N   1      36.454  14.694  13.692  0.00  0.00     0.025 A 
HETATM   12  C   UNK N   1      35.819  14.570  12.453  0.00  0.00     0.036 A 
ENDROOT
BRANCH   4  13
HETATM   13  N   UNK N   1      36.064  11.582  16.550  0.00  0.00    -0.385 N 
HETATM   14  H   UNK N   1      37.047  11.550  16.580  0.00  0.00     0.160 HD
BRANCH  13  15
HETATM   15  C   UNK N   1      35.281  11.669  17.749  0.00  0.00     0.077 C 
HETATM   16  C   UNK N   1      35.104  13.083  18.275  0.00  0.00     0.032 C 
BRANCH  15  17
HETATM   17  C   UNK N   1      35.517  10.502  18.704  0.00  0.00     0.026 C 
BRANCH  17  18
HETATM   18  C   UNK N   1      34.425   9.450  18.707  0.00  0.00     0.032 C 
BRANCH  18  19
HETATM   19  C   UNK N   1      34.644   8.346  19.749  0.00  0.00     0.272 C 
BRANCH  19  20
HETATM   20  N   UNK N   1      33.389   7.668  20.103  0.00  0.00     0.087 N 
BRANCH  20  21
HETATM   21  C   UNK N   1      33.199   6.504  19.226  0.00  0.00     0.268 C 
HETATM   22  C   UNK N   1      34.510   5.770  19.017  0.00  0.00     0.037 C 
ENDBRANCH  20  21
BRANCH  20  23
HETATM   23  C   UNK N   1      32.320   8.674  20.000  0.00  0.00     0.268 C 
HETATM   24  C   UNK N   1      30.897   8.130  20.047  0.00  0.00     0.037 C 
ENDBRANCH  20  23
ENDBRANCH  19  20
ENDBRANCH  18  19
ENDBRANCH  17  18
ENDBRANCH  15  17
ENDBRANCH  13  15
ENDBRANCH   4  13
TORSDOF 8
ENDMDL
MODEL 9
REMARK VINA RESULT:      -4.9     15.713     18.735
REMARK  8 active torsions:
REMARK  status: ('A' for Active; 'I' for Inactive)
REMARK    1  A    between atoms: N_2  and  C_9 
REMARK    2  A    between atoms: N_2  and  C_11 
REMARK    3  A    between atoms: N_2  and  C_12 
REMARK    4  A    between atoms: N_3  and  C_8 
REMARK    5  A    between atoms: N_3  and  C_13 
REMARK    6  A    between atoms: C_6  and  C_7 
REMARK    7  A    between atoms: C_6  and  C_8 
REMARK    8  A    between atoms: C_7  and  C_9 
ROOT
HETATM    1 Cl   UNK N   1      23.126  11.772  13.212  0.00  0.00    -0.084 Cl
HETATM    2  N   UNK N   1      21.256  13.196   8.670  0.00  0.00    -0.365 N 
ATOM      3  HN  UNK N   1      20.335  13.189   9.107  1.00  0.00     0.165 HD
HETATM    4  C   UNK N   1      23.755  13.215   7.475  0.00  0.00     0.042 A 
HETATM    5  C   UNK N   1      23.630  12.858   8.824  0.00  0.00     0.017 A 
HETATM    6  C   UNK N   1      22.619  13.568   6.744  0.00  0.00     0.047 A 
HETATM    7  C   UNK N   1      22.345  12.860   9.411  0.00  0.00     0.046 A 
HETATM    8  C   UNK N   1      24.749  12.534   9.601  0.00  0.00     0.018 A 
HETATM    9  C   UNK N   1      21.368  13.543   7.358  0.00  0.00     0.090 A 
HETATM   10  C   UNK N   1      22.198  12.530  10.760  0.00  0.00     0.054 A 
HETATM   11  C   UNK N   1      24.592  12.203  10.950  0.00  0.00     0.025 A 
HETATM   12  C   UNK N   1      23.318  12.200  11.527  0.00  0.00     0.036 A 
ENDROOT
BRANCH   4  13
HETATM   13  N   UNK N   1      25.027  13.326   6.880  0.00  0.00    -0.385 N 
HETATM   14  H   UNK N   1      25.705  12.619   6.982  0.00  0.00     0.160 HD
BRANCH  13  15
HETATM   15  C   UNK N   1      25.291  14.512   6.120  0.00  0.00     0.077 C 
HETATM   16  C   UNK N   1      25.447  14.273   4.627  0.00  0.00     0.032 C 
BRANCH  15  17
HETATM   17  C   UNK N   1      26.190  15.505   6.852  0.00  0.00     0.026 C 
BRANCH  17  18
HETATM   18  C   UNK N   1      26.942  16.466   5.952  0.00  0.00     0.032 C 
BRANCH  18  19
HETATM   19  C   UNK N   1      27.540  17.663   6.703  0.00  0.00     0.272 C 
BRANCH  19  20
HETATM   20  N   UNK N   1      28.485  17.240   7.747  0.00  0.00     0.087 N 
BRANCH  20  21
HETATM   21  C   UNK N   1      28.178  17.947   8.998  0.00  0.00     0.268 C 
HETATM   22  C   UNK N   1      29.445  18.223   9.784  0.00  0.00     0.037 C 
ENDBRANCH  20  21
BRANCH  20  23
HETATM   23  C   UNK N   1      29.836  17.502   7.228  0.00  0.00     0.268 C 
HETATM   24  C   UNK N   1      30.579  16.288   6.682  0.00  0.00     0.037 C 
ENDBRANCH  20  23
ENDBRANCH  19  20
ENDBRANCH  18  19
ENDBRANCH  17  18
ENDBRANCH  15  17
ENDBRANCH  13  15
ENDBRANCH   4  13
TORSDOF 8
ENDMDL
