MODEL 1
REMARK VINA RESULT:      -5.3      0.000      0.000
REMARK  5 active torsions:
REMARK  status: ('A' for Active; 'I' for Inactive)
REMARK    1  A    between atoms: C_1  and  C_2 
REMARK    2  A    between atoms: C_1  and  C_10 
REMARK    3  A    between atoms: C_2  and  C_3 
REMARK    4  A    between atoms: C_3  and  C_4 
REMARK    5  A    between atoms: C_10  and  O_12 
ROOT
HETATM    1  C   UNK N   1      27.235  24.344  -3.390  0.00  0.00     0.039 C 
ENDROOT
BRANCH   1   2
HETATM    2  C   UNK N   1      28.446  24.002  -4.244  0.00  0.00     0.015 C 
BRANCH   2   3
HETATM    3  C   UNK N   1      29.325  22.948  -3.601  0.00  0.00     0.110 C 
BRANCH   3   4
HETATM    4  C   UNK N   1      30.232  23.573  -2.582  0.00  0.00     0.139 C 
HETATM    5  O   UNK N   1      30.773  24.636  -2.830  0.00  0.00    -0.650 OA
BRANCH   4   6
HETATM    6  O   UNK N   1      30.456  22.974  -1.393  0.00  0.00    -0.776 OA
HETATM    7  H   UNK N   1      29.753  22.864  -0.784  0.00  0.00     0.167 HD
ENDBRANCH   4   6
ENDBRANCH   3   4
ENDBRANCH   2   3
ENDBRANCH   1   2
BRANCH   1   8
HETATM    8  C   UNK N   1      26.456  25.497  -3.963  0.00  0.00    -0.058 A 
HETATM    9  C   UNK N   1      26.387  26.738  -3.303  0.00  0.00     0.007 A 
HETATM   10  C   UNK N   1      25.658  27.794  -3.854  0.00  0.00     0.001 A 
HETATM   11  C   UNK N   1      24.991  27.619  -5.067  0.00  0.00     0.000 A 
HETATM   12  C   UNK N   1      25.054  26.390  -5.730  0.00  0.00     0.001 A 
HETATM   13  C   UNK N   1      25.784  25.331  -5.179  0.00  0.00     0.007 A 
ENDBRANCH   1   8
TORSDOF 5
ENDMDL
MODEL 2
REMARK VINA RESULT:      -5.1     13.816     14.663
REMARK  5 active torsions:
REMARK  status: ('A' for Active; 'I' for Inactive)
REMARK    1  A    between atoms: C_1  and  C_2 
REMARK    2  A    between atoms: C_1  and  C_10 
REMARK    3  A    between atoms: C_2  and  C_3 
REMARK    4  A    between atoms: C_3  and  C_4 
REMARK    5  A    between atoms: C_10  and  O_12 
ROOT
HETATM    1  C   UNK N   1      31.870  16.536   7.260  0.00  0.00     0.039 C 
ENDROOT
BRANCH   1   2
HETATM    2  C   UNK N   1      32.876  17.513   6.671  0.00  0.00     0.015 C 
BRANCH   2   3
HETATM    3  C   UNK N   1      34.286  17.251   7.163  0.00  0.00     0.110 C 
BRANCH   3   4
HETATM    4  C   UNK N   1      34.548  18.013   8.430  0.00  0.00     0.139 C 
HETATM    5  O   UNK N   1      35.051  19.120   8.374  0.00  0.00    -0.650 OA
BRANCH   4   6
HETATM    6  O   UNK N   1      34.232  17.486   9.633  0.00  0.00    -0.776 OA
HETATM    7  H   UNK N   1      34.449  17.949  10.418  0.00  0.00     0.167 HD
ENDBRANCH   4   6
ENDBRANCH   3   4
ENDBRANCH   2   3
ENDBRANCH   1   2
BRANCH   1   8
HETATM    8  C   UNK N   1      30.648  17.241   7.782  0.00  0.00    -0.058 A 
HETATM    9  C   UNK N   1      30.666  17.933   9.007  0.00  0.00     0.007 A 
HETATM   10  C   UNK N   1      29.519  18.580   9.473  0.00  0.00     0.001 A 
HETATM   11  C   UNK N   1      28.345  18.542   8.719  0.00  0.00     0.000 A 
HETATM   12  C   UNK N   1      28.318  17.857   7.501  0.00  0.00     0.001 A 
HETATM   13  C   UNK N   1      29.466  17.208   7.033  0.00  0.00     0.007 A 
ENDBRANCH   1   8
TORSDOF 5
ENDMDL
MODEL 3
REMARK VINA RESULT:      -5.1     17.624     19.042
REMARK  5 active torsions:
REMARK  status: ('A' for Active; 'I' for Inactive)
REMARK    1  A    between atoms: C_1  and  C_2 
REMARK    2  A    between atoms: C_1  and  C_10 
REMARK    3  A    between atoms: C_2  and  C_3 
REMARK    4  A    between atoms: C_3  and  C_4 
REMARK    5  A    between atoms: C_10  and  O_12 
ROOT
HETATM    1  C   UNK N   1      19.987  14.606   9.373  0.00  0.00     0.039 C 
ENDROOT
BRANCH   1   2
HETATM    2  C   UNK N   1      20.607  15.891   8.844  0.00  0.00     0.015 C 
BRANCH   2   3
HETATM    3  C   UNK N   1      19.590  16.782   8.160  0.00  0.00     0.110 C 
BRANCH   3   4
HETATM    4  C   UNK N   1      19.277  17.973   9.018  0.00  0.00     0.139 C 
HETATM    5  O   UNK N   1      20.100  18.863   9.135  0.00  0.00    -0.650 OA
BRANCH   4   6
HETATM    6  O   UNK N   1      18.095  18.072   9.663  0.00  0.00    -0.776 OA
HETATM    7  H   UNK N   1      17.482  18.737   9.418  0.00  0.00     0.167 HD
ENDBRANCH   4   6
ENDBRANCH   3   4
ENDBRANCH   2   3
ENDBRANCH   1   2
BRANCH   1   8
HETATM    8  C   UNK N   1      21.025  13.677   9.941  0.00  0.00    -0.058 A 
HETATM    9  C   UNK N   1      20.699  12.720  10.919  0.00  0.00     0.007 A 
HETATM   10  C   UNK N   1      21.680  11.868  11.432  0.00  0.00     0.001 A 
HETATM   11  C   UNK N   1      22.994  11.966  10.972  0.00  0.00     0.000 A 
HETATM   12  C   UNK N   1      23.327  12.914  10.000  0.00  0.00     0.001 A 
HETATM   13  C   UNK N   1      22.345  13.768   9.486  0.00  0.00     0.007 A 
ENDBRANCH   1   8
TORSDOF 5
ENDMDL
MODEL 4
REMARK VINA RESULT:      -5.1     22.623     25.133
REMARK  5 active torsions:
REMARK  status: ('A' for Active; 'I' for Inactive)
REMARK    1  A    between atoms: C_1  and  C_2 
REMARK    2  A    between atoms: C_1  and  C_10 
REMARK    3  A    between atoms: C_2  and  C_3 
REMARK    4  A    between atoms: C_3  and  C_4 
REMARK    5  A    between atoms: C_10  and  O_12 
ROOT
HETATM    1  C   UNK N   1      34.978  10.430  15.578  0.00  0.00     0.039 C 
ENDROOT
BRANCH   1   2
HETATM    2  C   UNK N   1      33.719  10.674  14.759  0.00  0.00     0.015 C 
BRANCH   2   3
HETATM    3  C   UNK N   1      33.973  10.570  13.269  0.00  0.00     0.110 C 
BRANCH   3   4
HETATM    4  C   UNK N   1      34.836  11.708  12.805  0.00  0.00     0.139 C 
HETATM    5  O   UNK N   1      35.909  11.474  12.279  0.00  0.00    -0.650 OA
BRANCH   4   6
HETATM    6  O   UNK N   1      34.439  12.989  12.964  0.00  0.00    -0.776 OA
HETATM    7  H   UNK N   1      34.355  13.350  13.825  0.00  0.00     0.167 HD
ENDBRANCH   4   6
ENDBRANCH   3   4
ENDBRANCH   2   3
ENDBRANCH   1   2
BRANCH   1   8
HETATM    8  C   UNK N   1      35.074  11.371  16.748  0.00  0.00    -0.058 A 
HETATM    9  C   UNK N   1      34.984  12.765  16.579  0.00  0.00     0.007 A 
HETATM   10  C   UNK N   1      35.076  13.620  17.680  0.00  0.00     0.001 A 
HETATM   11  C   UNK N   1      35.258  13.089  18.958  0.00  0.00     0.000 A 
HETATM   12  C   UNK N   1      35.348  11.705  19.135  0.00  0.00     0.001 A 
HETATM   13  C   UNK N   1      35.256  10.848  18.033  0.00  0.00     0.007 A 
ENDBRANCH   1   8
TORSDOF 5
ENDMDL
MODEL 5
REMARK VINA RESULT:      -5.0      4.035      4.723
REMARK  5 active torsions:
REMARK  status: ('A' for Active; 'I' for Inactive)
REMARK    1  A    between atoms: C_1  and  C_2 
REMARK    2  A    between atoms: C_1  and  C_10 
REMARK    3  A    between atoms: C_2  and  C_3 
REMARK    4  A    between atoms: C_3  and  C_4 
REMARK    5  A    between atoms: C_10  and  O_12 
ROOT
HETATM    1  C   UNK N   1      26.036  23.935  -5.238  0.00  0.00     0.039 C 
ENDROOT
BRANCH   1   2
HETATM    2  C   UNK N   1      26.048  23.783  -6.752  0.00  0.00     0.015 C 
BRANCH   2   3
HETATM    3  C   UNK N   1      26.245  22.344  -7.184  0.00  0.00     0.110 C 
BRANCH   3   4
HETATM    4  C   UNK N   1      24.947  21.758  -7.657  0.00  0.00     0.139 C 
HETATM    5  O   UNK N   1      24.084  21.473  -6.846  0.00  0.00    -0.650 OA
BRANCH   4   6
HETATM    6  O   UNK N   1      24.721  21.541  -8.971  0.00  0.00    -0.776 OA
HETATM    7  H   UNK N   1      24.002  21.004  -9.241  0.00  0.00     0.167 HD
ENDBRANCH   4   6
ENDBRANCH   3   4
ENDBRANCH   2   3
ENDBRANCH   1   2
BRANCH   1   8
HETATM    8  C   UNK N   1      25.884  25.373  -4.822  0.00  0.00    -0.058 A 
HETATM    9  C   UNK N   1      26.437  25.853  -3.621  0.00  0.00     0.007 A 
HETATM   10  C   UNK N   1      26.284  27.192  -3.255  0.00  0.00     0.001 A 
HETATM   11  C   UNK N   1      25.577  28.062  -4.086  0.00  0.00     0.000 A 
HETATM   12  C   UNK N   1      25.024  27.594  -5.282  0.00  0.00     0.001 A 
HETATM   13  C   UNK N   1      25.177  26.252  -5.649  0.00  0.00     0.007 A 
ENDBRANCH   1   8
TORSDOF 5
ENDMDL
MODEL 6
REMARK VINA RESULT:      -5.0     22.139     25.091
REMARK  5 active torsions:
REMARK  status: ('A' for Active; 'I' for Inactive)
REMARK    1  A    between atoms: C_1  and  C_2 
REMARK    2  A    between atoms: C_1  and  C_10 
REMARK    3  A    between atoms: C_2  and  C_3 
REMARK    4  A    between atoms: C_3  and  C_4 
REMARK    5  A    between atoms: C_10  and  O_12 
ROOT
HETATM    1  C   UNK N   1      35.054  13.040  15.709  0.00  0.00     0.039 C 
ENDROOT
BRANCH   1   2
HETATM    2  C   UNK N   1      36.376  13.481  15.099  0.00  0.00     0.015 C 
BRANCH   2   3
HETATM    3  C   UNK N   1      36.463  13.161  13.620  0.00  0.00     0.110 C 
BRANCH   3   4
HETATM    4  C   UNK N   1      35.639  14.132  12.826  0.00  0.00     0.139 C 
HETATM    5  O   UNK N   1      36.055  15.261  12.636  0.00  0.00    -0.650 OA
BRANCH   4   6
HETATM    6  O   UNK N   1      34.441  13.771  12.317  0.00  0.00    -0.776 OA
HETATM    7  H   UNK N   1      34.257  12.868  12.147  0.00  0.00     0.167 HD
ENDBRANCH   4   6
ENDBRANCH   3   4
ENDBRANCH   2   3
ENDBRANCH   1   2
BRANCH   1   8
HETATM    8  C   UNK N   1      35.234  12.507  17.104  0.00  0.00    -0.058 A 
HETATM    9  C   UNK N   1      35.093  13.337  18.232  0.00  0.00     0.007 A 
HETATM   10  C   UNK N   1      35.264  12.821  19.518  0.00  0.00     0.001 A 
HETATM   11  C   UNK N   1      35.577  11.471  19.689  0.00  0.00     0.000 A 
HETATM   12  C   UNK N   1      35.719  10.639  18.574  0.00  0.00     0.001 A 
HETATM   13  C   UNK N   1      35.547  11.156  17.285  0.00  0.00     0.007 A 
ENDBRANCH   1   8
TORSDOF 5
ENDMDL
MODEL 7
REMARK VINA RESULT:      -5.0     23.625     25.720
REMARK  5 active torsions:
REMARK  status: ('A' for Active; 'I' for Inactive)
REMARK    1  A    between atoms: C_1  and  C_2 
REMARK    2  A    between atoms: C_1  and  C_10 
REMARK    3  A    between atoms: C_2  and  C_3 
REMARK    4  A    between atoms: C_3  and  C_4 
REMARK    5  A    between atoms: C_10  and  O_12 
ROOT
HETATM    1  C   UNK N   1      34.547  12.937  15.878  0.00  0.00     0.039 C 
ENDROOT
BRANCH   1   2
HETATM    2  C   UNK N   1      35.589  12.654  14.806  0.00  0.00     0.015 C 
BRANCH   2   3
HETATM    3  C   UNK N   1      36.980  13.085  15.227  0.00  0.00     0.110 C 
BRANCH   3   4
HETATM    4  C   UNK N   1      37.132  14.572  15.087  0.00  0.00     0.139 C 
HETATM    5  O   UNK N   1      37.592  15.219  16.010  0.00  0.00    -0.650 OA
BRANCH   4   6
HETATM    6  O   UNK N   1      36.766  15.202  13.950  0.00  0.00    -0.776 OA
HETATM    7  H   UNK N   1      36.915  16.122  13.856  0.00  0.00     0.167 HD
ENDBRANCH   4   6
ENDBRANCH   3   4
ENDBRANCH   2   3
ENDBRANCH   1   2
BRANCH   1   8
HETATM    8  C   UNK N   1      34.941  12.351  17.207  0.00  0.00    -0.058 A 
HETATM    9  C   UNK N   1      35.173  10.972  17.363  0.00  0.00     0.007 A 
HETATM   10  C   UNK N   1      35.538  10.450  18.606  0.00  0.00     0.001 A 
HETATM   11  C   UNK N   1      35.674  11.302  19.704  0.00  0.00     0.000 A 
HETATM   12  C   UNK N   1      35.446  12.673  19.558  0.00  0.00     0.001 A 
HETATM   13  C   UNK N   1      35.080  13.197  18.313  0.00  0.00     0.007 A 
ENDBRANCH   1   8
TORSDOF 5
ENDMDL
MODEL 8
REMARK VINA RESULT:      -4.9     12.522     14.217
REMARK  5 active torsions:
REMARK  status: ('A' for Active; 'I' for Inactive)
REMARK    1  A    between atoms: C_1  and  C_2 
REMARK    2  A    between atoms: C_1  and  C_10 
REMARK    3  A    between atoms: C_2  and  C_3 
REMARK    4  A    between atoms: C_3  and  C_4 
REMARK    5  A    between atoms: C_10  and  O_12 
ROOT
HETATM    1  C   UNK N   1      31.917  17.279   8.287  0.00  0.00     0.039 C 
ENDROOT
BRANCH   1   2
HETATM    2  C   UNK N   1      30.487  17.085   8.768  0.00  0.00     0.015 C 
BRANCH   2   3
HETATM    3  C   UNK N   1      29.891  18.360   9.330  0.00  0.00     0.110 C 
BRANCH   3   4
HETATM    4  C   UNK N   1      28.520  18.590   8.764  0.00  0.00     0.139 C 
HETATM    5  O   UNK N   1      28.396  19.186   7.709  0.00  0.00    -0.650 OA
BRANCH   4   6
HETATM    6  O   UNK N   1      27.420  18.143   9.408  0.00  0.00    -0.776 OA
HETATM    7  H   UNK N   1      26.642  17.944   8.924  0.00  0.00     0.167 HD
ENDBRANCH   4   6
ENDBRANCH   3   4
ENDBRANCH   2   3
ENDBRANCH   1   2
BRANCH   1   8
HETATM    8  C   UNK N   1      32.002  17.304   6.785  0.00  0.00    -0.058 A 
HETATM    9  C   UNK N   1      33.232  17.468   6.121  0.00  0.00     0.007 A 
HETATM   10  C   UNK N   1      33.287  17.488   4.725  0.00  0.00     0.001 A 
HETATM   11  C   UNK N   1      32.115  17.346   3.982  0.00  0.00     0.000 A 
HETATM   12  C   UNK N   1      30.888  17.183   4.633  0.00  0.00     0.001 A 
HETATM   13  C   UNK N   1      30.832  17.162   6.031  0.00  0.00     0.007 A 
ENDBRANCH   1   8
TORSDOF 5
ENDMDL
MODEL 9
REMARK VINA RESULT:      -4.8     19.950     23.106
REMARK  5 active torsions:
REMARK  status: ('A' for Active; 'I' for Inactive)
REMARK    1  A    between atoms: C_1  and  C_2 
REMARK    2  A    between atoms: C_1  and  C_10 
REMARK    3  A    between atoms: C_2  and  C_3 
REMARK    4  A    between atoms: C_3  and  C_4 
REMARK    5  A    between atoms: C_10  and  O_12 
ROOT
HETATM    1  C   UNK N   1      36.343  14.423  13.866  0.00  0.00     0.039 C 
ENDROOT
BRANCH   1   2
HETATM    2  C   UNK N   1      36.052  14.030  12.426  0.00  0.00     0.015 C 
BRANCH   2   3
HETATM    3  C   UNK N   1      35.072  14.974  11.758  0.00  0.00     0.110 C 
BRANCH   3   4
HETATM    4  C   UNK N   1      35.803  16.109  11.102  0.00  0.00     0.139 C 
HETATM    5  O   UNK N   1      35.193  17.113  10.780  0.00  0.00    -0.650 OA
BRANCH   4   6
HETATM    6  O   UNK N   1      37.130  16.033  10.864  0.00  0.00    -0.776 OA
HETATM    7  H   UNK N   1      37.525  15.205  10.674  0.00  0.00     0.167 HD
ENDBRANCH   4   6
ENDBRANCH   3   4
ENDBRANCH   2   3
ENDBRANCH   1   2
BRANCH   1   8
HETATM    8  C   UNK N   1      36.290  13.237  14.790  0.00  0.00    -0.058 A 
HETATM    9  C   UNK N   1      35.496  13.244  15.952  0.00  0.00     0.007 A 
HETATM   10  C   UNK N   1      35.463  12.132  16.795  0.00  0.00     0.001 A 
HETATM   11  C   UNK N   1      36.222  11.002  16.485  0.00  0.00     0.000 A 
HETATM   12  C   UNK N   1      37.014  10.986  15.332  0.00  0.00     0.001 A 
HETATM   13  C   UNK N   1      37.047  12.101  14.487  0.00  0.00     0.007 A 
ENDBRANCH   1   8
TORSDOF 5
ENDMDL
