MODEL 1
REMARK VINA RESULT:      -7.0      0.000      0.000
REMARK  7 active torsions:
REMARK  status: ('A' for Active; 'I' for Inactive)
REMARK    1  A    between atoms: C_1  and  C_3 
REMARK    2  A    between atoms: C_2  and  N_4 
REMARK    3  A    between atoms: C_3  and  O_15 
REMARK       I    between atoms: N_4  and  C_5 
REMARK    4  A    between atoms: C_5  and  C_6 
REMARK    5  A    between atoms: C_7  and  O_17 
REMARK    6  A    between atoms: C_8  and  C_13 
REMARK    7  A    between atoms: C_9  and  O_19 
ROOT
HETATM    1  N   UNK N   1      22.015  14.146   8.698  0.00  0.00    -0.323 N 
HETATM    2  C   UNK N   1      21.472  13.913   7.475  0.00  0.00     0.245 C 
HETATM    3  O   UNK N   1      20.862  12.882   7.231  0.00  0.00    -0.268 OA
HETATM    4  H   UNK N   1      22.486  15.004   8.805  0.00  0.00     0.169 HD
ENDROOT
BRANCH   2   5
HETATM    5  C   UNK N   1      21.629  14.927   6.430  0.00  0.00     0.075 C 
HETATM    6  C   UNK N   1      22.328  16.034   6.701  0.00  0.00     0.017 C 
BRANCH   6   7
HETATM    7  C   UNK N   1      22.539  17.103   5.730  0.00  0.00    -0.033 A 
HETATM    8  C   UNK N   1      21.515  17.991   5.400  0.00  0.00     0.051 A 
HETATM    9  C   UNK N   1      21.727  19.019   4.469  0.00  0.00     0.102 A 
HETATM   10  C   UNK N   1      23.006  19.145   3.859  0.00  0.00     0.101 A 
HETATM   11  C   UNK N   1      24.019  18.242   4.202  0.00  0.00     0.040 A 
HETATM   12  C   UNK N   1      23.789  17.229   5.130  0.00  0.00     0.014 A 
BRANCH   9  13
HETATM   13  O   UNK N   1      20.721  19.873   4.161  0.00  0.00    -0.353 OA
HETATM   14  C   UNK N   1      19.916  19.728   3.052  0.00  0.00     0.210 C 
ENDBRANCH   9  13
BRANCH  10  15
HETATM   15  O   UNK N   1      23.310  20.107   2.948  0.00  0.00    -0.353 OA
HETATM   16  C   UNK N   1      24.571  20.588   2.686  0.00  0.00     0.210 C 
ENDBRANCH  10  15
ENDBRANCH   6   7
ENDBRANCH   2   5
BRANCH   1  17
HETATM   17  C   UNK N   1      21.987  13.302   9.838  0.00  0.00     0.051 A 
HETATM   18  C   UNK N   1      23.200  12.767  10.340  0.00  0.00     0.064 A 
HETATM   19  C   UNK N   1      23.162  11.932  11.464  0.00  0.00     0.020 A 
HETATM   20  C   UNK N   1      21.950  11.625  12.086  0.00  0.00     0.001 A 
HETATM   21  C   UNK N   1      20.758  12.153  11.592  0.00  0.00     0.002 A 
HETATM   22  C   UNK N   1      20.776  12.986  10.474  0.00  0.00     0.030 A 
BRANCH  18  23
HETATM   23  C   UNK N   1      24.524  13.058   9.719  0.00  0.00     0.178 C 
HETATM   24  O   UNK N   1      24.696  12.945   8.515  0.00  0.00    -0.646 OA
BRANCH  23  25
HETATM   25  O   UNK N   1      25.555  13.453  10.492  0.00  0.00    -0.773 OA
HETATM   26  H   UNK N   1      26.143  12.817  10.849  0.00  0.00     0.167 HD
ENDBRANCH  23  25
ENDBRANCH  18  23
ENDBRANCH   1  17
TORSDOF 7
ENDMDL
MODEL 2
REMARK VINA RESULT:      -6.7      7.802      9.428
REMARK  7 active torsions:
REMARK  status: ('A' for Active; 'I' for Inactive)
REMARK    1  A    between atoms: C_1  and  C_3 
REMARK    2  A    between atoms: C_2  and  N_4 
REMARK    3  A    between atoms: C_3  and  O_15 
REMARK       I    between atoms: N_4  and  C_5 
REMARK    4  A    between atoms: C_5  and  C_6 
REMARK    5  A    between atoms: C_7  and  O_17 
REMARK    6  A    between atoms: C_8  and  C_13 
REMARK    7  A    between atoms: C_9  and  O_19 
ROOT
HETATM    1  N   UNK N   1      32.166  16.539   8.012  0.00  0.00    -0.323 N 
HETATM    2  C   UNK N   1      31.781  15.825   6.923  0.00  0.00     0.245 C 
HETATM    3  O   UNK N   1      32.313  14.764   6.632  0.00  0.00    -0.268 OA
HETATM    4  H   UNK N   1      31.680  17.381   8.172  0.00  0.00     0.169 HD
ENDROOT
BRANCH   2   5
HETATM    5  C   UNK N   1      30.704  16.351   6.082  0.00  0.00     0.075 C 
HETATM    6  C   UNK N   1      29.863  17.255   6.595  0.00  0.00     0.017 C 
BRANCH   6   7
HETATM    7  C   UNK N   1      28.758  17.837   5.839  0.00  0.00    -0.033 A 
HETATM    8  C   UNK N   1      27.972  18.855   6.379  0.00  0.00     0.051 A 
HETATM    9  C   UNK N   1      26.914  19.412   5.644  0.00  0.00     0.102 A 
HETATM   10  C   UNK N   1      26.649  18.922   4.335  0.00  0.00     0.101 A 
HETATM   11  C   UNK N   1      27.448  17.899   3.813  0.00  0.00     0.040 A 
HETATM   12  C   UNK N   1      28.495  17.360   4.558  0.00  0.00     0.014 A 
BRANCH   9  13
HETATM   13  O   UNK N   1      26.160  20.401   6.184  0.00  0.00    -0.353 OA
HETATM   14  C   UNK N   1      26.659  21.645   6.505  0.00  0.00     0.210 C 
ENDBRANCH   9  13
BRANCH  10  15
HETATM   15  O   UNK N   1      25.650  19.397   3.546  0.00  0.00    -0.353 OA
HETATM   16  C   UNK N   1      25.738  20.493   2.720  0.00  0.00     0.210 C 
ENDBRANCH  10  15
ENDBRANCH   6   7
ENDBRANCH   2   5
BRANCH   1  17
HETATM   17  C   UNK N   1      33.183  16.220   8.949  0.00  0.00     0.051 A 
HETATM   18  C   UNK N   1      34.369  16.996   8.982  0.00  0.00     0.064 A 
HETATM   19  C   UNK N   1      35.370  16.670   9.907  0.00  0.00     0.020 A 
HETATM   20  C   UNK N   1      35.209  15.596  10.785  0.00  0.00     0.001 A 
HETATM   21  C   UNK N   1      34.043  14.835  10.751  0.00  0.00     0.002 A 
HETATM   22  C   UNK N   1      33.035  15.144   9.838  0.00  0.00     0.030 A 
BRANCH  18  23
HETATM   23  C   UNK N   1      34.597  18.153   8.070  0.00  0.00     0.178 C 
HETATM   24  O   UNK N   1      34.990  19.228   8.497  0.00  0.00    -0.646 OA
BRANCH  23  25
HETATM   25  O   UNK N   1      34.370  18.020   6.748  0.00  0.00    -0.773 OA
HETATM   26  H   UNK N   1      34.043  18.745   6.254  0.00  0.00     0.167 HD
ENDBRANCH  23  25
ENDBRANCH  18  23
ENDBRANCH   1  17
TORSDOF 7
ENDMDL
MODEL 3
REMARK VINA RESULT:      -6.7      5.714      6.787
REMARK  7 active torsions:
REMARK  status: ('A' for Active; 'I' for Inactive)
REMARK    1  A    between atoms: C_1  and  C_3 
REMARK    2  A    between atoms: C_2  and  N_4 
REMARK    3  A    between atoms: C_3  and  O_15 
REMARK       I    between atoms: N_4  and  C_5 
REMARK    4  A    between atoms: C_5  and  C_6 
REMARK    5  A    between atoms: C_7  and  O_17 
REMARK    6  A    between atoms: C_8  and  C_13 
REMARK    7  A    between atoms: C_9  and  O_19 
ROOT
HETATM    1  N   UNK N   1      28.296  18.054   5.563  0.00  0.00    -0.323 N 
HETATM    2  C   UNK N   1      27.414  17.261   4.901  0.00  0.00     0.245 C 
HETATM    3  O   UNK N   1      27.489  16.042   4.949  0.00  0.00    -0.268 OA
HETATM    4  H   UNK N   1      28.157  19.025   5.471  0.00  0.00     0.169 HD
ENDROOT
BRANCH   2   5
HETATM    5  C   UNK N   1      26.353  17.892   4.114  0.00  0.00     0.075 C 
HETATM    6  C   UNK N   1      25.326  18.465   4.749  0.00  0.00     0.017 C 
BRANCH   6   7
HETATM    7  C   UNK N   1      24.220  19.117   4.055  0.00  0.00    -0.033 A 
HETATM    8  C   UNK N   1      22.905  18.685   4.226  0.00  0.00     0.051 A 
HETATM    9  C   UNK N   1      21.847  19.319   3.559  0.00  0.00     0.102 A 
HETATM   10  C   UNK N   1      22.132  20.415   2.697  0.00  0.00     0.101 A 
HETATM   11  C   UNK N   1      23.459  20.832   2.537  0.00  0.00     0.040 A 
HETATM   12  C   UNK N   1      24.495  20.189   3.210  0.00  0.00     0.014 A 
BRANCH   9  13
HETATM   13  O   UNK N   1      20.575  18.886   3.738  0.00  0.00    -0.353 OA
HETATM   14  C   UNK N   1      20.001  17.887   2.982  0.00  0.00     0.210 C 
ENDBRANCH   9  13
BRANCH  10  15
HETATM   15  O   UNK N   1      21.178  21.095   2.009  0.00  0.00    -0.353 OA
HETATM   16  C   UNK N   1      20.763  20.811   0.729  0.00  0.00     0.210 C 
ENDBRANCH  10  15
ENDBRANCH   6   7
ENDBRANCH   2   5
BRANCH   1  17
HETATM   17  C   UNK N   1      29.392  17.655   6.370  0.00  0.00     0.051 A 
HETATM   18  C   UNK N   1      29.340  17.864   7.770  0.00  0.00     0.064 A 
HETATM   19  C   UNK N   1      30.430  17.471   8.559  0.00  0.00     0.020 A 
HETATM   20  C   UNK N   1      31.555  16.881   7.979  0.00  0.00     0.001 A 
HETATM   21  C   UNK N   1      31.604  16.675   6.602  0.00  0.00     0.002 A 
HETATM   22  C   UNK N   1      30.529  17.060   5.801  0.00  0.00     0.030 A 
BRANCH  18  23
HETATM   23  C   UNK N   1      28.167  18.490   8.446  0.00  0.00     0.178 C 
HETATM   24  O   UNK N   1      27.695  19.544   8.048  0.00  0.00    -0.646 OA
BRANCH  23  25
HETATM   25  O   UNK N   1      27.610  17.888   9.515  0.00  0.00    -0.773 OA
HETATM   26  H   UNK N   1      26.710  17.629   9.491  0.00  0.00     0.167 HD
ENDBRANCH  23  25
ENDBRANCH  18  23
ENDBRANCH   1  17
TORSDOF 7
ENDMDL
MODEL 4
REMARK VINA RESULT:      -6.7     11.712     13.358
REMARK  7 active torsions:
REMARK  status: ('A' for Active; 'I' for Inactive)
REMARK    1  A    between atoms: C_1  and  C_3 
REMARK    2  A    between atoms: C_2  and  N_4 
REMARK    3  A    between atoms: C_3  and  O_15 
REMARK       I    between atoms: N_4  and  C_5 
REMARK    4  A    between atoms: C_5  and  C_6 
REMARK    5  A    between atoms: C_7  and  O_17 
REMARK    6  A    between atoms: C_8  and  C_13 
REMARK    7  A    between atoms: C_9  and  O_19 
ROOT
HETATM    1  N   UNK N   1      34.704  12.717  12.629  0.00  0.00    -0.323 N 
HETATM    2  C   UNK N   1      35.216  12.248  11.461  0.00  0.00     0.245 C 
HETATM    3  O   UNK N   1      35.849  11.203  11.414  0.00  0.00    -0.268 OA
HETATM    4  H   UNK N   1      34.206  13.564  12.573  0.00  0.00     0.169 HD
ENDROOT
BRANCH   2   5
HETATM    5  C   UNK N   1      35.001  13.023  10.238  0.00  0.00     0.075 C 
HETATM    6  C   UNK N   1      34.968  14.357  10.312  0.00  0.00     0.017 C 
BRANCH   6   7
HETATM    7  C   UNK N   1      34.757  15.217   9.152  0.00  0.00    -0.033 A 
HETATM    8  C   UNK N   1      35.253  14.868   7.896  0.00  0.00     0.051 A 
HETATM    9  C   UNK N   1      35.042  15.697   6.784  0.00  0.00     0.102 A 
HETATM   10  C   UNK N   1      34.313  16.907   6.953  0.00  0.00     0.101 A 
HETATM   11  C   UNK N   1      33.825  17.239   8.222  0.00  0.00     0.040 A 
HETATM   12  C   UNK N   1      34.044  16.402   9.313  0.00  0.00     0.014 A 
BRANCH   9  13
HETATM   13  O   UNK N   1      35.532  15.343   5.571  0.00  0.00    -0.353 OA
HETATM   14  C   UNK N   1      34.961  14.371   4.777  0.00  0.00     0.210 C 
ENDBRANCH   9  13
BRANCH  10  15
HETATM   15  O   UNK N   1      34.055  17.774   5.939  0.00  0.00    -0.353 OA
HETATM   16  C   UNK N   1      33.044  17.646   5.016  0.00  0.00     0.210 C 
ENDBRANCH  10  15
ENDBRANCH   6   7
ENDBRANCH   2   5
BRANCH   1  17
HETATM   17  C   UNK N   1      34.801  12.134  13.919  0.00  0.00     0.051 A 
HETATM   18  C   UNK N   1      35.674  12.704  14.879  0.00  0.00     0.064 A 
HETATM   19  C   UNK N   1      35.766  12.119  16.148  0.00  0.00     0.020 A 
HETATM   20  C   UNK N   1      35.013  10.988  16.470  0.00  0.00     0.001 A 
HETATM   21  C   UNK N   1      34.155  10.429  15.525  0.00  0.00     0.002 A 
HETATM   22  C   UNK N   1      34.049  10.997  14.257  0.00  0.00     0.030 A 
BRANCH  18  23
HETATM   23  C   UNK N   1      36.504  13.910  14.593  0.00  0.00     0.178 C 
HETATM   24  O   UNK N   1      36.195  14.696  13.710  0.00  0.00    -0.646 OA
BRANCH  23  25
HETATM   25  O   UNK N   1      37.615  14.146  15.318  0.00  0.00    -0.773 OA
HETATM   26  H   UNK N   1      37.887  15.027  15.486  0.00  0.00     0.167 HD
ENDBRANCH  23  25
ENDBRANCH  18  23
ENDBRANCH   1  17
TORSDOF 7
ENDMDL
MODEL 5
REMARK VINA RESULT:      -6.7     12.036     14.442
REMARK  7 active torsions:
REMARK  status: ('A' for Active; 'I' for Inactive)
REMARK    1  A    between atoms: C_1  and  C_3 
REMARK    2  A    between atoms: C_2  and  N_4 
REMARK    3  A    between atoms: C_3  and  O_15 
REMARK       I    between atoms: N_4  and  C_5 
REMARK    4  A    between atoms: C_5  and  C_6 
REMARK    5  A    between atoms: C_7  and  O_17 
REMARK    6  A    between atoms: C_8  and  C_13 
REMARK    7  A    between atoms: C_9  and  O_19 
ROOT
HETATM    1  N   UNK N   1      35.209  13.189  15.575  0.00  0.00    -0.323 N 
HETATM    2  C   UNK N   1      36.207  13.302  14.660  0.00  0.00     0.245 C 
HETATM    3  O   UNK N   1      37.234  12.646  14.749  0.00  0.00    -0.268 OA
HETATM    4  H   UNK N   1      34.417  13.753  15.423  0.00  0.00     0.169 HD
ENDROOT
BRANCH   2   5
HETATM    5  C   UNK N   1      36.037  14.238  13.546  0.00  0.00     0.075 C 
HETATM    6  C   UNK N   1      35.328  13.855  12.480  0.00  0.00     0.017 C 
BRANCH   6   7
HETATM    7  C   UNK N   1      35.104  14.712  11.320  0.00  0.00    -0.033 A 
HETATM    8  C   UNK N   1      34.509  14.216  10.160  0.00  0.00     0.051 A 
HETATM    9  C   UNK N   1      34.293  15.048   9.051  0.00  0.00     0.102 A 
HETATM   10  C   UNK N   1      34.691  16.412   9.122  0.00  0.00     0.101 A 
HETATM   11  C   UNK N   1      35.288  16.889  10.295  0.00  0.00     0.040 A 
HETATM   12  C   UNK N   1      35.493  16.047  11.385  0.00  0.00     0.014 A 
BRANCH   9  13
HETATM   13  O   UNK N   1      33.713  14.549   7.932  0.00  0.00    -0.353 OA
HETATM   14  C   UNK N   1      32.350  14.516   7.734  0.00  0.00     0.210 C 
ENDBRANCH   9  13
BRANCH  10  15
HETATM   15  O   UNK N   1      34.523  17.295   8.103  0.00  0.00    -0.353 OA
HETATM   16  C   UNK N   1      33.461  18.156   7.961  0.00  0.00     0.210 C 
ENDBRANCH  10  15
ENDBRANCH   6   7
ENDBRANCH   2   5
BRANCH   1  17
HETATM   17  C   UNK N   1      35.171  12.357  16.724  0.00  0.00     0.051 A 
HETATM   18  C   UNK N   1      35.316  12.936  18.010  0.00  0.00     0.064 A 
HETATM   19  C   UNK N   1      35.282  12.107  19.138  0.00  0.00     0.020 A 
HETATM   20  C   UNK N   1      35.109  10.727  19.005  0.00  0.00     0.001 A 
HETATM   21  C   UNK N   1      34.965  10.160  17.741  0.00  0.00     0.002 A 
HETATM   22  C   UNK N   1      34.996  10.970  16.606  0.00  0.00     0.030 A 
BRANCH  18  23
HETATM   23  C   UNK N   1      35.505  14.402  18.214  0.00  0.00     0.178 C 
HETATM   24  O   UNK N   1      34.856  15.013  19.049  0.00  0.00    -0.646 OA
BRANCH  23  25
HETATM   25  O   UNK N   1      36.406  15.072  17.469  0.00  0.00    -0.773 OA
HETATM   26  H   UNK N   1      37.280  15.189  17.784  0.00  0.00     0.167 HD
ENDBRANCH  23  25
ENDBRANCH  18  23
ENDBRANCH   1  17
TORSDOF 7
ENDMDL
MODEL 6
REMARK VINA RESULT:      -6.7      5.398      7.032
REMARK  7 active torsions:
REMARK  status: ('A' for Active; 'I' for Inactive)
REMARK    1  A    between atoms: C_1  and  C_3 
REMARK    2  A    between atoms: C_2  and  N_4 
REMARK    3  A    between atoms: C_3  and  O_15 
REMARK       I    between atoms: N_4  and  C_5 
REMARK    4  A    between atoms: C_5  and  C_6 
REMARK    5  A    between atoms: C_7  and  O_17 
REMARK    6  A    between atoms: C_8  and  C_13 
REMARK    7  A    between atoms: C_9  and  O_19 
ROOT
HETATM    1  N   UNK N   1      27.493  18.327   5.910  0.00  0.00    -0.323 N 
HETATM    2  C   UNK N   1      27.160  19.542   5.400  0.00  0.00     0.245 C 
HETATM    3  O   UNK N   1      28.006  20.395   5.175  0.00  0.00    -0.268 OA
HETATM    4  H   UNK N   1      26.748  17.701   6.056  0.00  0.00     0.169 HD
ENDROOT
BRANCH   2   5
HETATM    5  C   UNK N   1      25.751  19.824   5.119  0.00  0.00     0.075 C 
HETATM    6  C   UNK N   1      25.050  18.958   4.382  0.00  0.00     0.017 C 
BRANCH   6   7
HETATM    7  C   UNK N   1      23.643  19.151   4.046  0.00  0.00    -0.033 A 
HETATM    8  C   UNK N   1      23.252  20.073   3.075  0.00  0.00     0.051 A 
HETATM    9  C   UNK N   1      21.898  20.250   2.754  0.00  0.00     0.102 A 
HETATM   10  C   UNK N   1      20.920  19.474   3.435  0.00  0.00     0.101 A 
HETATM   11  C   UNK N   1      21.332  18.555   4.408  0.00  0.00     0.040 A 
HETATM   12  C   UNK N   1      22.682  18.394   4.711  0.00  0.00     0.014 A 
BRANCH   9  13
HETATM   13  O   UNK N   1      21.537  21.150   1.807  0.00  0.00    -0.353 OA
HETATM   14  C   UNK N   1      21.088  20.795   0.554  0.00  0.00     0.210 C 
ENDBRANCH   9  13
BRANCH  10  15
HETATM   15  O   UNK N   1      19.586  19.571   3.195  0.00  0.00    -0.353 OA
HETATM   16  C   UNK N   1      18.839  18.675   2.468  0.00  0.00     0.210 C 
ENDBRANCH  10  15
ENDBRANCH   6   7
ENDBRANCH   2   5
BRANCH   1  17
HETATM   17  C   UNK N   1      28.784  17.853   6.258  0.00  0.00     0.051 A 
HETATM   18  C   UNK N   1      29.110  17.656   7.623  0.00  0.00     0.064 A 
HETATM   19  C   UNK N   1      30.389  17.192   7.957  0.00  0.00     0.020 A 
HETATM   20  C   UNK N   1      31.335  16.926   6.965  0.00  0.00     0.001 A 
HETATM   21  C   UNK N   1      31.012  17.119   5.623  0.00  0.00     0.002 A 
HETATM   22  C   UNK N   1      29.744  17.580   5.271  0.00  0.00     0.030 A 
BRANCH  18  23
HETATM   23  C   UNK N   1      28.143  17.924   8.727  0.00  0.00     0.178 C 
HETATM   24  O   UNK N   1      27.950  17.103   9.610  0.00  0.00    -0.646 OA
BRANCH  23  25
HETATM   25  O   UNK N   1      27.467  19.089   8.757  0.00  0.00    -0.773 OA
HETATM   26  H   UNK N   1      26.558  19.109   8.531  0.00  0.00     0.167 HD
ENDBRANCH  23  25
ENDBRANCH  18  23
ENDBRANCH   1  17
TORSDOF 7
ENDMDL
MODEL 7
REMARK VINA RESULT:      -6.7      1.897      3.116
REMARK  7 active torsions:
REMARK  status: ('A' for Active; 'I' for Inactive)
REMARK    1  A    between atoms: C_1  and  C_3 
REMARK    2  A    between atoms: C_2  and  N_4 
REMARK    3  A    between atoms: C_3  and  O_15 
REMARK       I    between atoms: N_4  and  C_5 
REMARK    4  A    between atoms: C_5  and  C_6 
REMARK    5  A    between atoms: C_7  and  O_17 
REMARK    6  A    between atoms: C_8  and  C_13 
REMARK    7  A    between atoms: C_9  and  O_19 
ROOT
HETATM    1  N   UNK N   1      22.629  14.596   7.314  0.00  0.00    -0.323 N 
HETATM    2  C   UNK N   1      22.171  14.277   6.075  0.00  0.00     0.245 C 
HETATM    3  O   UNK N   1      21.882  13.127   5.776  0.00  0.00    -0.268 OA
HETATM    4  H   UNK N   1      22.833  15.547   7.468  0.00  0.00     0.169 HD
ENDROOT
BRANCH   2   5
HETATM    5  C   UNK N   1      22.027  15.343   5.083  0.00  0.00     0.075 C 
HETATM    6  C   UNK N   1      22.098  16.617   5.484  0.00  0.00     0.017 C 
BRANCH   6   7
HETATM    7  C   UNK N   1      21.964  17.749   4.573  0.00  0.00    -0.033 A 
HETATM    8  C   UNK N   1      23.018  18.641   4.371  0.00  0.00     0.051 A 
HETATM    9  C   UNK N   1      22.883  19.725   3.490  0.00  0.00     0.102 A 
HETATM   10  C   UNK N   1      21.652  19.906   2.801  0.00  0.00     0.101 A 
HETATM   11  C   UNK N   1      20.607  19.001   3.019  0.00  0.00     0.040 A 
HETATM   12  C   UNK N   1      20.761  17.931   3.897  0.00  0.00     0.014 A 
BRANCH   9  13
HETATM   13  O   UNK N   1      23.917  20.582   3.306  0.00  0.00    -0.353 OA
HETATM   14  C   UNK N   1      25.181  20.177   2.934  0.00  0.00     0.210 C 
ENDBRANCH   9  13
BRANCH  10  15
HETATM   15  O   UNK N   1      21.425  20.922   1.927  0.00  0.00    -0.353 OA
HETATM   16  C   UNK N   1      20.789  20.805   0.714  0.00  0.00     0.210 C 
ENDBRANCH  10  15
ENDBRANCH   6   7
ENDBRANCH   2   5
BRANCH   1  17
HETATM   17  C   UNK N   1      22.848  13.725   8.413  0.00  0.00     0.051 A 
HETATM   18  C   UNK N   1      21.888  13.661   9.454  0.00  0.00     0.064 A 
HETATM   19  C   UNK N   1      22.115  12.802  10.537  0.00  0.00     0.020 A 
HETATM   20  C   UNK N   1      23.269  12.018  10.598  0.00  0.00     0.001 A 
HETATM   21  C   UNK N   1      24.211  12.081   9.572  0.00  0.00     0.002 A 
HETATM   22  C   UNK N   1      24.003  12.930   8.486  0.00  0.00     0.030 A 
BRANCH  18  23
HETATM   23  C   UNK N   1      20.638  14.474   9.445  0.00  0.00     0.178 C 
HETATM   24  O   UNK N   1      19.571  13.999   9.802  0.00  0.00    -0.646 OA
BRANCH  23  25
HETATM   25  O   UNK N   1      20.677  15.758   9.038  0.00  0.00    -0.773 OA
HETATM   26  H   UNK N   1      19.879  16.224   8.879  0.00  0.00     0.167 HD
ENDBRANCH  23  25
ENDBRANCH  18  23
ENDBRANCH   1  17
TORSDOF 7
ENDMDL
MODEL 8
REMARK VINA RESULT:      -6.6     14.951     17.372
REMARK  7 active torsions:
REMARK  status: ('A' for Active; 'I' for Inactive)
REMARK    1  A    between atoms: C_1  and  C_3 
REMARK    2  A    between atoms: C_2  and  N_4 
REMARK    3  A    between atoms: C_3  and  O_15 
REMARK       I    between atoms: N_4  and  C_5 
REMARK    4  A    between atoms: C_5  and  C_6 
REMARK    5  A    between atoms: C_7  and  O_17 
REMARK    6  A    between atoms: C_8  and  C_13 
REMARK    7  A    between atoms: C_9  and  O_19 
ROOT
HETATM    1  N   UNK N   1      27.953  25.052  -4.120  0.00  0.00    -0.323 N 
HETATM    2  C   UNK N   1      27.982  24.051  -3.203  0.00  0.00     0.245 C 
HETATM    3  O   UNK N   1      27.027  23.820  -2.476  0.00  0.00    -0.268 OA
HETATM    4  H   UNK N   1      28.766  25.163  -4.665  0.00  0.00     0.169 HD
ENDROOT
BRANCH   2   5
HETATM    5  C   UNK N   1      29.194  23.236  -3.090  0.00  0.00     0.075 C 
HETATM    6  C   UNK N   1      29.754  22.749  -4.201  0.00  0.00     0.017 C 
BRANCH   6   7
HETATM    7  C   UNK N   1      30.960  21.926  -4.192  0.00  0.00    -0.033 A 
HETATM    8  C   UNK N   1      31.299  21.131  -5.287  0.00  0.00     0.051 A 
HETATM    9  C   UNK N   1      32.461  20.346  -5.273  0.00  0.00     0.102 A 
HETATM   10  C   UNK N   1      33.296  20.368  -4.121  0.00  0.00     0.101 A 
HETATM   11  C   UNK N   1      32.937  21.171  -3.033  0.00  0.00     0.040 A 
HETATM   12  C   UNK N   1      31.779  21.944  -3.067  0.00  0.00     0.014 A 
BRANCH   9  13
HETATM   13  O   UNK N   1      32.775  19.580  -6.347  0.00  0.00    -0.353 OA
HETATM   14  C   UNK N   1      33.135  20.100  -7.571  0.00  0.00     0.210 C 
ENDBRANCH   9  13
BRANCH  10  15
HETATM   15  O   UNK N   1      34.442  19.646  -4.013  0.00  0.00    -0.353 OA
HETATM   16  C   UNK N   1      35.641  19.957  -4.608  0.00  0.00     0.210 C 
ENDBRANCH  10  15
ENDBRANCH   6   7
ENDBRANCH   2   5
BRANCH   1  17
HETATM   17  C   UNK N   1      26.894  25.957  -4.389  0.00  0.00     0.051 A 
HETATM   18  C   UNK N   1      26.031  25.715  -5.486  0.00  0.00     0.064 A 
HETATM   19  C   UNK N   1      24.991  26.616  -5.747  0.00  0.00     0.020 A 
HETATM   20  C   UNK N   1      24.801  27.741  -4.941  0.00  0.00     0.001 A 
HETATM   21  C   UNK N   1      25.650  27.977  -3.861  0.00  0.00     0.002 A 
HETATM   22  C   UNK N   1      26.691  27.091  -3.586  0.00  0.00     0.030 A 
BRANCH  18  23
HETATM   23  C   UNK N   1      26.184  24.533  -6.383  0.00  0.00     0.178 C 
HETATM   24  O   UNK N   1      25.268  23.741  -6.547  0.00  0.00    -0.646 OA
BRANCH  23  25
HETATM   25  O   UNK N   1      27.349  24.326  -7.027  0.00  0.00    -0.773 OA
HETATM   26  H   UNK N   1      27.974  23.720  -6.681  0.00  0.00     0.167 HD
ENDBRANCH  23  25
ENDBRANCH  18  23
ENDBRANCH   1  17
TORSDOF 7
ENDMDL
MODEL 9
REMARK VINA RESULT:      -6.5     12.392     14.771
REMARK  7 active torsions:
REMARK  status: ('A' for Active; 'I' for Inactive)
REMARK    1  A    between atoms: C_1  and  C_3 
REMARK    2  A    between atoms: C_2  and  N_4 
REMARK    3  A    between atoms: C_3  and  O_15 
REMARK       I    between atoms: N_4  and  C_5 
REMARK    4  A    between atoms: C_5  and  C_6 
REMARK    5  A    between atoms: C_7  and  O_17 
REMARK    6  A    between atoms: C_8  and  C_13 
REMARK    7  A    between atoms: C_9  and  O_19 
ROOT
HETATM    1  N   UNK N   1      35.636  13.356  15.435  0.00  0.00    -0.323 N 
HETATM    2  C   UNK N   1      36.569  14.226  14.968  0.00  0.00     0.245 C 
HETATM    3  O   UNK N   1      37.482  14.625  15.675  0.00  0.00    -0.268 OA
HETATM    4  H   UNK N   1      34.938  13.085  14.795  0.00  0.00     0.169 HD
ENDROOT
BRANCH   2   5
HETATM    5  C   UNK N   1      36.465  14.691  13.583  0.00  0.00     0.075 C 
HETATM    6  C   UNK N   1      35.595  14.095  12.762  0.00  0.00     0.017 C 
BRANCH   6   7
HETATM    7  C   UNK N   1      35.419  14.484  11.366  0.00  0.00    -0.033 A 
HETATM    8  C   UNK N   1      35.049  15.784  11.020  0.00  0.00     0.051 A 
HETATM    9  C   UNK N   1      34.887  16.151   9.676  0.00  0.00     0.102 A 
HETATM   10  C   UNK N   1      35.104  15.176   8.662  0.00  0.00     0.101 A 
HETATM   11  C   UNK N   1      35.473  13.878   9.031  0.00  0.00     0.040 A 
HETATM   12  C   UNK N   1      35.629  13.533  10.372  0.00  0.00     0.014 A 
BRANCH   9  13
HETATM   13  O   UNK N   1      34.527  17.419   9.358  0.00  0.00    -0.353 OA
HETATM   14  C   UNK N   1      33.358  17.733   8.699  0.00  0.00     0.210 C 
ENDBRANCH   9  13
BRANCH  10  15
HETATM   15  O   UNK N   1      34.974  15.435   7.335  0.00  0.00    -0.353 OA
HETATM   16  C   UNK N   1      35.705  14.845   6.332  0.00  0.00     0.210 C 
ENDBRANCH  10  15
ENDBRANCH   6   7
ENDBRANCH   2   5
BRANCH   1  17
HETATM   17  C   UNK N   1      35.545  12.790  16.733  0.00  0.00     0.051 A 
HETATM   18  C   UNK N   1      35.826  11.413  16.915  0.00  0.00     0.064 A 
HETATM   19  C   UNK N   1      35.729  10.862  18.200  0.00  0.00     0.020 A 
HETATM   20  C   UNK N   1      35.361  11.652  19.290  0.00  0.00     0.001 A 
HETATM   21  C   UNK N   1      35.086  13.007  19.110  0.00  0.00     0.002 A 
HETATM   22  C   UNK N   1      35.177  13.573  17.839  0.00  0.00     0.030 A 
BRANCH  18  23
HETATM   23  C   UNK N   1      36.224  10.519  15.790  0.00  0.00     0.178 C 
HETATM   24  O   UNK N   1      35.568   9.528  15.507  0.00  0.00    -0.646 OA
BRANCH  23  25
HETATM   25  O   UNK N   1      37.325  10.801  15.066  0.00  0.00    -0.773 OA
HETATM   26  H   UNK N   1      37.846  11.550  15.278  0.00  0.00     0.167 HD
ENDBRANCH  23  25
ENDBRANCH  18  23
ENDBRANCH   1  17
TORSDOF 7
ENDMDL
