MODEL 1
REMARK VINA RESULT:      -8.2      0.000      0.000
REMARK  9 active torsions:
REMARK  status: ('A' for Active; 'I' for Inactive)
REMARK    1  A    between atoms: C_2  and  C_1 
REMARK       I    between atoms: C_14  and  N_15 
REMARK    2  A    between atoms: C_17  and  C_14 
REMARK    3  A    between atoms: N_15  and  C_16 
REMARK    4  A    between atoms: O_27  and  C_22 
REMARK    5  A    between atoms: C_31  and  O_27 
REMARK    6  A    between atoms: C_28  and  C_30 
REMARK    7  A    between atoms: C_30  and  C_34 
REMARK    8  A    between atoms: C_35  and  C_31 
REMARK    9  A    between atoms: C_34  and  C_35 
ROOT
HETATM    1  C   UNK N   1      21.253  17.776   6.372  0.00  0.00     0.256 C 
HETATM    2  N   UNK N   1      20.111  17.160   5.937  0.00  0.00    -0.320 N 
HETATM    3  O   UNK N   1      21.182  18.540   7.321  0.00  0.00    -0.267 OA
HETATM    4  H   UNK N   1      19.281  17.520   6.326  0.00  0.00     0.169 HD
ENDROOT
BRANCH   2   5
HETATM    5  C   UNK N   1      19.910  16.072   5.007  0.00  0.00     0.070 A 
HETATM    6  C   UNK N   1      19.991  16.363   3.650  0.00  0.00     0.117 A 
HETATM    7  O   UNK N   1      20.217  17.611   3.295  0.00  0.00    -0.303 OA
HETATM    8  C   UNK N   1      19.818  15.361   2.668  0.00  0.00     0.050 A 
HETATM    9  C   UNK N   1      20.298  18.001   2.039  0.00  0.00     0.126 A 
HETATM   10  C   UNK N   1      20.158  17.072   0.996  0.00  0.00     0.097 A 
HETATM   11  C   UNK N   1      19.915  15.731   1.318  0.00  0.00     0.187 A 
HETATM   12  O   UNK N   1      19.785  14.905   0.431  0.00  0.00    -0.287 OA
HETATM   13  C   UNK N   1      19.554  14.044   3.063  0.00  0.00     0.018 A 
HETATM   14  C   UNK N   1      19.446  13.742   4.419  0.00  0.00     0.003 A 
HETATM   15  C   UNK N   1      19.616  14.751   5.372  0.00  0.00     0.032 A 
BRANCH   9  16
HETATM   16  C   UNK N   1      20.526  19.423   1.808  0.00  0.00     0.168 A 
HETATM   17  N   UNK N   1      20.588  20.034   0.617  0.00  0.00    -0.265 N 
HETATM   18  N   UNK N   1      20.808  21.313   0.896  0.00  0.00    -0.005 NA
ATOM     19  HN  UNK N   1      20.488  19.609  -0.304  1.00  0.00     0.186 HD
HETATM   20  N   UNK N   1      20.876  21.475   2.207  0.00  0.00    -0.225 N 
HETATM   21  N   UNK N   1      20.702  20.308   2.804  0.00  0.00    -0.269 N 
HETATM   22  H   UNK N   1      21.030  22.332   2.667  0.00  0.00     0.205 HD
ATOM     23  HN  UNK N   1      20.703  20.119   3.806  1.00  0.00     0.190 HD
ENDBRANCH   9  16
ENDBRANCH   2   5
BRANCH   1  24
HETATM   24  C   UNK N   1      22.566  17.363   5.884  0.00  0.00     0.032 C 
HETATM   25  C   UNK N   1      23.177  18.089   4.862  0.00  0.00     0.020 C 
HETATM   26  C   UNK N   1      24.108  17.471   4.042  0.00  0.00     0.038 C 
HETATM   27  C   UNK N   1      24.443  16.126   4.254  0.00  0.00     0.068 C 
HETATM   28  C   UNK N   1      23.958  15.456   5.380  0.00  0.00     0.038 C 
HETATM   29  C   UNK N   1      23.003  16.071   6.190  0.00  0.00     0.020 C 
BRANCH  27  30
HETATM   30  O   UNK N   1      25.120  15.435   3.317  0.00  0.00    -0.351 OA
BRANCH  30  31
HETATM   31  C   UNK N   1      26.148  16.048   2.623  0.00  0.00     0.175 C 
BRANCH  31  32
HETATM   32  C   UNK N   1      27.501  15.627   3.145  0.00  0.00     0.027 C 
BRANCH  32  33
HETATM   33  C   UNK N   1      28.376  16.849   3.337  0.00  0.00     0.007 C 
BRANCH  33  34
HETATM   34  C   UNK N   1      28.450  17.214   4.810  0.00  0.00     0.038 C 
BRANCH  34  35
HETATM   35  C   UNK N   1      27.833  18.548   5.089  0.00  0.00    -0.058 A 
HETATM   36  C   UNK N   1      27.826  19.046   6.396  0.00  0.00     0.007 A 
HETATM   37  C   UNK N   1      27.269  20.300   6.665  0.00  0.00     0.001 A 
HETATM   38  C   UNK N   1      26.716  21.058   5.628  0.00  0.00     0.000 A 
HETATM   39  C   UNK N   1      26.719  20.561   4.321  0.00  0.00     0.001 A 
HETATM   40  C   UNK N   1      27.280  19.310   4.050  0.00  0.00     0.007 A 
ENDBRANCH  34  35
ENDBRANCH  33  34
ENDBRANCH  32  33
ENDBRANCH  31  32
ENDBRANCH  30  31
ENDBRANCH  27  30
ENDBRANCH   1  24
TORSDOF 9
ENDMDL
MODEL 2
REMARK VINA RESULT:      -8.1      2.692      4.907
REMARK  9 active torsions:
REMARK  status: ('A' for Active; 'I' for Inactive)
REMARK    1  A    between atoms: C_2  and  C_1 
REMARK       I    between atoms: C_14  and  N_15 
REMARK    2  A    between atoms: C_17  and  C_14 
REMARK    3  A    between atoms: N_15  and  C_16 
REMARK    4  A    between atoms: O_27  and  C_22 
REMARK    5  A    between atoms: C_31  and  O_27 
REMARK    6  A    between atoms: C_28  and  C_30 
REMARK    7  A    between atoms: C_30  and  C_34 
REMARK    8  A    between atoms: C_35  and  C_31 
REMARK    9  A    between atoms: C_34  and  C_35 
ROOT
HETATM    1  C   UNK N   1      25.378  17.252   4.828  0.00  0.00     0.256 C 
HETATM    2  N   UNK N   1      24.232  17.319   5.574  0.00  0.00    -0.320 N 
HETATM    3  O   UNK N   1      26.236  18.103   4.992  0.00  0.00    -0.267 OA
HETATM    4  H   UNK N   1      24.120  18.162   6.071  0.00  0.00     0.169 HD
ENDROOT
BRANCH   2   5
HETATM    5  C   UNK N   1      23.159  16.369   5.759  0.00  0.00     0.070 A 
HETATM    6  C   UNK N   1      21.996  16.562   5.023  0.00  0.00     0.117 A 
HETATM    7  O   UNK N   1      21.931  17.609   4.226  0.00  0.00    -0.303 OA
HETATM    8  C   UNK N   1      20.898  15.679   5.132  0.00  0.00     0.050 A 
HETATM    9  C   UNK N   1      20.873  17.895   3.494  0.00  0.00     0.126 A 
HETATM   10  C   UNK N   1      19.742  17.063   3.524  0.00  0.00     0.097 A 
HETATM   11  C   UNK N   1      19.758  15.937   4.356  0.00  0.00     0.187 A 
HETATM   12  O   UNK N   1      18.787  15.201   4.405  0.00  0.00    -0.287 OA
HETATM   13  C   UNK N   1      20.974  14.585   6.004  0.00  0.00     0.018 A 
HETATM   14  C   UNK N   1      22.125  14.394   6.767  0.00  0.00     0.003 A 
HETATM   15  C   UNK N   1      23.196  15.283   6.644  0.00  0.00     0.032 A 
BRANCH   9  16
HETATM   16  C   UNK N   1      20.946  19.104   2.682  0.00  0.00     0.168 A 
HETATM   17  N   UNK N   1      21.829  20.102   2.821  0.00  0.00    -0.265 N 
HETATM   18  N   UNK N   1      21.516  20.976   1.874  0.00  0.00    -0.005 NA
ATOM     19  HN  UNK N   1      22.580  20.174   3.507  1.00  0.00     0.186 HD
HETATM   20  N   UNK N   1      20.481  20.527   1.181  0.00  0.00    -0.225 N 
HETATM   21  N   UNK N   1      20.104  19.356   1.666  0.00  0.00    -0.269 N 
HETATM   22  H   UNK N   1      20.059  20.993   0.423  0.00  0.00     0.205 HD
ATOM     23  HN  UNK N   1      19.337  18.770   1.338  1.00  0.00     0.190 HD
ENDBRANCH   9  16
ENDBRANCH   2   5
BRANCH   1  24
HETATM   24  C   UNK N   1      25.688  16.071   4.026  0.00  0.00     0.032 C 
HETATM   25  C   UNK N   1      26.278  14.965   4.636  0.00  0.00     0.020 C 
HETATM   26  C   UNK N   1      27.042  14.088   3.879  0.00  0.00     0.038 C 
HETATM   27  C   UNK N   1      27.202  14.310   2.504  0.00  0.00     0.068 C 
HETATM   28  C   UNK N   1      26.473  15.319   1.870  0.00  0.00     0.038 C 
HETATM   29  C   UNK N   1      25.725  16.214   2.636  0.00  0.00     0.020 C 
BRANCH  27  30
HETATM   30  O   UNK N   1      28.149  13.648   1.811  0.00  0.00    -0.351 OA
BRANCH  30  31
HETATM   31  C   UNK N   1      28.393  12.314   2.087  0.00  0.00     0.175 C 
BRANCH  31  32
HETATM   32  C   UNK N   1      27.664  11.405   1.127  0.00  0.00     0.027 C 
BRANCH  32  33
HETATM   33  C   UNK N   1      26.336  10.990   1.728  0.00  0.00     0.007 C 
BRANCH  33  34
HETATM   34  C   UNK N   1      25.207  11.271   0.751  0.00  0.00     0.038 C 
BRANCH  34  35
HETATM   35  C   UNK N   1      24.294  12.349   1.246  0.00  0.00    -0.058 A 
HETATM   36  C   UNK N   1      24.007  12.436   2.612  0.00  0.00     0.007 A 
HETATM   37  C   UNK N   1      23.170  13.450   3.089  0.00  0.00     0.001 A 
HETATM   38  C   UNK N   1      22.617  14.377   2.199  0.00  0.00     0.000 A 
HETATM   39  C   UNK N   1      22.899  14.289   0.833  0.00  0.00     0.001 A 
HETATM   40  C   UNK N   1      23.740  13.279   0.356  0.00  0.00     0.007 A 
ENDBRANCH  34  35
ENDBRANCH  33  34
ENDBRANCH  32  33
ENDBRANCH  31  32
ENDBRANCH  30  31
ENDBRANCH  27  30
ENDBRANCH   1  24
TORSDOF 9
ENDMDL
MODEL 3
REMARK VINA RESULT:      -8.1      3.734      6.912
REMARK  9 active torsions:
REMARK  status: ('A' for Active; 'I' for Inactive)
REMARK    1  A    between atoms: C_2  and  C_1 
REMARK       I    between atoms: C_14  and  N_15 
REMARK    2  A    between atoms: C_17  and  C_14 
REMARK    3  A    between atoms: N_15  and  C_16 
REMARK    4  A    between atoms: O_27  and  C_22 
REMARK    5  A    between atoms: C_31  and  O_27 
REMARK    6  A    between atoms: C_28  and  C_30 
REMARK    7  A    between atoms: C_30  and  C_34 
REMARK    8  A    between atoms: C_35  and  C_31 
REMARK    9  A    between atoms: C_34  and  C_35 
ROOT
HETATM    1  C   UNK N   1      21.958  16.360   4.248  0.00  0.00     0.256 C 
HETATM    2  N   UNK N   1      22.897  16.271   3.257  0.00  0.00    -0.320 N 
HETATM    3  O   UNK N   1      21.033  17.145   4.112  0.00  0.00    -0.267 OA
HETATM    4  H   UNK N   1      22.840  16.981   2.578  0.00  0.00     0.169 HD
ENDROOT
BRANCH   2   5
HETATM    5  C   UNK N   1      23.957  15.315   3.033  0.00  0.00     0.070 A 
HETATM    6  C   UNK N   1      25.242  15.678   3.417  0.00  0.00     0.117 A 
HETATM    7  O   UNK N   1      25.421  16.876   3.935  0.00  0.00    -0.303 OA
HETATM    8  C   UNK N   1      26.340  14.804   3.245  0.00  0.00     0.050 A 
HETATM    9  C   UNK N   1      26.598  17.328   4.320  0.00  0.00     0.126 A 
HETATM   10  C   UNK N   1      27.742  16.522   4.204  0.00  0.00     0.097 A 
HETATM   11  C   UNK N   1      27.607  15.240   3.659  0.00  0.00     0.187 A 
HETATM   12  O   UNK N   1      28.586  14.521   3.543  0.00  0.00    -0.287 OA
HETATM   13  C   UNK N   1      26.137  13.543   2.671  0.00  0.00     0.018 A 
HETATM   14  C   UNK N   1      24.857  13.175   2.258  0.00  0.00     0.003 A 
HETATM   15  C   UNK N   1      23.788  14.058   2.434  0.00  0.00     0.032 A 
BRANCH   9  16
HETATM   16  C   UNK N   1      26.636  18.687   4.848  0.00  0.00     0.168 A 
HETATM   17  N   UNK N   1      27.492  19.654   4.492  0.00  0.00    -0.265 N 
HETATM   18  N   UNK N   1      27.152  20.705   5.227  0.00  0.00    -0.005 NA
ATOM     19  HN  UNK N   1      28.243  19.595   3.805  1.00  0.00     0.186 HD
HETATM   20  N   UNK N   1      26.125  20.391   6.001  0.00  0.00    -0.225 N 
HETATM   21  N   UNK N   1      25.781  19.133   5.785  0.00  0.00    -0.269 N 
HETATM   22  H   UNK N   1      25.686  21.001   6.638  0.00  0.00     0.205 HD
ATOM     23  HN  UNK N   1      25.028  18.612   6.233  1.00  0.00     0.190 HD
ENDBRANCH   9  16
ENDBRANCH   2   5
BRANCH   1  24
HETATM   24  C   UNK N   1      21.912  15.387   5.336  0.00  0.00     0.032 C 
HETATM   25  C   UNK N   1      21.198  14.201   5.164  0.00  0.00     0.020 C 
HETATM   26  C   UNK N   1      20.699  13.533   6.272  0.00  0.00     0.038 C 
HETATM   27  C   UNK N   1      20.928  14.043   7.558  0.00  0.00     0.068 C 
HETATM   28  C   UNK N   1      21.785  15.133   7.733  0.00  0.00     0.038 C 
HETATM   29  C   UNK N   1      22.266  15.818   6.617  0.00  0.00     0.020 C 
BRANCH  27  30
HETATM   30  O   UNK N   1      20.230  13.577   8.612  0.00  0.00    -0.351 OA
BRANCH  30  31
HETATM   31  C   UNK N   1      20.646  13.879   9.896  0.00  0.00     0.175 C 
BRANCH  31  32
HETATM   32  C   UNK N   1      21.129  12.650  10.628  0.00  0.00     0.027 C 
BRANCH  32  33
HETATM   33  C   UNK N   1      22.645  12.631  10.646  0.00  0.00     0.007 C 
BRANCH  33  34
HETATM   34  C   UNK N   1      23.165  11.530   9.738  0.00  0.00     0.038 C 
BRANCH  34  35
HETATM   35  C   UNK N   1      23.825  12.080   8.512  0.00  0.00    -0.058 A 
HETATM   36  C   UNK N   1      23.582  11.484   7.270  0.00  0.00     0.007 A 
HETATM   37  C   UNK N   1      24.178  12.001   6.116  0.00  0.00     0.001 A 
HETATM   38  C   UNK N   1      25.020  13.115   6.202  0.00  0.00     0.000 A 
HETATM   39  C   UNK N   1      25.267  13.710   7.442  0.00  0.00     0.001 A 
HETATM   40  C   UNK N   1      24.668  13.197   8.596  0.00  0.00     0.007 A 
ENDBRANCH  34  35
ENDBRANCH  33  34
ENDBRANCH  32  33
ENDBRANCH  31  32
ENDBRANCH  30  31
ENDBRANCH  27  30
ENDBRANCH   1  24
TORSDOF 9
ENDMDL
MODEL 4
REMARK VINA RESULT:      -8.0      1.750      3.811
REMARK  9 active torsions:
REMARK  status: ('A' for Active; 'I' for Inactive)
REMARK    1  A    between atoms: C_2  and  C_1 
REMARK       I    between atoms: C_14  and  N_15 
REMARK    2  A    between atoms: C_17  and  C_14 
REMARK    3  A    between atoms: N_15  and  C_16 
REMARK    4  A    between atoms: O_27  and  C_22 
REMARK    5  A    between atoms: C_31  and  O_27 
REMARK    6  A    between atoms: C_28  and  C_30 
REMARK    7  A    between atoms: C_30  and  C_34 
REMARK    8  A    between atoms: C_35  and  C_31 
REMARK    9  A    between atoms: C_34  and  C_35 
ROOT
HETATM    1  C   UNK N   1      19.681  14.408   1.401  0.00  0.00     0.256 C 
HETATM    2  N   UNK N   1      19.128  15.003   2.501  0.00  0.00    -0.320 N 
HETATM    3  O   UNK N   1      19.098  14.494   0.331  0.00  0.00    -0.267 OA
HETATM    4  H   UNK N   1      18.203  15.316   2.373  0.00  0.00     0.169 HD
ENDROOT
BRANCH   2   5
HETATM    5  C   UNK N   1      19.665  15.255   3.819  0.00  0.00     0.070 A 
HETATM    6  C   UNK N   1      20.188  16.518   4.070  0.00  0.00     0.117 A 
HETATM    7  O   UNK N   1      20.188  17.396   3.088  0.00  0.00    -0.303 OA
HETATM    8  C   UNK N   1      20.727  16.857   5.332  0.00  0.00     0.050 A 
HETATM    9  C   UNK N   1      20.672  18.616   3.211  0.00  0.00     0.126 A 
HETATM   10  C   UNK N   1      21.210  19.047   4.434  0.00  0.00     0.097 A 
HETATM   11  C   UNK N   1      21.236  18.152   5.510  0.00  0.00     0.187 A 
HETATM   12  O   UNK N   1      21.703  18.500   6.582  0.00  0.00    -0.287 OA
HETATM   13  C   UNK N   1      20.742  15.903   6.357  0.00  0.00     0.018 A 
HETATM   14  C   UNK N   1      20.243  14.624   6.112  0.00  0.00     0.003 A 
HETATM   15  C   UNK N   1      19.719  14.311   4.854  0.00  0.00     0.032 A 
BRANCH   9  16
HETATM   16  C   UNK N   1      20.623  19.462   2.024  0.00  0.00     0.168 A 
HETATM   17  N   UNK N   1      20.608  19.044   0.751  0.00  0.00    -0.265 N 
HETATM   18  N   UNK N   1      20.562  20.152   0.024  0.00  0.00    -0.005 NA
ATOM     19  HN  UNK N   1      20.627  18.082   0.414  1.00  0.00     0.186 HD
HETATM   20  N   UNK N   1      20.548  21.207   0.823  0.00  0.00    -0.225 N 
HETATM   21  N   UNK N   1      20.586  20.804   2.082  0.00  0.00    -0.269 N 
HETATM   22  H   UNK N   1      20.514  22.146   0.526  0.00  0.00     0.205 HD
ATOM     23  HN  UNK N   1      20.587  21.387   2.918  1.00  0.00     0.190 HD
ENDBRANCH   9  16
ENDBRANCH   2   5
BRANCH   1  24
HETATM   24  C   UNK N   1      21.044  13.885   1.429  0.00  0.00     0.032 C 
HETATM   25  C   UNK N   1      21.289  12.643   2.012  0.00  0.00     0.020 C 
HETATM   26  C   UNK N   1      22.547  12.358   2.522  0.00  0.00     0.038 C 
HETATM   27  C   UNK N   1      23.569  13.314   2.434  0.00  0.00     0.068 C 
HETATM   28  C   UNK N   1      23.367  14.486   1.700  0.00  0.00     0.038 C 
HETATM   29  C   UNK N   1      22.095  14.781   1.209  0.00  0.00     0.020 C 
BRANCH  27  30
HETATM   30  O   UNK N   1      24.698  13.176   3.156  0.00  0.00    -0.351 OA
BRANCH  30  31
HETATM   31  C   UNK N   1      25.199  14.258   3.857  0.00  0.00     0.175 C 
BRANCH  31  32
HETATM   32  C   UNK N   1      24.436  14.492   5.139  0.00  0.00     0.027 C 
BRANCH  32  33
HETATM   33  C   UNK N   1      24.376  15.978   5.432  0.00  0.00     0.007 C 
BRANCH  33  34
HETATM   34  C   UNK N   1      24.419  16.770   4.137  0.00  0.00     0.038 C 
BRANCH  34  35
HETATM   35  C   UNK N   1      25.356  17.933   4.223  0.00  0.00    -0.058 A 
HETATM   36  C   UNK N   1      26.710  17.753   3.923  0.00  0.00     0.007 A 
HETATM   37  C   UNK N   1      27.591  18.837   3.981  0.00  0.00     0.001 A 
HETATM   38  C   UNK N   1      27.120  20.103   4.341  0.00  0.00     0.000 A 
HETATM   39  C   UNK N   1      25.768  20.285   4.645  0.00  0.00     0.001 A 
HETATM   40  C   UNK N   1      24.885  19.204   4.582  0.00  0.00     0.007 A 
ENDBRANCH  34  35
ENDBRANCH  33  34
ENDBRANCH  32  33
ENDBRANCH  31  32
ENDBRANCH  30  31
ENDBRANCH  27  30
ENDBRANCH   1  24
TORSDOF 9
ENDMDL
MODEL 5
REMARK VINA RESULT:      -7.9      3.872      6.438
REMARK  9 active torsions:
REMARK  status: ('A' for Active; 'I' for Inactive)
REMARK    1  A    between atoms: C_2  and  C_1 
REMARK       I    between atoms: C_14  and  N_15 
REMARK    2  A    between atoms: C_17  and  C_14 
REMARK    3  A    between atoms: N_15  and  C_16 
REMARK    4  A    between atoms: O_27  and  C_22 
REMARK    5  A    between atoms: C_31  and  O_27 
REMARK    6  A    between atoms: C_28  and  C_30 
REMARK    7  A    between atoms: C_30  and  C_34 
REMARK    8  A    between atoms: C_35  and  C_31 
REMARK    9  A    between atoms: C_34  and  C_35 
ROOT
HETATM    1  C   UNK N   1      21.353  17.941   6.447  0.00  0.00     0.256 C 
HETATM    2  N   UNK N   1      21.888  17.963   5.188  0.00  0.00    -0.320 N 
HETATM    3  O   UNK N   1      21.056  19.000   6.977  0.00  0.00    -0.267 OA
HETATM    4  H   UNK N   1      22.151  18.858   4.873  0.00  0.00     0.169 HD
ENDROOT
BRANCH   2   5
HETATM    5  C   UNK N   1      22.134  16.900   4.240  0.00  0.00     0.070 A 
HETATM    6  C   UNK N   1      23.456  16.554   3.991  0.00  0.00     0.117 A 
HETATM    7  O   UNK N   1      24.402  17.229   4.610  0.00  0.00    -0.303 OA
HETATM    8  C   UNK N   1      23.791  15.521   3.085  0.00  0.00     0.050 A 
HETATM    9  C   UNK N   1      25.688  16.995   4.437  0.00  0.00     0.126 A 
HETATM   10  C   UNK N   1      26.114  15.975   3.571  0.00  0.00     0.097 A 
HETATM   11  C   UNK N   1      25.149  15.227   2.887  0.00  0.00     0.187 A 
HETATM   12  O   UNK N   1      25.492  14.339   2.125  0.00  0.00    -0.287 OA
HETATM   13  C   UNK N   1      22.774  14.829   2.417  0.00  0.00     0.018 A 
HETATM   14  C   UNK N   1      21.443  15.183   2.639  0.00  0.00     0.003 A 
HETATM   15  C   UNK N   1      21.137  16.211   3.535  0.00  0.00     0.032 A 
BRANCH   9  16
HETATM   16  C   UNK N   1      26.614  17.847   5.174  0.00  0.00     0.168 A 
HETATM   17  N   UNK N   1      27.021  17.670   6.438  0.00  0.00    -0.265 N 
HETATM   18  N   UNK N   1      27.849  18.678   6.679  0.00  0.00    -0.005 NA
ATOM     19  HN  UNK N   1      26.754  16.921   7.077  1.00  0.00     0.186 HD
HETATM   20  N   UNK N   1      27.944  19.441   5.602  0.00  0.00    -0.225 N 
HETATM   21  N   UNK N   1      27.181  18.944   4.644  0.00  0.00    -0.269 N 
HETATM   22  H   UNK N   1      28.498  20.252   5.526  0.00  0.00     0.205 HD
ATOM     23  HN  UNK N   1      27.050  19.314   3.703  1.00  0.00     0.190 HD
ENDBRANCH   9  16
ENDBRANCH   2   5
BRANCH   1  24
HETATM   24  C   UNK N   1      20.919  16.690   7.063  0.00  0.00     0.032 C 
HETATM   25  C   UNK N   1      19.775  16.680   7.860  0.00  0.00     0.020 C 
HETATM   26  C   UNK N   1      19.631  15.712   8.843  0.00  0.00     0.038 C 
HETATM   27  C   UNK N   1      20.626  14.741   9.019  0.00  0.00     0.068 C 
HETATM   28  C   UNK N   1      21.684  14.654   8.109  0.00  0.00     0.038 C 
HETATM   29  C   UNK N   1      21.840  15.642   7.137  0.00  0.00     0.020 C 
BRANCH  27  30
HETATM   30  O   UNK N   1      20.646  13.975  10.127  0.00  0.00    -0.351 OA
BRANCH  30  31
HETATM   31  C   UNK N   1      21.144  12.686  10.060  0.00  0.00     0.175 C 
BRANCH  31  32
HETATM   32  C   UNK N   1      22.240  12.459  11.073  0.00  0.00     0.027 C 
BRANCH  32  33
HETATM   33  C   UNK N   1      23.308  11.564  10.475  0.00  0.00     0.007 C 
BRANCH  33  34
HETATM   34  C   UNK N   1      24.529  12.386  10.100  0.00  0.00     0.038 C 
BRANCH  34  35
HETATM   35  C   UNK N   1      24.574  12.685   8.634  0.00  0.00    -0.058 A 
HETATM   36  C   UNK N   1      25.233  13.834   8.183  0.00  0.00     0.007 A 
HETATM   37  C   UNK N   1      25.298  14.113   6.815  0.00  0.00     0.001 A 
HETATM   38  C   UNK N   1      24.702  13.245   5.894  0.00  0.00     0.000 A 
HETATM   39  C   UNK N   1      24.039  12.098   6.342  0.00  0.00     0.001 A 
HETATM   40  C   UNK N   1      23.978  11.815   7.710  0.00  0.00     0.007 A 
ENDBRANCH  34  35
ENDBRANCH  33  34
ENDBRANCH  32  33
ENDBRANCH  31  32
ENDBRANCH  30  31
ENDBRANCH  27  30
ENDBRANCH   1  24
TORSDOF 9
ENDMDL
MODEL 6
REMARK VINA RESULT:      -7.9     11.810     14.114
REMARK  9 active torsions:
REMARK  status: ('A' for Active; 'I' for Inactive)
REMARK    1  A    between atoms: C_2  and  C_1 
REMARK       I    between atoms: C_14  and  N_15 
REMARK    2  A    between atoms: C_17  and  C_14 
REMARK    3  A    between atoms: N_15  and  C_16 
REMARK    4  A    between atoms: O_27  and  C_22 
REMARK    5  A    between atoms: C_31  and  O_27 
REMARK    6  A    between atoms: C_28  and  C_30 
REMARK    7  A    between atoms: C_30  and  C_34 
REMARK    8  A    between atoms: C_35  and  C_31 
REMARK    9  A    between atoms: C_34  and  C_35 
ROOT
HETATM    1  C   UNK N   1      25.886  23.056  -7.188  0.00  0.00     0.256 C 
HETATM    2  N   UNK N   1      25.574  24.272  -7.733  0.00  0.00    -0.320 N 
HETATM    3  O   UNK N   1      24.990  22.382  -6.706  0.00  0.00    -0.267 OA
HETATM    4  H   UNK N   1      24.660  24.583  -7.537  0.00  0.00     0.169 HD
ENDROOT
BRANCH   2   5
HETATM    5  C   UNK N   1      26.351  25.179  -8.547  0.00  0.00     0.070 A 
HETATM    6  C   UNK N   1      26.922  26.278  -7.918  0.00  0.00     0.117 A 
HETATM    7  O   UNK N   1      26.699  26.443  -6.630  0.00  0.00    -0.303 OA
HETATM    8  C   UNK N   1      27.706  27.213  -8.632  0.00  0.00     0.050 A 
HETATM    9  C   UNK N   1      27.179  27.457  -5.938  0.00  0.00     0.126 A 
HETATM   10  C   UNK N   1      27.983  28.425  -6.560  0.00  0.00     0.097 A 
HETATM   11  C   UNK N   1      28.251  28.298  -7.929  0.00  0.00     0.187 A 
HETATM   12  O   UNK N   1      28.943  29.127  -8.494  0.00  0.00    -0.287 OA
HETATM   13  C   UNK N   1      27.913  27.037 -10.006  0.00  0.00     0.018 A 
HETATM   14  C   UNK N   1      27.326  25.951 -10.655  0.00  0.00     0.003 A 
HETATM   15  C   UNK N   1      26.551  25.043  -9.928  0.00  0.00     0.032 A 
BRANCH   9  16
HETATM   16  C   UNK N   1      26.820  27.513  -4.526  0.00  0.00     0.168 A 
HETATM   17  N   UNK N   1      26.160  26.573  -3.836  0.00  0.00    -0.265 N 
HETATM   18  N   UNK N   1      26.063  27.053  -2.603  0.00  0.00    -0.005 NA
ATOM     19  HN  UNK N   1      25.810  25.680  -4.183  1.00  0.00     0.186 HD
HETATM   20  N   UNK N   1      26.643  28.241  -2.543  0.00  0.00    -0.225 N 
HETATM   21  N   UNK N   1      27.125  28.554  -3.733  0.00  0.00    -0.269 N 
HETATM   22  H   UNK N   1      26.705  28.803  -1.736  0.00  0.00     0.205 HD
ATOM     23  HN  UNK N   1      27.623  29.405  -3.994  1.00  0.00     0.190 HD
ENDBRANCH   9  16
ENDBRANCH   2   5
BRANCH   1  24
HETATM   24  C   UNK N   1      27.204  22.457  -7.381  0.00  0.00     0.032 C 
HETATM   25  C   UNK N   1      27.321  21.283  -8.123  0.00  0.00     0.020 C 
HETATM   26  C   UNK N   1      28.392  20.431  -7.899  0.00  0.00     0.038 C 
HETATM   27  C   UNK N   1      29.359  20.763  -6.939  0.00  0.00     0.068 C 
HETATM   28  C   UNK N   1      29.328  22.017  -6.322  0.00  0.00     0.038 C 
HETATM   29  C   UNK N   1      28.237  22.861  -6.531  0.00  0.00     0.020 C 
BRANCH  27  30
HETATM   30  O   UNK N   1      30.240  19.839  -6.508  0.00  0.00    -0.351 OA
BRANCH  30  31
HETATM   31  C   UNK N   1      31.528  20.222  -6.179  0.00  0.00     0.175 C 
BRANCH  31  32
HETATM   32  C   UNK N   1      31.832  19.956  -4.725  0.00  0.00     0.027 C 
BRANCH  32  33
HETATM   33  C   UNK N   1      32.712  21.063  -4.177  0.00  0.00     0.007 C 
BRANCH  33  34
HETATM   34  C   UNK N   1      32.122  21.612  -2.890  0.00  0.00     0.038 C 
BRANCH  34  35
HETATM   35  C   UNK N   1      31.150  22.720  -3.147  0.00  0.00    -0.058 A 
HETATM   36  C   UNK N   1      31.545  23.821  -3.916  0.00  0.00     0.007 A 
HETATM   37  C   UNK N   1      30.639  24.853  -4.179  0.00  0.00     0.001 A 
HETATM   38  C   UNK N   1      29.338  24.788  -3.671  0.00  0.00     0.000 A 
HETATM   39  C   UNK N   1      28.942  23.693  -2.899  0.00  0.00     0.001 A 
HETATM   40  C   UNK N   1      29.845  22.657  -2.640  0.00  0.00     0.007 A 
ENDBRANCH  34  35
ENDBRANCH  33  34
ENDBRANCH  32  33
ENDBRANCH  31  32
ENDBRANCH  30  31
ENDBRANCH  27  30
ENDBRANCH   1  24
TORSDOF 9
ENDMDL
MODEL 7
REMARK VINA RESULT:      -7.9     12.195     14.883
REMARK  9 active torsions:
REMARK  status: ('A' for Active; 'I' for Inactive)
REMARK    1  A    between atoms: C_2  and  C_1 
REMARK       I    between atoms: C_14  and  N_15 
REMARK    2  A    between atoms: C_17  and  C_14 
REMARK    3  A    between atoms: N_15  and  C_16 
REMARK    4  A    between atoms: O_27  and  C_22 
REMARK    5  A    between atoms: C_31  and  O_27 
REMARK    6  A    between atoms: C_28  and  C_30 
REMARK    7  A    between atoms: C_30  and  C_34 
REMARK    8  A    between atoms: C_35  and  C_31 
REMARK    9  A    between atoms: C_34  and  C_35 
ROOT
HETATM    1  C   UNK N   1      29.466  26.466  -9.081  0.00  0.00     0.256 C 
HETATM    2  N   UNK N   1      28.646  27.541  -8.868  0.00  0.00    -0.320 N 
HETATM    3  O   UNK N   1      29.836  26.226 -10.219  0.00  0.00    -0.267 OA
HETATM    4  H   UNK N   1      28.280  27.942  -9.689  0.00  0.00     0.169 HD
ENDROOT
BRANCH   2   5
HETATM    5  C   UNK N   1      28.226  28.191  -7.647  0.00  0.00     0.070 A 
HETATM    6  C   UNK N   1      27.259  27.553  -6.879  0.00  0.00     0.117 A 
HETATM    7  O   UNK N   1      26.767  26.414  -7.321  0.00  0.00    -0.303 OA
HETATM    8  C   UNK N   1      26.794  28.109  -5.666  0.00  0.00     0.050 A 
HETATM    9  C   UNK N   1      25.838  25.732  -6.681  0.00  0.00     0.126 A 
HETATM   10  C   UNK N   1      25.329  26.199  -5.458  0.00  0.00     0.097 A 
HETATM   11  C   UNK N   1      25.818  27.406  -4.944  0.00  0.00     0.187 A 
HETATM   12  O   UNK N   1      25.389  27.836  -3.886  0.00  0.00    -0.287 OA
HETATM   13  C   UNK N   1      27.310  29.334  -5.223  0.00  0.00     0.018 A 
HETATM   14  C   UNK N   1      28.262  29.997  -5.996  0.00  0.00     0.003 A 
HETATM   15  C   UNK N   1      28.703  29.429  -7.195  0.00  0.00     0.032 A 
BRANCH   9  16
HETATM   16  C   UNK N   1      25.376  24.502  -7.313  0.00  0.00     0.168 A 
HETATM   17  N   UNK N   1      25.069  24.341  -8.607  0.00  0.00    -0.265 N 
HETATM   18  N   UNK N   1      24.703  23.071  -8.720  0.00  0.00    -0.005 NA
ATOM     19  HN  UNK N   1      25.108  25.043  -9.346  1.00  0.00     0.186 HD
HETATM   20  N   UNK N   1      24.785  22.479  -7.540  0.00  0.00    -0.225 N 
HETATM   21  N   UNK N   1      25.204  23.351  -6.639  0.00  0.00    -0.269 N 
HETATM   22  H   UNK N   1      24.568  21.535  -7.360  0.00  0.00     0.205 HD
ATOM     23  HN  UNK N   1      25.364  23.187  -5.646  1.00  0.00     0.190 HD
ENDBRANCH   9  16
ENDBRANCH   2   5
BRANCH   1  24
HETATM   24  C   UNK N   1      30.084  25.754  -7.965  0.00  0.00     0.032 C 
HETATM   25  C   UNK N   1      31.356  26.129  -7.535  0.00  0.00     0.020 C 
HETATM   26  C   UNK N   1      32.163  25.206  -6.887  0.00  0.00     0.038 C 
HETATM   27  C   UNK N   1      31.690  23.907  -6.654  0.00  0.00     0.068 C 
HETATM   28  C   UNK N   1      30.358  23.589  -6.934  0.00  0.00     0.038 C 
HETATM   29  C   UNK N   1      29.556  24.511  -7.607  0.00  0.00     0.020 C 
BRANCH  27  30
HETATM   30  O   UNK N   1      32.538  22.926  -6.287  0.00  0.00    -0.351 OA
BRANCH  30  31
HETATM   31  C   UNK N   1      32.042  21.670  -5.984  0.00  0.00     0.175 C 
BRANCH  31  32
HETATM   32  C   UNK N   1      32.295  21.306  -4.542  0.00  0.00     0.027 C 
BRANCH  32  33
HETATM   33  C   UNK N   1      30.981  21.281  -3.785  0.00  0.00     0.007 C 
BRANCH  33  34
HETATM   34  C   UNK N   1      30.966  22.368  -2.725  0.00  0.00     0.038 C 
BRANCH  34  35
HETATM   35  C   UNK N   1      30.334  23.629  -3.225  0.00  0.00    -0.058 A 
HETATM   36  C   UNK N   1      28.985  23.625  -3.596  0.00  0.00     0.007 A 
HETATM   37  C   UNK N   1      28.378  24.801  -4.046  0.00  0.00     0.001 A 
HETATM   38  C   UNK N   1      29.120  25.984  -4.130  0.00  0.00     0.000 A 
HETATM   39  C   UNK N   1      30.469  25.990  -3.764  0.00  0.00     0.001 A 
HETATM   40  C   UNK N   1      31.076  24.816  -3.308  0.00  0.00     0.007 A 
ENDBRANCH  34  35
ENDBRANCH  33  34
ENDBRANCH  32  33
ENDBRANCH  31  32
ENDBRANCH  30  31
ENDBRANCH  27  30
ENDBRANCH   1  24
TORSDOF 9
ENDMDL
MODEL 8
REMARK VINA RESULT:      -7.9      9.700     13.986
REMARK  9 active torsions:
REMARK  status: ('A' for Active; 'I' for Inactive)
REMARK    1  A    between atoms: C_2  and  C_1 
REMARK       I    between atoms: C_14  and  N_15 
REMARK    2  A    between atoms: C_17  and  C_14 
REMARK    3  A    between atoms: N_15  and  C_16 
REMARK    4  A    between atoms: O_27  and  C_22 
REMARK    5  A    between atoms: C_31  and  O_27 
REMARK    6  A    between atoms: C_28  and  C_30 
REMARK    7  A    between atoms: C_30  and  C_34 
REMARK    8  A    between atoms: C_35  and  C_31 
REMARK    9  A    between atoms: C_34  and  C_35 
ROOT
HETATM    1  C   UNK N   1      35.123  16.548   9.744  0.00  0.00     0.256 C 
HETATM    2  N   UNK N   1      35.924  15.444   9.633  0.00  0.00    -0.320 N 
HETATM    3  O   UNK N   1      35.556  17.530  10.325  0.00  0.00    -0.267 OA
HETATM    4  H   UNK N   1      36.737  15.473  10.188  0.00  0.00     0.169 HD
ENDROOT
BRANCH   2   5
HETATM    5  C   UNK N   1      35.784  14.242   8.843  0.00  0.00     0.070 A 
HETATM    6  C   UNK N   1      35.423  13.075   9.505  0.00  0.00     0.117 A 
HETATM    7  O   UNK N   1      35.258  13.128  10.811  0.00  0.00    -0.303 OA
HETATM    8  C   UNK N   1      35.255  11.854   8.813  0.00  0.00     0.050 A 
HETATM    9  C   UNK N   1      34.930  12.080  11.540  0.00  0.00     0.126 A 
HETATM   10  C   UNK N   1      34.723  10.829  10.935  0.00  0.00     0.097 A 
HETATM   11  C   UNK N   1      34.888  10.718   9.549  0.00  0.00     0.187 A 
HETATM   12  O   UNK N   1      34.719   9.643   9.000  0.00  0.00    -0.287 OA
HETATM   13  C   UNK N   1      35.459  11.810   7.428  0.00  0.00     0.018 A 
HETATM   14  C   UNK N   1      35.846  12.968   6.754  0.00  0.00     0.003 A 
HETATM   15  C   UNK N   1      36.010  14.162   7.461  0.00  0.00     0.032 A 
BRANCH   9  16
HETATM   16  C   UNK N   1      34.810  12.294  12.977  0.00  0.00     0.168 A 
HETATM   17  N   UNK N   1      34.028  11.607  13.821  0.00  0.00    -0.265 N 
HETATM   18  N   UNK N   1      34.246  12.146  15.013  0.00  0.00    -0.005 NA
ATOM     19  HN  UNK N   1      33.401  10.834  13.596  1.00  0.00     0.186 HD
HETATM   20  N   UNK N   1      35.129  13.126  14.901  0.00  0.00    -0.225 N 
HETATM   21  N   UNK N   1      35.499  13.241  13.637  0.00  0.00    -0.269 N 
HETATM   22  H   UNK N   1      35.459  13.682  15.644  0.00  0.00     0.205 HD
ATOM     23  HN  UNK N   1      36.166  13.906  13.246  1.00  0.00     0.190 HD
ENDBRANCH   9  16
ENDBRANCH   2   5
BRANCH   1  24
HETATM   24  C   UNK N   1      33.876  16.656   8.992  0.00  0.00     0.032 C 
HETATM   25  C   UNK N   1      33.565  17.854   8.351  0.00  0.00     0.020 C 
HETATM   26  C   UNK N   1      32.240  18.174   8.096  0.00  0.00     0.038 C 
HETATM   27  C   UNK N   1      31.222  17.285   8.471  0.00  0.00     0.068 C 
HETATM   28  C   UNK N   1      31.549  16.016   8.956  0.00  0.00     0.038 C 
HETATM   29  C   UNK N   1      32.880  15.705   9.234  0.00  0.00     0.020 C 
BRANCH  27  30
HETATM   30  O   UNK N   1      29.937  17.687   8.491  0.00  0.00    -0.351 OA
BRANCH  30  31
HETATM   31  C   UNK N   1      29.008  17.053   7.684  0.00  0.00     0.175 C 
BRANCH  31  32
HETATM   32  C   UNK N   1      28.375  18.013   6.705  0.00  0.00     0.027 C 
BRANCH  32  33
HETATM   33  C   UNK N   1      29.187  18.045   5.426  0.00  0.00     0.007 C 
BRANCH  33  34
HETATM   34  C   UNK N   1      29.578  16.635   5.018  0.00  0.00     0.038 C 
BRANCH  34  35
HETATM   35  C   UNK N   1      31.062  16.439   5.031  0.00  0.00    -0.058 A 
HETATM   36  C   UNK N   1      31.594  15.217   5.457  0.00  0.00     0.007 A 
HETATM   37  C   UNK N   1      32.978  15.016   5.455  0.00  0.00     0.001 A 
HETATM   38  C   UNK N   1      33.832  16.038   5.030  0.00  0.00     0.000 A 
HETATM   39  C   UNK N   1      33.304  17.261   4.608  0.00  0.00     0.001 A 
HETATM   40  C   UNK N   1      31.920  17.462   4.603  0.00  0.00     0.007 A 
ENDBRANCH  34  35
ENDBRANCH  33  34
ENDBRANCH  32  33
ENDBRANCH  31  32
ENDBRANCH  30  31
ENDBRANCH  27  30
ENDBRANCH   1  24
TORSDOF 9
ENDMDL
MODEL 9
REMARK VINA RESULT:      -7.8      9.919     13.200
REMARK  9 active torsions:
REMARK  status: ('A' for Active; 'I' for Inactive)
REMARK    1  A    between atoms: C_2  and  C_1 
REMARK       I    between atoms: C_14  and  N_15 
REMARK    2  A    between atoms: C_17  and  C_14 
REMARK    3  A    between atoms: N_15  and  C_16 
REMARK    4  A    between atoms: O_27  and  C_22 
REMARK    5  A    between atoms: C_31  and  O_27 
REMARK    6  A    between atoms: C_28  and  C_30 
REMARK    7  A    between atoms: C_30  and  C_34 
REMARK    8  A    between atoms: C_35  and  C_31 
REMARK    9  A    between atoms: C_34  and  C_35 
ROOT
HETATM    1  C   UNK N   1      34.261  17.467   7.917  0.00  0.00     0.256 C 
HETATM    2  N   UNK N   1      33.825  17.489   6.620  0.00  0.00    -0.320 N 
HETATM    3  O   UNK N   1      34.440  18.527   8.494  0.00  0.00    -0.267 OA
HETATM    4  H   UNK N   1      33.853  18.378   6.197  0.00  0.00     0.169 HD
ENDROOT
BRANCH   2   5
HETATM    5  C   UNK N   1      33.330  16.436   5.763  0.00  0.00     0.070 A 
HETATM    6  C   UNK N   1      31.969  16.159   5.805  0.00  0.00     0.117 A 
HETATM    7  O   UNK N   1      31.220  16.851   6.639  0.00  0.00    -0.303 OA
HETATM    8  C   UNK N   1      31.395  15.152   4.996  0.00  0.00     0.050 A 
HETATM    9  C   UNK N   1      29.922  16.662   6.770  0.00  0.00     0.126 A 
HETATM   10  C   UNK N   1      29.262  15.696   5.994  0.00  0.00     0.097 A 
HETATM   11  C   UNK N   1      30.013  14.931   5.093  0.00  0.00     0.187 A 
HETATM   12  O   UNK N   1      29.465  14.083   4.410  0.00  0.00    -0.287 OA
HETATM   13  C   UNK N   1      32.210  14.409   4.134  0.00  0.00     0.018 A 
HETATM   14  C   UNK N   1      33.581  14.659   4.099  0.00  0.00     0.003 A 
HETATM   15  C   UNK N   1      34.126  15.657   4.912  0.00  0.00     0.032 A 
BRANCH   9  16
HETATM   16  C   UNK N   1      29.237  17.490   7.756  0.00  0.00     0.168 A 
HETATM   17  N   UNK N   1      29.796  18.094   8.813  0.00  0.00    -0.265 N 
HETATM   18  N   UNK N   1      28.800  18.729   9.416  0.00  0.00    -0.005 NA
ATOM     19  HN  UNK N   1      30.777  18.073   9.092  1.00  0.00     0.186 HD
HETATM   20  N   UNK N   1      27.674  18.520   8.752  0.00  0.00    -0.225 N 
HETATM   21  N   UNK N   1      27.918  17.748   7.707  0.00  0.00    -0.269 N 
HETATM   22  H   UNK N   1      26.793  18.885   8.997  0.00  0.00     0.205 HD
ATOM     23  HN  UNK N   1      27.249  17.418   7.012  1.00  0.00     0.190 HD
ENDBRANCH   9  16
ENDBRANCH   2   5
BRANCH   1  24
HETATM   24  C   UNK N   1      34.289  16.224   8.683  0.00  0.00     0.032 C 
HETATM   25  C   UNK N   1      33.114  15.754   9.268  0.00  0.00     0.020 C 
HETATM   26  C   UNK N   1      33.182  14.931  10.383  0.00  0.00     0.038 C 
HETATM   27  C   UNK N   1      34.430  14.564  10.905  0.00  0.00     0.068 C 
HETATM   28  C   UNK N   1      35.599  14.897  10.216  0.00  0.00     0.038 C 
HETATM   29  C   UNK N   1      35.531  15.745   9.110  0.00  0.00     0.020 C 
BRANCH  27  30
HETATM   30  O   UNK N   1      34.523  14.008  12.128  0.00  0.00    -0.351 OA
BRANCH  30  31
HETATM   31  C   UNK N   1      35.637  14.255  12.910  0.00  0.00     0.175 C 
BRANCH  31  32
HETATM   32  C   UNK N   1      36.525  13.038  13.013  0.00  0.00     0.027 C 
BRANCH  32  33
HETATM   33  C   UNK N   1      36.879  12.788  14.466  0.00  0.00     0.007 C 
BRANCH  33  34
HETATM   34  C   UNK N   1      35.895  11.808  15.083  0.00  0.00     0.038 C 
BRANCH  34  35
HETATM   35  C   UNK N   1      35.642  12.105  16.528  0.00  0.00    -0.058 A 
HETATM   36  C   UNK N   1      35.659  11.062  17.460  0.00  0.00     0.007 A 
HETATM   37  C   UNK N   1      35.443  11.330  18.815  0.00  0.00     0.001 A 
HETATM   38  C   UNK N   1      35.207  12.641  19.241  0.00  0.00     0.000 A 
HETATM   39  C   UNK N   1      35.185  13.685  18.311  0.00  0.00     0.001 A 
HETATM   40  C   UNK N   1      35.407  13.419  16.956  0.00  0.00     0.007 A 
ENDBRANCH  34  35
ENDBRANCH  33  34
ENDBRANCH  32  33
ENDBRANCH  31  32
ENDBRANCH  30  31
ENDBRANCH  27  30
ENDBRANCH   1  24
TORSDOF 9
ENDMDL
