MODEL 1
REMARK VINA RESULT:      -7.2      0.000      0.000
REMARK  2 active torsions:
REMARK  status: ('A' for Active; 'I' for Inactive)
REMARK    1  A    between atoms: C_6  and  O_1 
REMARK    2  A    between atoms: O_2  and  C_20 
ROOT
HETATM    1  C   UNK N   1      27.125  26.252  -4.248  0.00  0.00     0.003 C 
HETATM    2  C   UNK N   1      26.979  26.752  -5.734  0.00  0.00     0.002 C 
HETATM    3  C   UNK N   1      26.047  25.844  -6.552  0.00  0.00    -0.001 C 
HETATM    4  C   UNK N   1      26.614  27.438  -3.419  0.00  0.00     0.128 C 
HETATM    5  C   UNK N   1      26.218  25.030  -3.941  0.00  0.00     0.014 C 
HETATM    6  C   UNK N   1      26.356  28.132  -5.656  0.00  0.00     0.010 C 
HETATM    7  C   UNK N   1      26.274  23.905  -4.969  0.00  0.00     0.010 C 
HETATM    8  C   UNK N   1      25.597  28.095  -4.342  0.00  0.00     0.052 C 
HETATM    9  C   UNK N   1      25.892  26.337  -8.009  0.00  0.00     0.010 C 
HETATM   10  C   UNK N   1      28.565  25.829  -3.922  0.00  0.00     0.020 C 
HETATM   11  C   UNK N   1      26.235  23.507  -7.448  0.00  0.00    -0.047 A 
HETATM   12  C   UNK N   1      26.522  25.420  -9.047  0.00  0.00     0.039 C 
HETATM   13  C   UNK N   1      26.188  23.987  -8.765  0.00  0.00    -0.049 A 
HETATM   14  C   UNK N   1      27.638  28.440  -3.080  0.00  0.00    -0.078 C 
HETATM   15  C   UNK N   1      26.027  22.157  -7.177  0.00  0.00     0.011 A 
HETATM   16  C   UNK N   1      25.900  23.108  -9.807  0.00  0.00     0.044 A 
HETATM   17  C   UNK N   1      25.776  21.280  -8.213  0.00  0.00     0.037 A 
HETATM   18  C   UNK N   1      25.711  21.747  -9.535  0.00  0.00     0.068 A 
HETATM   19  C   UNK N   1      28.451  29.280  -2.796  0.00  0.00     0.015 C 
HETATM   20  C   UNK N   1      26.630  24.428  -6.365  0.00  0.00     0.023 C 
ENDROOT
BRANCH   4  21
HETATM   21  O   UNK N   1      26.003  27.032  -2.219  0.00  0.00    -0.377 OA
HETATM   22  H   UNK N   1      26.358  26.462  -1.518  0.00  0.00     0.211 HD
ENDBRANCH   4  21
BRANCH  18  23
HETATM   23  O   UNK N   1      25.528  20.889 -10.557  0.00  0.00    -0.356 OA
HETATM   24  C   UNK N   1      26.250  20.986 -11.725  0.00  0.00     0.210 C 
ENDBRANCH  18  23
TORSDOF 2
ENDMDL
MODEL 2
REMARK VINA RESULT:      -7.2     11.606     13.805
REMARK  2 active torsions:
REMARK  status: ('A' for Active; 'I' for Inactive)
REMARK    1  A    between atoms: C_6  and  O_1 
REMARK    2  A    between atoms: O_2  and  C_20 
ROOT
HETATM    1  C   UNK N   1      27.961  18.532   5.453  0.00  0.00     0.003 C 
HETATM    2  C   UNK N   1      26.819  17.472   5.679  0.00  0.00     0.002 C 
HETATM    3  C   UNK N   1      25.767  17.520   4.559  0.00  0.00    -0.001 C 
HETATM    4  C   UNK N   1      29.232  17.677   5.364  0.00  0.00     0.128 C 
HETATM    5  C   UNK N   1      27.806  19.295   4.110  0.00  0.00     0.014 C 
HETATM    6  C   UNK N   1      27.491  16.113   5.647  0.00  0.00     0.010 C 
HETATM    7  C   UNK N   1      26.408  19.837   3.828  0.00  0.00     0.010 C 
HETATM    8  C   UNK N   1      28.724  16.358   4.797  0.00  0.00     0.052 C 
HETATM    9  C   UNK N   1      24.648  16.473   4.772  0.00  0.00     0.010 C 
HETATM   10  C   UNK N   1      27.990  19.592   6.564  0.00  0.00     0.020 C 
HETATM   11  C   UNK N   1      23.989  19.167   3.906  0.00  0.00    -0.047 A 
HETATM   12  C   UNK N   1      23.288  17.072   5.098  0.00  0.00     0.039 C 
HETATM   13  C   UNK N   1      22.986  18.231   4.197  0.00  0.00    -0.049 A 
HETATM   14  C   UNK N   1      29.878  17.399   6.658  0.00  0.00    -0.078 C 
HETATM   15  C   UNK N   1      23.703  20.303   3.154  0.00  0.00     0.011 A 
HETATM   16  C   UNK N   1      21.699  18.426   3.700  0.00  0.00     0.044 A 
HETATM   17  C   UNK N   1      22.419  20.514   2.692  0.00  0.00     0.037 A 
HETATM   18  C   UNK N   1      21.408  19.579   2.961  0.00  0.00     0.068 A 
HETATM   19  C   UNK N   1      30.424  17.147   7.700  0.00  0.00     0.015 C 
HETATM   20  C   UNK N   1      25.324  18.996   4.512  0.00  0.00     0.023 C 
ENDROOT
BRANCH   4  21
HETATM   21  O   UNK N   1      30.202  18.240   4.516  0.00  0.00    -0.377 OA
HETATM   22  H   UNK N   1      30.627  19.110   4.572  0.00  0.00     0.211 HD
ENDBRANCH   4  21
BRANCH  18  23
HETATM   23  O   UNK N   1      20.140  19.807   2.567  0.00  0.00    -0.356 OA
HETATM   24  C   UNK N   1      19.155  18.854   2.698  0.00  0.00     0.210 C 
ENDBRANCH  18  23
TORSDOF 2
ENDMDL
MODEL 3
REMARK VINA RESULT:      -7.2     15.892     18.245
REMARK  2 active torsions:
REMARK  status: ('A' for Active; 'I' for Inactive)
REMARK    1  A    between atoms: C_6  and  O_1 
REMARK    2  A    between atoms: O_2  and  C_20 
ROOT
HETATM    1  C   UNK N   1      20.906  16.959   5.555  0.00  0.00     0.003 C 
HETATM    2  C   UNK N   1      22.274  16.184   5.478  0.00  0.00     0.002 C 
HETATM    3  C   UNK N   1      22.198  14.820   6.182  0.00  0.00    -0.001 C 
HETATM    4  C   UNK N   1      20.523  17.158   4.082  0.00  0.00     0.128 C 
HETATM    5  C   UNK N   1      19.786  16.120   6.228  0.00  0.00     0.014 C 
HETATM    6  C   UNK N   1      22.545  15.949   4.005  0.00  0.00     0.010 C 
HETATM    7  C   UNK N   1      20.178  15.447   7.540  0.00  0.00     0.010 C 
HETATM    8  C   UNK N   1      21.156  15.956   3.393  0.00  0.00     0.052 C 
HETATM    9  C   UNK N   1      23.537  14.051   6.100  0.00  0.00     0.010 C 
HETATM   10  C   UNK N   1      21.026  18.263   6.357  0.00  0.00     0.020 C 
HETATM   11  C   UNK N   1      22.025  14.102   8.581  0.00  0.00    -0.047 A 
HETATM   12  C   UNK N   1      24.250  13.897   7.436  0.00  0.00     0.039 C 
HETATM   13  C   UNK N   1      23.287  13.493   8.510  0.00  0.00    -0.049 A 
HETATM   14  C   UNK N   1      21.068  18.379   3.465  0.00  0.00    -0.078 C 
HETATM   15  C   UNK N   1      21.156  13.814   9.629  0.00  0.00     0.011 A 
HETATM   16  C   UNK N   1      23.658  12.567   9.483  0.00  0.00     0.044 A 
HETATM   17  C   UNK N   1      21.539  12.922  10.612  0.00  0.00     0.037 A 
HETATM   18  C   UNK N   1      22.791  12.292  10.547  0.00  0.00     0.068 A 
HETATM   19  C   UNK N   1      21.506  19.362   2.929  0.00  0.00     0.015 C 
HETATM   20  C   UNK N   1      21.680  15.147   7.597  0.00  0.00     0.023 C 
ENDROOT
BRANCH   4  21
HETATM   21  O   UNK N   1      19.131  17.166   3.884  0.00  0.00    -0.377 OA
HETATM   22  H   UNK N   1      18.488  16.460   4.056  0.00  0.00     0.211 HD
ENDBRANCH   4  21
BRANCH  18  23
HETATM   23  O   UNK N   1      23.197  11.469  11.534  0.00  0.00    -0.356 OA
HETATM   24  C   UNK N   1      23.197  11.861  12.853  0.00  0.00     0.210 C 
ENDBRANCH  18  23
TORSDOF 2
ENDMDL
MODEL 4
REMARK VINA RESULT:      -7.2      5.064      6.440
REMARK  2 active torsions:
REMARK  status: ('A' for Active; 'I' for Inactive)
REMARK    1  A    between atoms: C_6  and  O_1 
REMARK    2  A    between atoms: O_2  and  C_20 
ROOT
HETATM    1  C   UNK N   1      28.425  24.673  -4.476  0.00  0.00     0.003 C 
HETATM    2  C   UNK N   1      28.742  23.698  -5.670  0.00  0.00     0.002 C 
HETATM    3  C   UNK N   1      29.384  22.389  -5.182  0.00  0.00    -0.001 C 
HETATM    4  C   UNK N   1      26.906  24.871  -4.569  0.00  0.00     0.128 C 
HETATM    5  C   UNK N   1      28.738  24.041  -3.093  0.00  0.00     0.014 C 
HETATM    6  C   UNK N   1      27.409  23.368  -6.313  0.00  0.00     0.010 C 
HETATM    7  C   UNK N   1      30.102  23.367  -2.981  0.00  0.00     0.010 C 
HETATM    8  C   UNK N   1      26.421  23.562  -5.177  0.00  0.00     0.052 C 
HETATM    9  C   UNK N   1      29.689  21.424  -6.351  0.00  0.00     0.010 C 
HETATM   10  C   UNK N   1      29.236  25.974  -4.563  0.00  0.00     0.020 C 
HETATM   11  C   UNK N   1      31.625  21.799  -4.217  0.00  0.00    -0.047 A 
HETATM   12  C   UNK N   1      31.173  21.215  -6.616  0.00  0.00     0.039 C 
HETATM   13  C   UNK N   1      31.918  21.003  -5.334  0.00  0.00    -0.049 A 
HETATM   14  C   UNK N   1      26.481  25.970  -5.452  0.00  0.00    -0.078 C 
HETATM   15  C   UNK N   1      32.374  21.687  -3.049  0.00  0.00     0.011 A 
HETATM   16  C   UNK N   1      32.950  20.070  -5.260  0.00  0.00     0.044 A 
HETATM   17  C   UNK N   1      33.419  20.786  -2.988  0.00  0.00     0.037 A 
HETATM   18  C   UNK N   1      33.716  19.972  -4.091  0.00  0.00     0.068 A 
HETATM   19  C   UNK N   1      26.103  26.855  -6.175  0.00  0.00     0.015 C 
HETATM   20  C   UNK N   1      30.591  22.846  -4.337  0.00  0.00     0.023 C 
ENDROOT
BRANCH   4  21
HETATM   21  O   UNK N   1      26.312  25.083  -3.312  0.00  0.00    -0.377 OA
HETATM   22  H   UNK N   1      26.558  25.720  -2.623  0.00  0.00     0.211 HD
ENDBRANCH   4  21
BRANCH  18  23
HETATM   23  O   UNK N   1      34.771  19.135  -4.062  0.00  0.00    -0.356 OA
HETATM   24  C   UNK N   1      34.663  17.815  -4.436  0.00  0.00     0.210 C 
ENDBRANCH  18  23
TORSDOF 2
ENDMDL
MODEL 5
REMARK VINA RESULT:      -7.1     14.037     16.264
REMARK  2 active torsions:
REMARK  status: ('A' for Active; 'I' for Inactive)
REMARK    1  A    between atoms: C_6  and  O_1 
REMARK    2  A    between atoms: O_2  and  C_20 
ROOT
HETATM    1  C   UNK N   1      32.534  16.417   8.181  0.00  0.00     0.003 C 
HETATM    2  C   UNK N   1      32.545  16.324   6.610  0.00  0.00     0.002 C 
HETATM    3  C   UNK N   1      31.601  17.356   5.971  0.00  0.00    -0.001 C 
HETATM    4  C   UNK N   1      33.995  16.730   8.532  0.00  0.00     0.128 C 
HETATM    5  C   UNK N   1      31.658  17.588   8.701  0.00  0.00     0.014 C 
HETATM    6  C   UNK N   1      33.963  16.639   6.177  0.00  0.00     0.010 C 
HETATM    7  C   UNK N   1      30.270  17.689   8.077  0.00  0.00     0.010 C 
HETATM    8  C   UNK N   1      34.488  17.498   7.313  0.00  0.00     0.052 C 
HETATM    9  C   UNK N   1      31.616  17.275   4.427  0.00  0.00     0.010 C 
HETATM   10  C   UNK N   1      31.990  15.135   8.831  0.00  0.00     0.020 C 
HETATM   11  C   UNK N   1      29.106  17.600   5.854  0.00  0.00    -0.047 A 
HETATM   12  C   UNK N   1      30.316  16.771   3.817  0.00  0.00     0.039 C 
HETATM   13  C   UNK N   1      29.134  17.428   4.462  0.00  0.00    -0.049 A 
HETATM   14  C   UNK N   1      34.853  15.546   8.705  0.00  0.00    -0.078 C 
HETATM   15  C   UNK N   1      27.976  18.116   6.482  0.00  0.00     0.011 A 
HETATM   16  C   UNK N   1      28.032  17.809   3.700  0.00  0.00     0.044 A 
HETATM   17  C   UNK N   1      26.870  18.460   5.730  0.00  0.00     0.037 A 
HETATM   18  C   UNK N   1      26.888  18.310   4.335  0.00  0.00     0.068 A 
HETATM   19  C   UNK N   1      35.582  14.599   8.842  0.00  0.00     0.015 C 
HETATM   20  C   UNK N   1      30.242  17.110   6.658  0.00  0.00     0.023 C 
ENDROOT
BRANCH   4  21
HETATM   21  O   UNK N   1      34.114  17.514   9.693  0.00  0.00    -0.377 OA
HETATM   22  H   UNK N   1      33.465  17.656  10.400  0.00  0.00     0.211 HD
ENDBRANCH   4  21
BRANCH  18  23
HETATM   23  O   UNK N   1      25.793  18.585   3.601  0.00  0.00    -0.356 OA
HETATM   24  C   UNK N   1      25.524  19.856   3.144  0.00  0.00     0.210 C 
ENDBRANCH  18  23
TORSDOF 2
ENDMDL
MODEL 6
REMARK VINA RESULT:      -7.0     13.664     16.232
REMARK  2 active torsions:
REMARK  status: ('A' for Active; 'I' for Inactive)
REMARK    1  A    between atoms: C_6  and  O_1 
REMARK    2  A    between atoms: O_2  and  C_20 
ROOT
HETATM    1  C   UNK N   1      27.680  18.270   5.849  0.00  0.00     0.003 C 
HETATM    2  C   UNK N   1      28.881  18.118   4.843  0.00  0.00     0.002 C 
HETATM    3  C   UNK N   1      29.890  17.059   5.315  0.00  0.00    -0.001 C 
HETATM    4  C   UNK N   1      26.452  17.927   4.996  0.00  0.00     0.128 C 
HETATM    5  C   UNK N   1      27.749  17.247   7.015  0.00  0.00     0.014 C 
HETATM    6  C   UNK N   1      28.278  17.655   3.531  0.00  0.00     0.010 C 
HETATM    7  C   UNK N   1      29.107  17.136   7.702  0.00  0.00     0.010 C 
HETATM    8  C   UNK N   1      27.005  16.952   3.966  0.00  0.00     0.052 C 
HETATM    9  C   UNK N   1      31.066  16.899   4.324  0.00  0.00     0.010 C 
HETATM   10  C   UNK N   1      27.635  19.666   6.487  0.00  0.00     0.020 C 
HETATM   11  C   UNK N   1      31.557  16.950   7.188  0.00  0.00    -0.047 A 
HETATM   12  C   UNK N   1      32.405  17.380   4.865  0.00  0.00     0.039 C 
HETATM   13  C   UNK N   1      32.616  16.903   6.269  0.00  0.00    -0.049 A 
HETATM   14  C   UNK N   1      25.865  19.070   4.275  0.00  0.00    -0.078 C 
HETATM   15  C   UNK N   1      31.759  16.606   8.521  0.00  0.00     0.011 A 
HETATM   16  C   UNK N   1      33.874  16.476   6.691  0.00  0.00     0.044 A 
HETATM   17  C   UNK N   1      33.014  16.217   8.947  0.00  0.00     0.037 A 
HETATM   18  C   UNK N   1      34.080  16.149   8.037  0.00  0.00     0.068 A 
HETATM   19  C   UNK N   1      25.370  19.981   3.665  0.00  0.00     0.015 C 
HETATM   20  C   UNK N   1      30.255  17.489   6.750  0.00  0.00     0.023 C 
ENDROOT
BRANCH   4  21
HETATM   21  O   UNK N   1      25.425  17.326   5.745  0.00  0.00    -0.377 OA
HETATM   22  H   UNK N   1      24.702  17.749   6.235  0.00  0.00     0.211 HD
ENDBRANCH   4  21
BRANCH  18  23
HETATM   23  O   UNK N   1      35.320  15.830   8.456  0.00  0.00    -0.356 OA
HETATM   24  C   UNK N   1      35.571  15.437   9.751  0.00  0.00     0.210 C 
ENDBRANCH  18  23
TORSDOF 2
ENDMDL
MODEL 7
REMARK VINA RESULT:      -6.7     25.591     28.210
REMARK  2 active torsions:
REMARK  status: ('A' for Active; 'I' for Inactive)
REMARK    1  A    between atoms: C_6  and  O_1 
REMARK    2  A    between atoms: O_2  and  C_20 
ROOT
HETATM    1  C   UNK N   1      35.480  11.285  13.032  0.00  0.00     0.003 C 
HETATM    2  C   UNK N   1      35.273  12.500  14.011  0.00  0.00     0.002 C 
HETATM    3  C   UNK N   1      36.002  12.286  15.347  0.00  0.00    -0.001 C 
HETATM    4  C   UNK N   1      36.154  11.921  11.809  0.00  0.00     0.128 C 
HETATM    5  C   UNK N   1      36.448  10.217  13.607  0.00  0.00     0.014 C 
HETATM    6  C   UNK N   1      35.880  13.706  13.322  0.00  0.00     0.010 C 
HETATM    7  C   UNK N   1      36.170   9.796  15.047  0.00  0.00     0.010 C 
HETATM    8  C   UNK N   1      36.922  13.093  12.405  0.00  0.00     0.052 C 
HETATM    9  C   UNK N   1      35.810  13.482  16.308  0.00  0.00     0.010 C 
HETATM   10  C   UNK N   1      34.160  10.565  12.720  0.00  0.00     0.020 C 
HETATM   11  C   UNK N   1      35.641  10.757  17.305  0.00  0.00    -0.047 A 
HETATM   12  C   UNK N   1      34.968  13.165  17.536  0.00  0.00     0.039 C 
HETATM   13  C   UNK N   1      35.376  11.855  18.138  0.00  0.00    -0.049 A 
HETATM   14  C   UNK N   1      35.223  12.451  10.798  0.00  0.00    -0.078 C 
HETATM   15  C   UNK N   1      35.922   9.507  17.848  0.00  0.00     0.011 A 
HETATM   16  C   UNK N   1      35.426  11.695  19.521  0.00  0.00     0.044 A 
HETATM   17  C   UNK N   1      35.938   9.341  19.219  0.00  0.00     0.037 A 
HETATM   18  C   UNK N   1      35.690  10.432  20.066  0.00  0.00     0.068 A 
HETATM   19  C   UNK N   1      34.488  12.902   9.960  0.00  0.00     0.015 C 
HETATM   20  C   UNK N   1      35.495  10.917  15.845  0.00  0.00     0.023 C 
ENDROOT
BRANCH   4  21
HETATM   21  O   UNK N   1      37.030  11.035  11.155  0.00  0.00    -0.377 OA
HETATM   22  H   UNK N   1      36.839  10.407  10.442  0.00  0.00     0.211 HD
ENDBRANCH   4  21
BRANCH  18  23
HETATM   23  O   UNK N   1      35.642  10.267  21.402  0.00  0.00    -0.356 OA
HETATM   24  C   UNK N   1      35.754   9.024  21.984  0.00  0.00     0.210 C 
ENDBRANCH  18  23
TORSDOF 2
ENDMDL
MODEL 8
REMARK VINA RESULT:      -6.7     26.624     29.210
REMARK  2 active torsions:
REMARK  status: ('A' for Active; 'I' for Inactive)
REMARK    1  A    between atoms: C_6  and  O_1 
REMARK    2  A    between atoms: O_2  and  C_20 
ROOT
HETATM    1  C   UNK N   1      36.027  12.592  14.573  0.00  0.00     0.003 C 
HETATM    2  C   UNK N   1      36.623  11.150  14.781  0.00  0.00     0.002 C 
HETATM    3  C   UNK N   1      35.896  10.389  15.903  0.00  0.00    -0.001 C 
HETATM    4  C   UNK N   1      35.553  12.576  13.114  0.00  0.00     0.128 C 
HETATM    5  C   UNK N   1      34.791  12.860  15.473  0.00  0.00     0.014 C 
HETATM    6  C   UNK N   1      36.401  10.408  13.478  0.00  0.00     0.010 C 
HETATM    7  C   UNK N   1      34.961  12.479  16.941  0.00  0.00     0.010 C 
HETATM    8  C   UNK N   1      35.198  11.114  12.879  0.00  0.00     0.052 C 
HETATM    9  C   UNK N   1      36.471   8.968  16.104  0.00  0.00     0.010 C 
HETATM   10  C   UNK N   1      37.053  13.690  14.891  0.00  0.00     0.020 C 
HETATM   11  C   UNK N   1      35.816  10.624  18.401  0.00  0.00    -0.047 A 
HETATM   12  C   UNK N   1      37.204   8.774  17.424  0.00  0.00     0.039 C 
HETATM   13  C   UNK N   1      36.427   9.370  18.558  0.00  0.00    -0.049 A 
HETATM   14  C   UNK N   1      36.577  12.963  12.129  0.00  0.00    -0.078 C 
HETATM   15  C   UNK N   1      35.175  11.240  19.472  0.00  0.00     0.011 A 
HETATM   16  C   UNK N   1      36.363   8.725  19.791  0.00  0.00     0.044 A 
HETATM   17  C   UNK N   1      35.143  10.615  20.703  0.00  0.00     0.037 A 
HETATM   18  C   UNK N   1      35.736   9.355  20.873  0.00  0.00     0.068 A 
HETATM   19  C   UNK N   1      37.395  13.264  11.300  0.00  0.00     0.015 C 
HETATM   20  C   UNK N   1      35.968  11.337  17.117  0.00  0.00     0.023 C 
ENDROOT
BRANCH   4  21
HETATM   21  O   UNK N   1      34.430  13.397  12.904  0.00  0.00    -0.377 OA
HETATM   22  H   UNK N   1      33.523  13.141  12.676  0.00  0.00     0.211 HD
ENDBRANCH   4  21
BRANCH  18  23
HETATM   23  O   UNK N   1      35.762   8.767  22.085  0.00  0.00    -0.356 OA
HETATM   24  C   UNK N   1      34.626   8.624  22.848  0.00  0.00     0.210 C 
ENDBRANCH  18  23
TORSDOF 2
ENDMDL
MODEL 9
REMARK VINA RESULT:      -6.7      5.520      7.728
REMARK  2 active torsions:
REMARK  status: ('A' for Active; 'I' for Inactive)
REMARK    1  A    between atoms: C_6  and  O_1 
REMARK    2  A    between atoms: O_2  and  C_20 
ROOT
HETATM    1  C   UNK N   1      33.069  21.305  -5.387  0.00  0.00     0.003 C 
HETATM    2  C   UNK N   1      32.502  22.034  -4.112  0.00  0.00     0.002 C 
HETATM    3  C   UNK N   1      30.971  21.929  -4.028  0.00  0.00    -0.001 C 
HETATM    4  C   UNK N   1      34.009  20.241  -4.803  0.00  0.00     0.128 C 
HETATM    5  C   UNK N   1      31.962  20.571  -6.192  0.00  0.00     0.014 C 
HETATM    6  C   UNK N   1      33.098  21.319  -2.916  0.00  0.00     0.010 C 
HETATM    7  C   UNK N   1      30.707  21.393  -6.469  0.00  0.00     0.010 C 
HETATM    8  C   UNK N   1      33.382  19.927  -3.451  0.00  0.00     0.052 C 
HETATM    9  C   UNK N   1      30.411  22.636  -2.772  0.00  0.00     0.010 C 
HETATM   10  C   UNK N   1      33.748  22.283  -6.357  0.00  0.00     0.020 C 
HETATM   11  C   UNK N   1      29.080  22.933  -5.338  0.00  0.00    -0.047 A 
HETATM   12  C   UNK N   1      29.593  23.884  -3.072  0.00  0.00     0.039 C 
HETATM   13  C   UNK N   1      28.646  23.641  -4.206  0.00  0.00    -0.049 A 
HETATM   14  C   UNK N   1      35.389  20.700  -4.572  0.00  0.00    -0.078 C 
HETATM   15  C   UNK N   1      28.247  22.784  -6.443  0.00  0.00     0.011 A 
HETATM   16  C   UNK N   1      27.357  24.170  -4.180  0.00  0.00     0.044 A 
HETATM   17  C   UNK N   1      26.982  23.339  -6.430  0.00  0.00     0.037 A 
HETATM   18  C   UNK N   1      26.528  24.036  -5.300  0.00  0.00     0.068 A 
HETATM   19  C   UNK N   1      36.521  21.048  -4.363  0.00  0.00     0.015 C 
HETATM   20  C   UNK N   1      30.475  22.456  -5.390  0.00  0.00     0.023 C 
ENDROOT
BRANCH   4  21
HETATM   21  O   UNK N   1      34.074  19.084  -5.600  0.00  0.00    -0.377 OA
HETATM   22  H   UNK N   1      34.733  18.372  -5.585  0.00  0.00     0.211 HD
ENDBRANCH   4  21
BRANCH  18  23
HETATM   23  O   UNK N   1      25.320  24.633  -5.302  0.00  0.00    -0.356 OA
HETATM   24  C   UNK N   1      25.165  25.957  -5.645  0.00  0.00     0.210 C 
ENDBRANCH  18  23
TORSDOF 2
ENDMDL
