REMARK  7 active torsions:
REMARK  status: ('A' for Active; 'I' for Inactive)
REMARK    1  A    between atoms: C_1  and  O_14 
REMARK    2  A    between atoms: C_4  and  O_3 
REMARK    3  A    between atoms: C_18  and  O_19 
REMARK    4  A    between atoms: O_19  and  C_34 
REMARK    5  A    between atoms: C_23  and  O_31 
REMARK    6  A    between atoms: C_27  and  O_32 
REMARK    7  A    between atoms: C_37  and  O_38 
ROOT
HETATM    1  C   UNK N   1      19.407  -5.715   0.446  0.00  0.00     0.130 C 
HETATM    2  C   UNK N   1      18.845  -5.880  -1.002  0.00  0.00     0.041 C 
HETATM    3  C   UNK N   1      21.888  -4.538   0.686  0.00  0.00     0.131 C 
HETATM    4  C   UNK N   1      20.337  -4.495   0.678  0.00  0.00     0.040 C 
HETATM    5  C   UNK N   1      24.011  -4.014  -0.584  0.00  0.00    -0.020 C 
HETATM    6  C   UNK N   1      22.660  -4.687  -0.643  0.00  0.00     0.033 C 
HETATM    7  C   UNK N   1      25.093  -7.336  -0.794  0.00  0.00     0.251 C 
HETATM    8  C   UNK N   1      25.352  -6.835   0.591  0.00  0.00     0.006 C 
HETATM    9  C   UNK N   1      25.382  -5.533   0.937  0.00  0.00     0.012 C 
HETATM   10  C   UNK N   1      25.129  -4.349   0.085  0.00  0.00    -0.003 C 
HETATM   11  C   UNK N   1      21.936  -3.959  -1.762  0.00  0.00     0.017 C 
HETATM   12  C   UNK N   1      19.752  -3.151   0.279  0.00  0.00     0.015 C 
HETATM   13  C   UNK N   1      25.705  -7.821   1.656  0.00  0.00     0.054 C 
HETATM   14  O   UNK N   1      25.028  -6.555  -1.729  0.00  0.00    -0.268 OA
HETATM   15  N   UNK N   1      24.942  -8.664  -1.047  0.00  0.00    -0.319 N 
HETATM   16  C   UNK N   1      17.668  -6.891  -1.236  0.00  0.00     0.144 C 
HETATM   17  C   UNK N   1      17.722  -8.250  -0.517  0.00  0.00     0.044 C 
HETATM   18  C   UNK N   1      23.851  -9.457  -0.571  0.00  0.00     0.099 C 
HETATM   19  C   UNK N   1      23.882 -10.851  -0.660  0.00  0.00     0.098 A 
HETATM   20  C   UNK N   1      22.687  -8.887  -0.002  0.00  0.00     0.108 C 
HETATM   21  C   UNK N   1      21.615  -9.711   0.435  0.00  0.00     0.047 C 
HETATM   22  C   UNK N   1      21.604 -11.102   0.106  0.00  0.00     0.026 C 
HETATM   23  C   UNK N   1      22.785 -11.639  -0.410  0.00  0.00     0.076 A 
HETATM   24  C   UNK N   1      20.579  -9.190   1.259  0.00  0.00     0.088 C 
HETATM   25  C   UNK N   1      19.558 -10.031   1.716  0.00  0.00     0.007 C 
HETATM   26  C   UNK N   1      19.482 -11.311   1.212  0.00  0.00     0.096 C 
HETATM   27  C   UNK N   1      20.446 -11.839   0.414  0.00  0.00     0.063 C 
HETATM   28  C   UNK N   1      19.979  -6.294  -1.918  0.00  0.00     0.015 C 
HETATM   29  C   UNK N   1      17.049  -9.435  -1.275  0.00  0.00     0.151 C 
HETATM   30  C   UNK N   1      17.612 -10.801  -0.898  0.00  0.00     0.029 C 
HETATM   31  C   UNK N   1      17.123  -8.080   0.864  0.00  0.00     0.015 C 
HETATM   32  C   UNK N   1      16.964 -11.986  -0.891  0.00  0.00     0.137 C 
HETATM   33  O   UNK N   1      17.557 -13.152  -0.446  0.00  0.00    -0.319 OA
HETATM   34  O   UNK N   1      18.444 -12.144   1.400  0.00  0.00    -0.305 OA
HETATM   35  C   UNK N   1      18.523 -13.251   0.565  0.00  0.00     0.237 C 
HETATM   36  C   UNK N   1      19.934 -13.131   0.017  0.00  0.00     0.225 C 
HETATM   37  C   UNK N   1      18.346 -14.525   1.370  0.00  0.00     0.089 C 
HETATM   38  C   UNK N   1      18.550  -9.568   2.711  0.00  0.00     0.054 C 
HETATM   39  N   UNK N   1      23.129 -12.948  -0.482  0.00  0.00    -0.339 N 
ATOM     40  HN  UNK N   1      22.527 -13.766  -0.390  1.00  0.00     0.167 HD
HETATM   41  C   UNK N   1      24.464 -12.908  -0.705  0.00  0.00     0.113 A 
HETATM   42  N   UNK N   1      24.940 -11.652  -0.848  0.00  0.00    -0.304 N 
HETATM   43  O   UNK N   1      20.461 -13.908  -0.764  0.00  0.00    -0.286 OA
HETATM   44  C   UNK N   1      25.336 -13.990  -0.601  0.00  0.00     0.056 A 
HETATM   45  C   UNK N   1      26.715 -13.721  -0.650  0.00  0.00    -0.057 A 
HETATM   46  C   UNK N   1      27.179 -12.403  -0.840  0.00  0.00     0.024 A 
HETATM   47  C   UNK N   1      26.256 -11.354  -0.943  0.00  0.00     0.099 A 
HETATM   48  C   UNK N   1      27.692 -14.819  -0.426  0.00  0.00     0.048 C 
HETATM   49  H   UNK N   1      25.629  -9.109  -1.594  0.00  0.00     0.169 HD
ENDROOT
BRANCH  16  50
HETATM   50  O   UNK N   1      16.373  -6.387  -1.251  0.00  0.00    -0.315 OA
BRANCH  50  51
HETATM   51  C   UNK N   1      15.846  -5.507  -0.363  0.00  0.00     0.255 C 
HETATM   52  C   UNK N   1      14.481  -5.753   0.182  0.00  0.00     0.126 C 
HETATM   53  O   UNK N   1      16.462  -4.512  -0.019  0.00  0.00    -0.266 OA
ENDBRANCH  50  51
ENDBRANCH  16  50
BRANCH   1  54
HETATM   54  O   UNK N   1      18.373  -5.619   1.376  0.00  0.00    -0.395 OA
HETATM   55  H   UNK N   1      18.071  -4.962   2.022  0.00  0.00     0.210 HD
ENDBRANCH   1  54
BRANCH  29  56
HETATM   56  O   UNK N   1      15.643  -9.356  -1.448  0.00  0.00    -0.386 OA
HETATM   57  C   UNK N   1      14.996  -9.688  -0.245  0.00  0.00     0.202 C 
ENDBRANCH  29  56
BRANCH   3  58
HETATM   58  O   UNK N   1      22.363  -5.419   1.658  0.00  0.00    -0.394 OA
HETATM   59  H   UNK N   1      21.997  -6.011   2.334  0.00  0.00     0.210 HD
ENDBRANCH   3  58
BRANCH  24  60
HETATM   60  O   UNK N   1      20.610  -7.917   1.681  0.00  0.00    -0.359 OA
HETATM   61  H   UNK N   1      21.391  -7.491   1.976  0.00  0.00     0.217 HD
ENDBRANCH  24  60
BRANCH  20  62
HETATM   62  O   UNK N   1      22.602  -7.561   0.150  0.00  0.00    -0.357 OA
HETATM   63  H   UNK N   1      23.376  -7.045   0.257  0.00  0.00     0.217 HD
ENDBRANCH  20  62
TORSDOF 7
