REMARK  9 active torsions:
REMARK  status: ('A' for Active; 'I' for Inactive)
REMARK    1  A    between atoms: C_3  and  C_21 
REMARK    2  A    between atoms: C_7  and  N_9 
REMARK       I    between atoms: N_9  and  C_10 
REMARK    3  A    between atoms: C_10  and  C_13 
REMARK    4  A    between atoms: C_13  and  C_14 
REMARK    5  A    between atoms: C_17  and  N_24 
REMARK    6  A    between atoms: C_20  and  C_25 
REMARK    7  A    between atoms: C_21  and  O_23 
REMARK    8  A    between atoms: C_25  and  C_26 
REMARK    9  A    between atoms: C_26  and  O_28 
ROOT
HETATM    1  N   UNK N   1      22.348 -11.240  -0.280  0.00  0.00    -0.341 N 
HETATM    2  C   UNK N   1      21.095 -11.761  -0.280  0.00  0.00     0.254 C 
HETATM    3  O   UNK N   1      20.915 -12.908  -0.664  0.00  0.00    -0.268 OA
HETATM    4  H   UNK N   1      22.486 -10.385   0.187  0.00  0.00     0.163 HD
ENDROOT
BRANCH   2   5
HETATM    5  C   UNK N   1      19.914 -10.905   0.100  0.00  0.00     0.056 C 
HETATM    6  C   UNK N   1      20.038  -9.576   0.345  0.00  0.00     0.003 C 
BRANCH   5   7
HETATM    7  C   UNK N   1      18.544 -11.497   0.130  0.00  0.00     0.056 A 
HETATM    8  C   UNK N   1      17.374 -10.719   0.310  0.00  0.00     0.083 A 
HETATM    9  S   UNK N   1      16.121 -11.807   0.256  0.00  0.00    -0.064 SA
HETATM   10  C   UNK N   1      17.014 -13.166   0.028  0.00  0.00     0.142 A 
HETATM   11  N   UNK N   1      18.327 -12.854  -0.026  0.00  0.00    -0.336 N 
ATOM     12  HN  UNK N   1      19.071 -13.538  -0.165  1.00  0.00     0.168 HD
BRANCH  10  13
HETATM   13  N   UNK N   1      16.509 -14.476  -0.086  0.00  0.00    -0.380 N 
HETATM   14  H   UNK N   1      15.539 -14.628  -0.166  0.00  0.00     0.158 HD
HETATM   15  H   UNK N   1      17.127 -15.242  -0.086  0.00  0.00     0.158 HD
ENDBRANCH  10  13
ENDBRANCH   5   7
BRANCH   6  16
HETATM   16  C   UNK N   1      21.335  -8.814   0.313  0.00  0.00     0.138 C 
BRANCH  16  17
HETATM   17  C   UNK N   1      21.174  -7.337   0.125  0.00  0.00     0.142 C 
HETATM   18  O   UNK N   1      22.168  -6.634   0.057  0.00  0.00    -0.650 OA
BRANCH  17  19
HETATM   19  O   UNK N   1      19.953  -6.777   0.021  0.00  0.00    -0.776 OA
HETATM   20  H   UNK N   1      19.866  -5.847  -0.052  0.00  0.00     0.167 HD
ENDBRANCH  17  19
ENDBRANCH  16  17
ENDBRANCH   6  16
ENDBRANCH   2   5
BRANCH   1  21
HETATM   21  C   UNK N   1      23.493 -11.850  -0.918  0.00  0.00     0.210 A 
HETATM   22  C   UNK N   1      24.859 -11.516  -0.116  0.00  0.00     0.187 A 
HETATM   23  N   UNK N   1      24.980 -12.922   0.105  0.00  0.00    -0.294 N 
HETATM   24  S   UNK N   1      26.252 -10.956  -1.142  0.00  0.00    -0.137 SA
HETATM   25  C   UNK N   1      26.170 -13.691   0.325  0.00  0.00     0.109 C 
HETATM   26  C   UNK N   1      23.842 -13.225  -0.452  0.00  0.00     0.251 A 
HETATM   27  C   UNK N   1      27.352 -13.047   0.308  0.00  0.00     0.020 C 
HETATM   28  C   UNK N   1      27.435 -11.552   0.128  0.00  0.00     0.105 C 
HETATM   29  O   UNK N   1      23.459 -14.319  -0.827  0.00  0.00    -0.271 OA
BRANCH  25  30
HETATM   30  C   UNK N   1      26.166 -15.173   0.435  0.00  0.00     0.193 C 
HETATM   31  O   UNK N   1      25.119 -15.792   0.518  0.00  0.00    -0.645 OA
BRANCH  30  32
HETATM   32  O   UNK N   1      27.332 -15.850   0.448  0.00  0.00    -0.772 OA
HETATM   33  H   UNK N   1      27.330 -16.786   0.458  0.00  0.00     0.167 HD
ENDBRANCH  30  32
ENDBRANCH  25  30
ENDBRANCH   1  21
TORSDOF 9
