MODEL 1
REMARK VINA RESULT:      -8.2      0.000      0.000
REMARK  13 active torsions:
REMARK  status: ('A' for Active; 'I' for Inactive)
REMARK    1  A    between atoms: C_35  and  C_3 
REMARK    2  A    between atoms: C_27  and  C_20 
REMARK    3  A    between atoms: O_53  and  C_20 
REMARK    4  A    between atoms: C_37  and  C_22 
REMARK    5  A    between atoms: N_48  and  C_22 
REMARK    6  A    between atoms: C_35  and  C_26 
REMARK    7  A    between atoms: C_26  and  O_51 
REMARK    8  A    between atoms: N_46  and  C_29 
REMARK    9  A    between atoms: N_47  and  C_30 
REMARK   10  A    between atoms: N_49  and  C_31 
REMARK   11  A    between atoms: O_53  and  C_32 
REMARK   12  A    between atoms: C_37  and  C_33 
REMARK   13  A    between atoms: C_35  and  N_50 
ROOT
HETATM    1  C   UNK N   1      32.015  15.643   8.738  0.00  0.00     0.032 A 
HETATM    2  C   UNK N   1      33.483  17.445   8.065  0.00  0.00     0.032 A 
HETATM    3  C   UNK N   1      31.022  16.525   9.016  0.00  0.00     0.039 A 
HETATM    4  C   UNK N   1      32.472  18.346   8.312  0.00  0.00     0.039 A 
HETATM    5  C   UNK N   1      33.243  16.087   8.224  0.00  0.00     0.030 A 
HETATM    6  C   UNK N   1      31.236  17.881   8.785  0.00  0.00     0.068 A 
ENDROOT
BRANCH   5   7
HETATM    7  N   UNK N   1      34.316  15.364   8.638  0.00  0.00    -0.378 N 
HETATM    8  C   UNK N   1      33.893  14.018   8.968  0.00  0.00     0.143 C 
HETATM    9  C   UNK N   1      34.192  13.153   7.746  0.00  0.00     0.143 C 
HETATM   10  N   UNK N   1      35.608  13.310   7.655  0.00  0.00    -0.378 N 
HETATM   11  C   UNK N   1      36.043  14.562   7.087  0.00  0.00     0.143 C 
HETATM   12  C   UNK N   1      35.639  15.652   8.089  0.00  0.00     0.143 C 
BRANCH  10  13
HETATM   13  C   UNK N   1      36.298  12.846   8.800  0.00  0.00     0.029 C 
HETATM   14  C   UNK N   1      36.060  11.562   9.304  0.00  0.00     0.027 C 
HETATM   15  C   UNK N   1      36.762  11.139  10.408  0.00  0.00     0.005 C 
HETATM   16  C   UNK N   1      37.615  12.048  11.007  0.00  0.00     0.141 C 
HETATM   17  C   UNK N   1      38.186  13.057  10.243  0.00  0.00     0.005 C 
HETATM   18  C   UNK N   1      37.454  13.535   9.211  0.00  0.00     0.027 C 
BRANCH  16  19
HETATM   19  N   UNK N   1      37.060  12.555  12.201  0.00  0.00    -0.281 N 
HETATM   20  C   UNK N   1      36.364  13.681  12.371  0.00  0.00     0.205 C 
HETATM   21  N   UNK N   1      35.804  13.669  13.599  0.00  0.00    -0.289 N 
HETATM   22  N   UNK N   1      36.179  12.551  14.201  0.00  0.00    -0.234 N 
ATOM     23  HN  UNK N   1      35.200  14.391  13.993  1.00  0.00     0.188 HD
HETATM   24  C   UNK N   1      37.035  11.925  13.404  0.00  0.00     0.345 C 
HETATM   25  O   UNK N   1      37.622  10.900  13.685  0.00  0.00    -0.245 OA
BRANCH  22  26
HETATM   26  C   UNK N   1      35.445  11.880  15.282  0.00  0.00     0.141 C 
BRANCH  26  27
HETATM   27  C   UNK N   1      34.036  11.458  14.761  0.00  0.00     0.025 C 
HETATM   28  C   UNK N   1      33.971  10.431  13.636  0.00  0.00     0.007 C 
ENDBRANCH  26  27
BRANCH  26  29
HETATM   29  C   UNK N   1      35.144  12.940  16.348  0.00  0.00     0.139 C 
HETATM   30  C   UNK N   1      35.312  12.383  17.749  0.00  0.00     0.041 C 
BRANCH  29  31
HETATM   31  O   UNK N   1      33.851  13.437  16.201  0.00  0.00    -0.394 OA
HETATM   32  H   UNK N   1      33.572  13.819  15.354  0.00  0.00     0.210 HD
ENDBRANCH  29  31
ENDBRANCH  26  29
ENDBRANCH  22  26
ENDBRANCH  16  19
ENDBRANCH  10  13
ENDBRANCH   5   7
BRANCH   6  33
HETATM   33  O   UNK N   1      30.158  18.603   8.503  0.00  0.00    -0.351 OA
BRANCH  33  34
HETATM   34  C   UNK N   1      28.958  17.938   8.744  0.00  0.00     0.182 C 
BRANCH  34  35
HETATM   35  C   UNK N   1      28.183  17.766   7.389  0.00  0.00     0.037 C 
HETATM   36  C   UNK N   1      28.760  18.319   6.133  0.00  0.00     0.054 C 
HETATM   37  C   UNK N   1      28.677  17.123   5.191  0.00  0.00     0.109 C 
HETATM   38  O   UNK N   1      27.882  16.115   5.765  0.00  0.00    -0.373 OA
HETATM   39  C   UNK N   1      28.018  16.286   7.132  0.00  0.00     0.176 C 
BRANCH  37  40
HETATM   40  C   UNK N   1      28.025  17.504   3.829  0.00  0.00     0.193 C 
BRANCH  40  41
HETATM   41  N   UNK N   1      27.028  18.592   3.808  0.00  0.00    -0.284 N 
HETATM   42  C   UNK N   1      25.718  18.567   4.120  0.00  0.00     0.201 A 
HETATM   43  N   UNK N   1      25.184  19.799   3.962  0.00  0.00    -0.346 N 
HETATM   44  C   UNK N   1      26.216  20.562   3.541  0.00  0.00     0.198 A 
ATOM     45  HN  UNK N   1      24.219  20.087   4.124  1.00  0.00     0.167 HD
HETATM   46  N   UNK N   1      27.339  19.825   3.449  0.00  0.00    -0.293 N 
ATOM     47  HN  UNK N   1      28.258  20.156   3.157  1.00  0.00     0.188 HD
ENDBRANCH  40  41
ENDBRANCH  37  40
BRANCH  37  48
HETATM   48  C   UNK N   1      30.116  16.614   5.019  0.00  0.00     0.017 A 
HETATM   49  C   UNK N   1      31.154  17.542   4.864  0.00  0.00     0.016 A 
HETATM   50  C   UNK N   1      32.476  17.114   4.727  0.00  0.00     0.043 A 
HETATM   51  C   UNK N   1      32.781  15.754   4.758  0.00  0.00     0.119 A 
HETATM   52  C   UNK N   1      31.776  14.820   4.914  0.00  0.00     0.085 A 
HETATM   53  F   UNK N   1      34.059  15.334   4.645  0.00  0.00    -0.206 F 
HETATM   54  C   UNK N   1      30.459  15.224   5.034  0.00  0.00     0.128 A 
HETATM   55  F   UNK N   1      29.567  14.239   5.202  0.00  0.00    -0.205 F 
ENDBRANCH  37  48
ENDBRANCH  34  35
ENDBRANCH  33  34
ENDBRANCH   6  33
TORSDOF 13
ENDMDL
MODEL 2
REMARK VINA RESULT:      -8.0      3.131     11.753
REMARK  13 active torsions:
REMARK  status: ('A' for Active; 'I' for Inactive)
REMARK    1  A    between atoms: C_35  and  C_3 
REMARK    2  A    between atoms: C_27  and  C_20 
REMARK    3  A    between atoms: O_53  and  C_20 
REMARK    4  A    between atoms: C_37  and  C_22 
REMARK    5  A    between atoms: N_48  and  C_22 
REMARK    6  A    between atoms: C_35  and  C_26 
REMARK    7  A    between atoms: C_26  and  O_51 
REMARK    8  A    between atoms: N_46  and  C_29 
REMARK    9  A    between atoms: N_47  and  C_30 
REMARK   10  A    between atoms: N_49  and  C_31 
REMARK   11  A    between atoms: O_53  and  C_32 
REMARK   12  A    between atoms: C_37  and  C_33 
REMARK   13  A    between atoms: C_35  and  N_50 
ROOT
HETATM    1  C   UNK N   1      35.022  12.812   9.619  0.00  0.00     0.032 A 
HETATM    2  C   UNK N   1      34.054  14.809  10.584  0.00  0.00     0.032 A 
HETATM    3  C   UNK N   1      35.991  12.796  10.569  0.00  0.00     0.039 A 
HETATM    4  C   UNK N   1      35.012  14.783  11.572  0.00  0.00     0.039 A 
HETATM    5  C   UNK N   1      34.020  13.795   9.636  0.00  0.00     0.030 A 
HETATM    6  C   UNK N   1      35.981  13.769  11.564  0.00  0.00     0.068 A 
ENDROOT
BRANCH   5   7
HETATM    7  N   UNK N   1      33.594  14.180   8.405  0.00  0.00    -0.378 N 
HETATM    8  C   UNK N   1      34.199  15.451   8.060  0.00  0.00     0.143 C 
HETATM    9  C   UNK N   1      35.410  15.135   7.184  0.00  0.00     0.143 C 
HETATM   10  N   UNK N   1      34.774  14.478   6.088  0.00  0.00    -0.378 N 
HETATM   11  C   UNK N   1      34.388  13.112   6.342  0.00  0.00     0.143 C 
HETATM   12  C   UNK N   1      33.278  13.169   7.400  0.00  0.00     0.143 C 
BRANCH  10  13
HETATM   13  C   UNK N   1      33.842  15.297   5.408  0.00  0.00     0.029 C 
HETATM   14  C   UNK N   1      33.960  16.692   5.441  0.00  0.00     0.027 C 
HETATM   15  C   UNK N   1      33.045  17.454   4.754  0.00  0.00     0.005 C 
HETATM   16  C   UNK N   1      32.006  16.791   4.128  0.00  0.00     0.141 C 
HETATM   17  C   UNK N   1      32.188  15.484   3.699  0.00  0.00     0.005 C 
HETATM   18  C   UNK N   1      33.019  14.707   4.431  0.00  0.00     0.027 C 
BRANCH  16  19
HETATM   19  N   UNK N   1      30.802  16.935   4.850  0.00  0.00    -0.281 N 
HETATM   20  C   UNK N   1      30.646  17.078   6.168  0.00  0.00     0.205 C 
HETATM   21  N   UNK N   1      29.370  17.437   6.422  0.00  0.00    -0.289 N 
HETATM   22  N   UNK N   1      28.728  17.485   5.265  0.00  0.00    -0.234 N 
ATOM     23  HN  UNK N   1      28.971  17.636   7.340  1.00  0.00     0.188 HD
HETATM   24  C   UNK N   1      29.559  17.069   4.318  0.00  0.00     0.345 C 
HETATM   25  O   UNK N   1      29.265  16.928   3.149  0.00  0.00    -0.245 OA
BRANCH  22  26
HETATM   26  C   UNK N   1      27.531  18.292   4.989  0.00  0.00     0.141 C 
BRANCH  26  27
HETATM   27  C   UNK N   1      27.355  19.352   6.120  0.00  0.00     0.025 C 
HETATM   28  C   UNK N   1      27.531  20.821   5.754  0.00  0.00     0.007 C 
ENDBRANCH  26  27
BRANCH  26  29
HETATM   29  C   UNK N   1      26.318  17.368   5.155  0.00  0.00     0.139 C 
HETATM   30  C   UNK N   1      25.022  18.092   4.844  0.00  0.00     0.041 C 
BRANCH  29  31
HETATM   31  O   UNK N   1      26.261  16.853   6.448  0.00  0.00    -0.394 OA
HETATM   32  H   UNK N   1      25.642  16.137   6.657  0.00  0.00     0.210 HD
ENDBRANCH  29  31
ENDBRANCH  26  29
ENDBRANCH  22  26
ENDBRANCH  16  19
ENDBRANCH  10  13
ENDBRANCH   5   7
BRANCH   6  33
HETATM   33  O   UNK N   1      36.515  13.419  12.729  0.00  0.00    -0.351 OA
BRANCH  33  34
HETATM   34  C   UNK N   1      36.104  14.215  13.796  0.00  0.00     0.182 C 
BRANCH  34  35
HETATM   35  C   UNK N   1      35.972  13.324  15.082  0.00  0.00     0.037 C 
HETATM   36  C   UNK N   1      34.737  12.520  15.300  0.00  0.00     0.054 C 
HETATM   37  C   UNK N   1      35.306  11.139  15.604  0.00  0.00     0.109 C 
HETATM   38  O   UNK N   1      36.694  11.228  15.817  0.00  0.00    -0.373 OA
HETATM   39  C   UNK N   1      37.101  12.320  15.071  0.00  0.00     0.176 C 
BRANCH  37  40
HETATM   40  C   UNK N   1      34.681  10.525  16.892  0.00  0.00     0.193 C 
BRANCH  40  41
HETATM   41  N   UNK N   1      35.315  10.826  18.190  0.00  0.00    -0.284 N 
HETATM   42  C   UNK N   1      35.184  11.906  18.984  0.00  0.00     0.201 A 
HETATM   43  N   UNK N   1      35.950  11.761  20.089  0.00  0.00    -0.346 N 
HETATM   44  C   UNK N   1      36.547  10.560  19.930  0.00  0.00     0.198 A 
ATOM     45  HN  UNK N   1      36.053  12.412  20.867  1.00  0.00     0.167 HD
HETATM   46  N   UNK N   1      36.158   9.992  18.773  0.00  0.00    -0.293 N 
ATOM     47  HN  UNK N   1      36.457   9.085  18.413  1.00  0.00     0.188 HD
ENDBRANCH  40  41
ENDBRANCH  37  40
BRANCH  37  48
HETATM   48  C   UNK N   1      35.027  10.280  14.362  0.00  0.00     0.017 A 
HETATM   49  C   UNK N   1      34.162  10.768  13.374  0.00  0.00     0.016 A 
HETATM   50  C   UNK N   1      33.903  10.023  12.223  0.00  0.00     0.043 A 
HETATM   51  C   UNK N   1      34.516   8.785  12.035  0.00  0.00     0.119 A 
HETATM   52  C   UNK N   1      35.375   8.282  12.993  0.00  0.00     0.085 A 
HETATM   53  F   UNK N   1      34.285   8.066  10.916  0.00  0.00    -0.206 F 
HETATM   54  C   UNK N   1      35.631   8.999  14.147  0.00  0.00     0.128 A 
HETATM   55  F   UNK N   1      36.494   8.431  14.999  0.00  0.00    -0.205 F 
ENDBRANCH  37  48
ENDBRANCH  34  35
ENDBRANCH  33  34
ENDBRANCH   6  33
TORSDOF 13
ENDMDL
MODEL 3
REMARK VINA RESULT:      -8.0      6.295     14.264
REMARK  13 active torsions:
REMARK  status: ('A' for Active; 'I' for Inactive)
REMARK    1  A    between atoms: C_35  and  C_3 
REMARK    2  A    between atoms: C_27  and  C_20 
REMARK    3  A    between atoms: O_53  and  C_20 
REMARK    4  A    between atoms: C_37  and  C_22 
REMARK    5  A    between atoms: N_48  and  C_22 
REMARK    6  A    between atoms: C_35  and  C_26 
REMARK    7  A    between atoms: C_26  and  O_51 
REMARK    8  A    between atoms: N_46  and  C_29 
REMARK    9  A    between atoms: N_47  and  C_30 
REMARK   10  A    between atoms: N_49  and  C_31 
REMARK   11  A    between atoms: O_53  and  C_32 
REMARK   12  A    between atoms: C_37  and  C_33 
REMARK   13  A    between atoms: C_35  and  N_50 
ROOT
HETATM    1  C   UNK N   1      34.893  10.590  15.850  0.00  0.00     0.032 A 
HETATM    2  C   UNK N   1      34.586  12.981  16.067  0.00  0.00     0.032 A 
HETATM    3  C   UNK N   1      35.349  10.511  17.126  0.00  0.00     0.039 A 
HETATM    4  C   UNK N   1      35.014  12.907  17.373  0.00  0.00     0.039 A 
HETATM    5  C   UNK N   1      34.471  11.818  15.317  0.00  0.00     0.030 A 
HETATM    6  C   UNK N   1      35.393  11.664  17.903  0.00  0.00     0.068 A 
ENDROOT
BRANCH   5   7
HETATM    7  N   UNK N   1      34.725  11.968  13.991  0.00  0.00    -0.378 N 
HETATM    8  C   UNK N   1      35.746  12.979  13.806  0.00  0.00     0.143 C 
HETATM    9  C   UNK N   1      37.071  12.236  13.642  0.00  0.00     0.143 C 
HETATM   10  N   UNK N   1      36.797  11.467  12.472  0.00  0.00    -0.378 N 
HETATM   11  C   UNK N   1      35.975  10.302  12.692  0.00  0.00     0.143 C 
HETATM   12  C   UNK N   1      34.589  10.823  13.094  0.00  0.00     0.143 C 
BRANCH  10  13
HETATM   13  C   UNK N   1      36.503  12.259  11.337  0.00  0.00     0.029 C 
HETATM   14  C   UNK N   1      37.095  13.518  11.173  0.00  0.00     0.027 C 
HETATM   15  C   UNK N   1      36.800  14.252  10.049  0.00  0.00     0.005 C 
HETATM   16  C   UNK N   1      35.864  13.729   9.175  0.00  0.00     0.141 C 
HETATM   17  C   UNK N   1      35.697  12.353   9.094  0.00  0.00     0.005 C 
HETATM   18  C   UNK N   1      35.899  11.642  10.226  0.00  0.00     0.027 C 
BRANCH  16  19
HETATM   19  N   UNK N   1      34.625  14.393   9.299  0.00  0.00    -0.281 N 
HETATM   20  C   UNK N   1      34.044  14.850  10.410  0.00  0.00     0.205 C 
HETATM   21  N   UNK N   1      33.004  15.639  10.069  0.00  0.00    -0.289 N 
HETATM   22  N   UNK N   1      32.920  15.644   8.748  0.00  0.00    -0.234 N 
ATOM     23  HN  UNK N   1      32.391  16.140  10.713  1.00  0.00     0.188 HD
HETATM   24  C   UNK N   1      33.827  14.798   8.277  0.00  0.00     0.345 C 
HETATM   25  O   UNK N   1      33.971  14.517   7.105  0.00  0.00    -0.245 OA
BRANCH  22  26
HETATM   26  C   UNK N   1      32.315  16.711   7.938  0.00  0.00     0.141 C 
BRANCH  26  27
HETATM   27  C   UNK N   1      32.943  18.081   8.343  0.00  0.00     0.025 C 
HETATM   28  C   UNK N   1      34.431  18.286   8.088  0.00  0.00     0.007 C 
ENDBRANCH  26  27
BRANCH  26  29
HETATM   29  C   UNK N   1      30.850  16.831   8.374  0.00  0.00     0.139 C 
HETATM   30  C   UNK N   1      29.980  17.373   7.255  0.00  0.00     0.041 C 
BRANCH  29  31
HETATM   31  O   UNK N   1      30.732  17.654   9.491  0.00  0.00    -0.394 OA
HETATM   32  H   UNK N   1      30.633  18.613   9.379  0.00  0.00     0.210 HD
ENDBRANCH  29  31
ENDBRANCH  26  29
ENDBRANCH  22  26
ENDBRANCH  16  19
ENDBRANCH  10  13
ENDBRANCH   5   7
BRANCH   6  33
HETATM   33  O   UNK N   1      35.268  11.492  19.214  0.00  0.00    -0.351 OA
BRANCH  33  34
HETATM   34  C   UNK N   1      34.703  10.268  19.567  0.00  0.00     0.182 C 
BRANCH  34  35
HETATM   35  C   UNK N   1      34.283  10.312  21.079  0.00  0.00     0.037 C 
HETATM   36  C   UNK N   1      32.844  10.208  21.450  0.00  0.00     0.054 C 
HETATM   37  C   UNK N   1      32.867   9.113  22.511  0.00  0.00     0.109 C 
HETATM   38  O   UNK N   1      34.194   8.846  22.895  0.00  0.00    -0.373 OA
HETATM   39  C   UNK N   1      34.958   9.159  21.785  0.00  0.00     0.176 C 
BRANCH  37  40
HETATM   40  C   UNK N   1      32.093   9.535  23.795  0.00  0.00     0.193 C 
BRANCH  40  41
HETATM   41  N   UNK N   1      32.865   9.802  25.024  0.00  0.00    -0.284 N 
HETATM   42  C   UNK N   1      32.833   9.175  26.215  0.00  0.00     0.201 A 
HETATM   43  N   UNK N   1      33.716   9.751  27.062  0.00  0.00    -0.346 N 
HETATM   44  C   UNK N   1      34.275  10.746  26.340  0.00  0.00     0.198 A 
ATOM     45  HN  UNK N   1      33.915   9.492  28.028  1.00  0.00     0.167 HD
HETATM   46  N   UNK N   1      33.756  10.775  25.099  0.00  0.00    -0.293 N 
ATOM     47  HN  UNK N   1      34.004  11.426  24.353  1.00  0.00     0.188 HD
ENDBRANCH  40  41
ENDBRANCH  37  40
BRANCH  37  48
HETATM   48  C   UNK N   1      32.257   7.867  21.853  0.00  0.00     0.017 A 
HETATM   49  C   UNK N   1      31.648   7.987  20.597  0.00  0.00     0.016 A 
HETATM   50  C   UNK N   1      31.102   6.871  19.961  0.00  0.00     0.043 A 
HETATM   51  C   UNK N   1      31.171   5.616  20.564  0.00  0.00     0.119 A 
HETATM   52  C   UNK N   1      31.770   5.470  21.800  0.00  0.00     0.085 A 
HETATM   53  F   UNK N   1      30.662   4.528  19.947  0.00  0.00    -0.206 F 
HETATM   54  C   UNK N   1      32.301   6.567  22.453  0.00  0.00     0.128 A 
HETATM   55  F   UNK N   1      32.876   6.313  23.635  0.00  0.00    -0.205 F 
ENDBRANCH  37  48
ENDBRANCH  34  35
ENDBRANCH  33  34
ENDBRANCH   6  33
TORSDOF 13
ENDMDL
MODEL 4
REMARK VINA RESULT:      -8.0      4.332      6.814
REMARK  13 active torsions:
REMARK  status: ('A' for Active; 'I' for Inactive)
REMARK    1  A    between atoms: C_35  and  C_3 
REMARK    2  A    between atoms: C_27  and  C_20 
REMARK    3  A    between atoms: O_53  and  C_20 
REMARK    4  A    between atoms: C_37  and  C_22 
REMARK    5  A    between atoms: N_48  and  C_22 
REMARK    6  A    between atoms: C_35  and  C_26 
REMARK    7  A    between atoms: C_26  and  O_51 
REMARK    8  A    between atoms: N_46  and  C_29 
REMARK    9  A    between atoms: N_47  and  C_30 
REMARK   10  A    between atoms: N_49  and  C_31 
REMARK   11  A    between atoms: O_53  and  C_32 
REMARK   12  A    between atoms: C_37  and  C_33 
REMARK   13  A    between atoms: C_35  and  N_50 
ROOT
HETATM    1  C   UNK N   1      29.766  16.665   5.331  0.00  0.00     0.032 A 
HETATM    2  C   UNK N   1      29.192  17.831   7.372  0.00  0.00     0.032 A 
HETATM    3  C   UNK N   1      28.454  16.549   5.002  0.00  0.00     0.039 A 
HETATM    4  C   UNK N   1      27.860  17.749   7.032  0.00  0.00     0.039 A 
HETATM    5  C   UNK N   1      30.153  17.339   6.499  0.00  0.00     0.030 A 
HETATM    6  C   UNK N   1      27.493  17.109   5.839  0.00  0.00     0.068 A 
ENDROOT
BRANCH   5   7
HETATM    7  N   UNK N   1      31.259  16.827   7.099  0.00  0.00    -0.378 N 
HETATM    8  C   UNK N   1      32.122  16.236   6.097  0.00  0.00     0.143 C 
HETATM    9  C   UNK N   1      33.186  17.281   5.765  0.00  0.00     0.143 C 
HETATM   10  N   UNK N   1      33.803  17.440   7.042  0.00  0.00    -0.378 N 
HETATM   11  C   UNK N   1      33.059  18.246   7.978  0.00  0.00     0.143 C 
HETATM   12  C   UNK N   1      31.784  17.457   8.307  0.00  0.00     0.143 C 
BRANCH  10  13
HETATM   13  C   UNK N   1      34.384  16.248   7.536  0.00  0.00     0.029 C 
HETATM   14  C   UNK N   1      34.890  15.284   6.656  0.00  0.00     0.027 C 
HETATM   15  C   UNK N   1      35.463  14.146   7.172  0.00  0.00     0.005 C 
HETATM   16  C   UNK N   1      35.434  13.985   8.545  0.00  0.00     0.141 C 
HETATM   17  C   UNK N   1      35.403  15.105   9.365  0.00  0.00     0.005 C 
HETATM   18  C   UNK N   1      34.759  16.196   8.891  0.00  0.00     0.027 C 
BRANCH  16  19
HETATM   19  N   UNK N   1      34.459  13.040   8.927  0.00  0.00    -0.281 N 
HETATM   20  C   UNK N   1      33.142  13.219   9.047  0.00  0.00     0.205 C 
HETATM   21  N   UNK N   1      32.546  12.016   9.181  0.00  0.00    -0.289 N 
HETATM   22  N   UNK N   1      33.496  11.094   9.176  0.00  0.00    -0.234 N 
ATOM     23  HN  UNK N   1      31.543  11.846   9.271  1.00  0.00     0.188 HD
HETATM   24  C   UNK N   1      34.668  11.714   9.139  0.00  0.00     0.345 C 
HETATM   25  O   UNK N   1      35.747  11.161   9.191  0.00  0.00    -0.245 OA
BRANCH  22  26
HETATM   26  C   UNK N   1      33.315   9.688   8.788  0.00  0.00     0.141 C 
BRANCH  26  27
HETATM   27  C   UNK N   1      32.993   9.615   7.263  0.00  0.00     0.025 C 
HETATM   28  C   UNK N   1      34.121   9.225   6.315  0.00  0.00     0.007 C 
ENDBRANCH  26  27
BRANCH  26  29
HETATM   29  C   UNK N   1      32.029   9.196   9.462  0.00  0.00     0.139 C 
HETATM   30  C   UNK N   1      32.176   7.774   9.969  0.00  0.00     0.041 C 
BRANCH  29  31
HETATM   31  O   UNK N   1      30.951   9.264   8.582  0.00  0.00    -0.394 OA
HETATM   32  H   UNK N   1      31.067   9.658   7.703  0.00  0.00     0.210 HD
ENDBRANCH  29  31
ENDBRANCH  26  29
ENDBRANCH  22  26
ENDBRANCH  16  19
ENDBRANCH  10  13
ENDBRANCH   5   7
BRANCH   6  33
HETATM   33  O   UNK N   1      26.363  17.493   5.257  0.00  0.00    -0.351 OA
BRANCH  33  34
HETATM   34  C   UNK N   1      25.466  16.451   5.030  0.00  0.00     0.182 C 
BRANCH  34  35
HETATM   35  C   UNK N   1      24.110  17.044   4.505  0.00  0.00     0.037 C 
HETATM   36  C   UNK N   1      22.918  16.161   4.377  0.00  0.00     0.054 C 
HETATM   37  C   UNK N   1      21.847  16.966   5.105  0.00  0.00     0.109 C 
HETATM   38  O   UNK N   1      22.313  18.270   5.353  0.00  0.00    -0.373 OA
HETATM   39  C   UNK N   1      23.688  18.147   5.447  0.00  0.00     0.176 C 
BRANCH  37  40
HETATM   40  C   UNK N   1      20.545  17.095   4.259  0.00  0.00     0.193 C 
BRANCH  40  41
HETATM   41  N   UNK N   1      20.499  18.118   3.197  0.00  0.00    -0.284 N 
HETATM   42  C   UNK N   1      20.361  17.972   1.865  0.00  0.00     0.201 A 
HETATM   43  N   UNK N   1      20.366  19.185   1.266  0.00  0.00    -0.346 N 
HETATM   44  C   UNK N   1      20.515  20.062   2.282  0.00  0.00     0.198 A 
ATOM     45  HN  UNK N   1      20.278  19.390   0.271  1.00  0.00     0.167 HD
HETATM   46  N   UNK N   1      20.594  19.410   3.457  0.00  0.00    -0.293 N 
ATOM     47  HN  UNK N   1      20.706  19.835   4.379  1.00  0.00     0.188 HD
ENDBRANCH  40  41
ENDBRANCH  37  40
BRANCH  37  48
HETATM   48  C   UNK N   1      21.600  16.241   6.436  0.00  0.00     0.017 A 
HETATM   49  C   UNK N   1      22.151  14.968   6.634  0.00  0.00     0.016 A 
HETATM   50  C   UNK N   1      21.963  14.290   7.839  0.00  0.00     0.043 A 
HETATM   51  C   UNK N   1      21.236  14.882   8.871  0.00  0.00     0.119 A 
HETATM   52  C   UNK N   1      20.685  16.137   8.703  0.00  0.00     0.085 A 
HETATM   53  F   UNK N   1      21.065  14.240  10.047  0.00  0.00    -0.206 F 
HETATM   54  C   UNK N   1      20.846  16.816   7.510  0.00  0.00     0.128 A 
HETATM   55  F   UNK N   1      20.290  18.034   7.460  0.00  0.00    -0.205 F 
ENDBRANCH  37  48
ENDBRANCH  34  35
ENDBRANCH  33  34
ENDBRANCH   6  33
TORSDOF 13
ENDMDL
MODEL 5
REMARK VINA RESULT:      -7.8      4.039      7.433
REMARK  13 active torsions:
REMARK  status: ('A' for Active; 'I' for Inactive)
REMARK    1  A    between atoms: C_35  and  C_3 
REMARK    2  A    between atoms: C_27  and  C_20 
REMARK    3  A    between atoms: O_53  and  C_20 
REMARK    4  A    between atoms: C_37  and  C_22 
REMARK    5  A    between atoms: N_48  and  C_22 
REMARK    6  A    between atoms: C_35  and  C_26 
REMARK    7  A    between atoms: C_26  and  O_51 
REMARK    8  A    between atoms: N_46  and  C_29 
REMARK    9  A    between atoms: N_47  and  C_30 
REMARK   10  A    between atoms: N_49  and  C_31 
REMARK   11  A    between atoms: O_53  and  C_32 
REMARK   12  A    between atoms: C_37  and  C_33 
REMARK   13  A    between atoms: C_35  and  N_50 
ROOT
HETATM    1  C   UNK N   1      26.814  13.750   5.313  0.00  0.00     0.032 A 
HETATM    2  C   UNK N   1      26.307  15.522   6.880  0.00  0.00     0.032 A 
HETATM    3  C   UNK N   1      25.956  12.912   5.948  0.00  0.00     0.039 A 
HETATM    4  C   UNK N   1      25.409  14.692   7.512  0.00  0.00     0.039 A 
HETATM    5  C   UNK N   1      26.972  15.075   5.747  0.00  0.00     0.030 A 
HETATM    6  C   UNK N   1      25.232  13.383   7.040  0.00  0.00     0.068 A 
ENDROOT
BRANCH   5   7
HETATM    7  N   UNK N   1      28.229  15.568   5.592  0.00  0.00    -0.378 N 
HETATM    8  C   UNK N   1      28.991  14.685   4.732  0.00  0.00     0.143 C 
HETATM    9  C   UNK N   1      28.934  15.286   3.329  0.00  0.00     0.143 C 
HETATM   10  N   UNK N   1      29.556  16.550   3.561  0.00  0.00    -0.378 N 
HETATM   11  C   UNK N   1      28.714  17.530   4.200  0.00  0.00     0.143 C 
HETATM   12  C   UNK N   1      28.449  17.011   5.620  0.00  0.00     0.143 C 
BRANCH  10  13
HETATM   13  C   UNK N   1      30.888  16.442   4.026  0.00  0.00     0.029 C 
HETATM   14  C   UNK N   1      31.548  15.207   4.019  0.00  0.00     0.027 C 
HETATM   15  C   UNK N   1      32.848  15.143   4.462  0.00  0.00     0.005 C 
HETATM   16  C   UNK N   1      33.406  16.304   4.965  0.00  0.00     0.141 C 
HETATM   17  C   UNK N   1      32.952  17.535   4.511  0.00  0.00     0.005 C 
HETATM   18  C   UNK N   1      31.648  17.618   4.163  0.00  0.00     0.027 C 
BRANCH  16  19
HETATM   19  N   UNK N   1      33.474  16.266   6.374  0.00  0.00    -0.281 N 
HETATM   20  C   UNK N   1      32.514  16.563   7.252  0.00  0.00     0.205 C 
HETATM   21  N   UNK N   1      32.901  16.156   8.480  0.00  0.00    -0.289 N 
HETATM   22  N   UNK N   1      34.113  15.637   8.367  0.00  0.00    -0.234 N 
ATOM     23  HN  UNK N   1      32.357  16.235   9.340  1.00  0.00     0.188 HD
HETATM   24  C   UNK N   1      34.516  15.805   7.114  0.00  0.00     0.345 C 
HETATM   25  O   UNK N   1      35.612  15.501   6.691  0.00  0.00    -0.245 OA
BRANCH  22  26
HETATM   26  C   UNK N   1      34.700  14.642   9.276  0.00  0.00     0.141 C 
BRANCH  26  27
HETATM   27  C   UNK N   1      33.823  13.351   9.258  0.00  0.00     0.025 C 
HETATM   28  C   UNK N   1      34.069  12.338   8.147  0.00  0.00     0.007 C 
ENDBRANCH  26  27
BRANCH  26  29
HETATM   29  C   UNK N   1      34.536  15.182  10.701  0.00  0.00     0.139 C 
HETATM   30  C   UNK N   1      35.500  14.515  11.663  0.00  0.00     0.041 C 
BRANCH  29  31
HETATM   31  O   UNK N   1      33.231  14.999  11.153  0.00  0.00    -0.394 OA
HETATM   32  H   UNK N   1      32.518  14.826  10.519  0.00  0.00     0.210 HD
ENDBRANCH  29  31
ENDBRANCH  26  29
ENDBRANCH  22  26
ENDBRANCH  16  19
ENDBRANCH  10  13
ENDBRANCH   5   7
BRANCH   6  33
HETATM   33  O   UNK N   1      24.056  12.805   7.254  0.00  0.00    -0.351 OA
BRANCH  33  34
HETATM   34  C   UNK N   1      23.264  13.473   8.187  0.00  0.00     0.182 C 
BRANCH  34  35
HETATM   35  C   UNK N   1      21.988  14.039   7.468  0.00  0.00     0.037 C 
HETATM   36  C   UNK N   1      21.938  15.474   7.073  0.00  0.00     0.054 C 
HETATM   37  C   UNK N   1      21.510  15.386   5.612  0.00  0.00     0.109 C 
HETATM   38  O   UNK N   1      21.088  14.078   5.314  0.00  0.00    -0.373 OA
HETATM   39  C   UNK N   1      21.795  13.266   6.184  0.00  0.00     0.176 C 
BRANCH  37  40
HETATM   40  C   UNK N   1      20.315  16.336   5.301  0.00  0.00     0.193 C 
BRANCH  40  41
HETATM   41  N   UNK N   1      20.099  16.757   3.903  0.00  0.00    -0.284 N 
HETATM   42  C   UNK N   1      19.774  16.022   2.822  0.00  0.00     0.201 A 
HETATM   43  N   UNK N   1      19.673  16.821   1.736  0.00  0.00    -0.346 N 
HETATM   44  C   UNK N   1      19.952  18.058   2.201  0.00  0.00     0.198 A 
ATOM     45  HN  UNK N   1      19.439  16.550   0.781  1.00  0.00     0.167 HD
HETATM   46  N   UNK N   1      20.210  18.017   3.521  0.00  0.00    -0.293 N 
ATOM     47  HN  UNK N   1      20.448  18.810   4.117  1.00  0.00     0.188 HD
ENDBRANCH  40  41
ENDBRANCH  37  40
BRANCH  37  48
HETATM   48  C   UNK N   1      22.753  15.733   4.781  0.00  0.00     0.017 A 
HETATM   49  C   UNK N   1      23.234  14.803   3.850  0.00  0.00     0.016 A 
HETATM   50  C   UNK N   1      24.349  15.094   3.063  0.00  0.00     0.043 A 
HETATM   51  C   UNK N   1      24.991  16.326   3.184  0.00  0.00     0.119 A 
HETATM   52  C   UNK N   1      24.535  17.262   4.092  0.00  0.00     0.085 A 
HETATM   53  F   UNK N   1      26.059  16.623   2.414  0.00  0.00    -0.206 F 
HETATM   54  C   UNK N   1      23.442  16.984   4.892  0.00  0.00     0.128 A 
HETATM   55  F   UNK N   1      23.070  17.967   5.722  0.00  0.00    -0.205 F 
ENDBRANCH  37  48
ENDBRANCH  34  35
ENDBRANCH  33  34
ENDBRANCH   6  33
TORSDOF 13
ENDMDL
MODEL 6
REMARK VINA RESULT:      -7.8      3.946     11.220
REMARK  13 active torsions:
REMARK  status: ('A' for Active; 'I' for Inactive)
REMARK    1  A    between atoms: C_35  and  C_3 
REMARK    2  A    between atoms: C_27  and  C_20 
REMARK    3  A    between atoms: O_53  and  C_20 
REMARK    4  A    between atoms: C_37  and  C_22 
REMARK    5  A    between atoms: N_48  and  C_22 
REMARK    6  A    between atoms: C_35  and  C_26 
REMARK    7  A    between atoms: C_26  and  O_51 
REMARK    8  A    between atoms: N_46  and  C_29 
REMARK    9  A    between atoms: N_47  and  C_30 
REMARK   10  A    between atoms: N_49  and  C_31 
REMARK   11  A    between atoms: O_53  and  C_32 
REMARK   12  A    between atoms: C_37  and  C_33 
REMARK   13  A    between atoms: C_35  and  N_50 
ROOT
HETATM    1  C   UNK N   1      29.604  17.581   7.887  0.00  0.00     0.032 A 
HETATM    2  C   UNK N   1      30.909  17.003   5.933  0.00  0.00     0.032 A 
HETATM    3  C   UNK N   1      30.700  17.471   8.680  0.00  0.00     0.039 A 
HETATM    4  C   UNK N   1      32.034  16.921   6.722  0.00  0.00     0.039 A 
HETATM    5  C   UNK N   1      29.701  17.386   6.501  0.00  0.00     0.030 A 
HETATM    6  C   UNK N   1      31.927  17.161   8.100  0.00  0.00     0.068 A 
ENDROOT
BRANCH   5   7
HETATM    7  N   UNK N   1      28.602  16.820   5.938  0.00  0.00    -0.378 N 
HETATM    8  C   UNK N   1      27.453  17.675   6.157  0.00  0.00     0.143 C 
HETATM    9  C   UNK N   1      27.276  18.504   4.886  0.00  0.00     0.143 C 
HETATM   10  N   UNK N   1      27.055  17.469   3.928  0.00  0.00    -0.378 N 
HETATM   11  C   UNK N   1      28.243  16.768   3.509  0.00  0.00     0.143 C 
HETATM   12  C   UNK N   1      28.745  15.998   4.739  0.00  0.00     0.143 C 
BRANCH  10  13
HETATM   13  C   UNK N   1      25.907  16.688   4.202  0.00  0.00     0.029 C 
HETATM   14  C   UNK N   1      24.745  17.281   4.710  0.00  0.00     0.027 C 
HETATM   15  C   UNK N   1      23.644  16.493   4.947  0.00  0.00     0.005 C 
HETATM   16  C   UNK N   1      23.778  15.133   4.740  0.00  0.00     0.141 C 
HETATM   17  C   UNK N   1      24.698  14.669   3.809  0.00  0.00     0.005 C 
HETATM   18  C   UNK N   1      25.824  15.399   3.643  0.00  0.00     0.027 C 
BRANCH  16  19
HETATM   19  N   UNK N   1      23.889  14.440   5.964  0.00  0.00    -0.281 N 
HETATM   20  C   UNK N   1      24.717  14.691   6.980  0.00  0.00     0.205 C 
HETATM   21  N   UNK N   1      24.332  13.966   8.051  0.00  0.00    -0.289 N 
HETATM   22  N   UNK N   1      23.285  13.241   7.689  0.00  0.00    -0.234 N 
ATOM     23  HN  UNK N   1      24.768  13.974   8.973  1.00  0.00     0.188 HD
HETATM   24  C   UNK N   1      23.081  13.434   6.392  0.00  0.00     0.345 C 
HETATM   25  O   UNK N   1      22.238  12.865   5.729  0.00  0.00    -0.245 OA
BRANCH  22  26
HETATM   26  C   UNK N   1      22.253  12.723   8.598  0.00  0.00     0.141 C 
BRANCH  26  27
HETATM   27  C   UNK N   1      21.875  13.832   9.629  0.00  0.00     0.025 C 
HETATM   28  C   UNK N   1      20.954  14.954   9.163  0.00  0.00     0.007 C 
ENDBRANCH  26  27
BRANCH  26  29
HETATM   29  C   UNK N   1      22.911  11.633   9.452  0.00  0.00     0.139 C 
HETATM   30  C   UNK N   1      23.026  12.057  10.903  0.00  0.00     0.041 C 
BRANCH  29  31
HETATM   31  O   UNK N   1      24.176  11.316   8.961  0.00  0.00    -0.394 OA
HETATM   32  H   UNK N   1      24.366  11.409   8.015  0.00  0.00     0.210 HD
ENDBRANCH  29  31
ENDBRANCH  26  29
ENDBRANCH  22  26
ENDBRANCH  16  19
ENDBRANCH  10  13
ENDBRANCH   5   7
BRANCH   6  33
HETATM   33  O   UNK N   1      33.003  17.616   8.731  0.00  0.00    -0.351 OA
BRANCH  33  34
HETATM   34  C   UNK N   1      34.117  16.787   8.609  0.00  0.00     0.182 C 
BRANCH  34  35
HETATM   35  C   UNK N   1      34.300  15.972   9.939  0.00  0.00     0.037 C 
HETATM   36  C   UNK N   1      34.165  14.489   9.920  0.00  0.00     0.054 C 
HETATM   37  C   UNK N   1      35.436  14.046  10.637  0.00  0.00     0.109 C 
HETATM   38  O   UNK N   1      36.058  15.154  11.240  0.00  0.00    -0.373 OA
HETATM   39  C   UNK N   1      35.693  16.238  10.460  0.00  0.00     0.176 C 
BRANCH  37  40
HETATM   40  C   UNK N   1      35.135  13.017  11.767  0.00  0.00     0.193 C 
BRANCH  40  41
HETATM   41  N   UNK N   1      35.943  13.073  13.000  0.00  0.00    -0.284 N 
HETATM   42  C   UNK N   1      36.911  12.243  13.435  0.00  0.00     0.201 A 
HETATM   43  N   UNK N   1      37.390  12.677  14.623  0.00  0.00    -0.346 N 
HETATM   44  C   UNK N   1      36.675  13.792  14.887  0.00  0.00     0.198 A 
ATOM     45  HN  UNK N   1      38.125  12.257  15.191  1.00  0.00     0.167 HD
HETATM   46  N   UNK N   1      35.795  14.032  13.897  0.00  0.00    -0.293 N 
ATOM     47  HN  UNK N   1      35.137  14.810  13.848  1.00  0.00     0.188 HD
ENDBRANCH  40  41
ENDBRANCH  37  40
BRANCH  37  48
HETATM   48  C   UNK N   1      36.355  13.461   9.555  0.00  0.00     0.017 A 
HETATM   49  C   UNK N   1      35.815  13.134   8.304  0.00  0.00     0.016 A 
HETATM   50  C   UNK N   1      36.625  12.620   7.291  0.00  0.00     0.043 A 
HETATM   51  C   UNK N   1      37.990  12.439   7.508  0.00  0.00     0.119 A 
HETATM   52  C   UNK N   1      38.548  12.757   8.731  0.00  0.00     0.085 A 
HETATM   53  F   UNK N   1      38.785  11.960   6.527  0.00  0.00    -0.206 F 
HETATM   54  C   UNK N   1      37.758  13.251   9.752  0.00  0.00     0.128 A 
HETATM   55  F   UNK N   1      38.402  13.546  10.888  0.00  0.00    -0.205 F 
ENDBRANCH  37  48
ENDBRANCH  34  35
ENDBRANCH  33  34
ENDBRANCH   6  33
TORSDOF 13
ENDMDL
MODEL 7
REMARK VINA RESULT:      -7.8      3.970     10.749
REMARK  13 active torsions:
REMARK  status: ('A' for Active; 'I' for Inactive)
REMARK    1  A    between atoms: C_35  and  C_3 
REMARK    2  A    between atoms: C_27  and  C_20 
REMARK    3  A    between atoms: O_53  and  C_20 
REMARK    4  A    between atoms: C_37  and  C_22 
REMARK    5  A    between atoms: N_48  and  C_22 
REMARK    6  A    between atoms: C_35  and  C_26 
REMARK    7  A    between atoms: C_26  and  O_51 
REMARK    8  A    between atoms: N_46  and  C_29 
REMARK    9  A    between atoms: N_47  and  C_30 
REMARK   10  A    between atoms: N_49  and  C_31 
REMARK   11  A    between atoms: O_53  and  C_32 
REMARK   12  A    between atoms: C_37  and  C_33 
REMARK   13  A    between atoms: C_35  and  N_50 
ROOT
HETATM    1  C   UNK N   1      30.763  14.664   5.637  0.00  0.00     0.032 A 
HETATM    2  C   UNK N   1      30.724  16.986   4.955  0.00  0.00     0.032 A 
HETATM    3  C   UNK N   1      32.079  14.570   5.319  0.00  0.00     0.039 A 
HETATM    4  C   UNK N   1      32.066  16.911   4.661  0.00  0.00     0.039 A 
HETATM    5  C   UNK N   1      30.079  15.882   5.495  0.00  0.00     0.030 A 
HETATM    6  C   UNK N   1      32.746  15.698   4.848  0.00  0.00     0.068 A 
ENDROOT
BRANCH   5   7
HETATM    7  N   UNK N   1      28.775  15.751   5.135  0.00  0.00    -0.378 N 
HETATM    8  C   UNK N   1      27.958  16.622   5.955  0.00  0.00     0.143 C 
HETATM    9  C   UNK N   1      27.717  17.891   5.139  0.00  0.00     0.143 C 
HETATM   10  N   UNK N   1      27.034  17.348   4.009  0.00  0.00    -0.378 N 
HETATM   11  C   UNK N   1      27.883  16.687   3.049  0.00  0.00     0.143 C 
HETATM   12  C   UNK N   1      28.435  15.438   3.750  0.00  0.00     0.143 C 
BRANCH  10  13
HETATM   13  C   UNK N   1      25.818  16.708   4.344  0.00  0.00     0.029 C 
HETATM   14  C   UNK N   1      24.839  17.381   5.085  0.00  0.00     0.027 C 
HETATM   15  C   UNK N   1      23.661  16.733   5.377  0.00  0.00     0.005 C 
HETATM   16  C   UNK N   1      23.547  15.413   4.981  0.00  0.00     0.141 C 
HETATM   17  C   UNK N   1      24.258  14.965   3.876  0.00  0.00     0.005 C 
HETATM   18  C   UNK N   1      25.459  15.541   3.644  0.00  0.00     0.027 C 
BRANCH  16  19
HETATM   19  N   UNK N   1      23.693  14.538   6.078  0.00  0.00    -0.281 N 
HETATM   20  C   UNK N   1      24.648  14.540   7.010  0.00  0.00     0.205 C 
HETATM   21  N   UNK N   1      24.286  13.713   8.013  0.00  0.00    -0.289 N 
HETATM   22  N   UNK N   1      23.120  13.175   7.688  0.00  0.00    -0.234 N 
ATOM     23  HN  UNK N   1      24.813  13.534   8.868  1.00  0.00     0.188 HD
HETATM   24  C   UNK N   1      22.809  13.581   6.464  0.00  0.00     0.345 C 
HETATM   25  O   UNK N   1      21.834  13.217   5.839  0.00  0.00    -0.245 OA
BRANCH  22  26
HETATM   26  C   UNK N   1      22.130  12.651   8.639  0.00  0.00     0.141 C 
BRANCH  26  27
HETATM   27  C   UNK N   1      21.781  13.761   9.679  0.00  0.00     0.025 C 
HETATM   28  C   UNK N   1      20.330  14.217   9.775  0.00  0.00     0.007 C 
ENDBRANCH  26  27
BRANCH  26  29
HETATM   29  C   UNK N   1      22.833  11.572   9.471  0.00  0.00     0.139 C 
HETATM   30  C   UNK N   1      23.303  12.117  10.806  0.00  0.00     0.041 C 
BRANCH  29  31
HETATM   31  O   UNK N   1      23.920  11.043   8.779  0.00  0.00    -0.394 OA
HETATM   32  H   UNK N   1      24.292  10.187   9.042  0.00  0.00     0.210 HD
ENDBRANCH  29  31
ENDBRANCH  26  29
ENDBRANCH  22  26
ENDBRANCH  16  19
ENDBRANCH  10  13
ENDBRANCH   5   7
BRANCH   6  33
HETATM   33  O   UNK N   1      34.048  15.755   5.099  0.00  0.00    -0.351 OA
BRANCH  33  34
HETATM   34  C   UNK N   1      34.603  14.531   5.469  0.00  0.00     0.182 C 
BRANCH  34  35
HETATM   35  C   UNK N   1      35.089  14.615   6.959  0.00  0.00     0.037 C 
HETATM   36  C   UNK N   1      35.163  15.938   7.639  0.00  0.00     0.054 C 
HETATM   37  C   UNK N   1      34.410  15.671   8.937  0.00  0.00     0.109 C 
HETATM   38  O   UNK N   1      34.197  14.290   9.092  0.00  0.00    -0.373 OA
HETATM   39  C   UNK N   1      34.149  13.787   7.804  0.00  0.00     0.176 C 
BRANCH  37  40
HETATM   40  C   UNK N   1      35.212  16.156  10.182  0.00  0.00     0.193 C 
BRANCH  40  41
HETATM   41  N   UNK N   1      35.971  15.157  10.959  0.00  0.00    -0.284 N 
HETATM   42  C   UNK N   1      36.049  14.979  12.292  0.00  0.00     0.201 A 
HETATM   43  N   UNK N   1      36.862  13.935  12.570  0.00  0.00    -0.346 N 
HETATM   44  C   UNK N   1      37.273  13.496  11.360  0.00  0.00     0.198 A 
ATOM     45  HN  UNK N   1      37.110  13.564  13.487  1.00  0.00     0.167 HD
HETATM   46  N   UNK N   1      36.728  14.241  10.381  0.00  0.00    -0.293 N 
ATOM     47  HN  UNK N   1      36.872  14.121   9.377  1.00  0.00     0.188 HD
ENDBRANCH  40  41
ENDBRANCH  37  40
BRANCH  37  48
HETATM   48  C   UNK N   1      33.061  16.392   8.804  0.00  0.00     0.017 A 
HETATM   49  C   UNK N   1      31.882  15.699   9.108  0.00  0.00     0.016 A 
HETATM   50  C   UNK N   1      30.641  16.330   9.018  0.00  0.00     0.043 A 
HETATM   51  C   UNK N   1      30.561  17.669   8.639  0.00  0.00     0.119 A 
HETATM   52  C   UNK N   1      31.708  18.377   8.338  0.00  0.00     0.085 A 
HETATM   53  F   UNK N   1      29.365  18.293   8.568  0.00  0.00    -0.206 F 
HETATM   54  C   UNK N   1      32.945  17.763   8.405  0.00  0.00     0.128 A 
HETATM   55  F   UNK N   1      33.993  18.544   8.113  0.00  0.00    -0.205 F 
ENDBRANCH  37  48
ENDBRANCH  34  35
ENDBRANCH  33  34
ENDBRANCH   6  33
TORSDOF 13
ENDMDL
MODEL 8
REMARK VINA RESULT:      -7.7      4.715     10.816
REMARK  13 active torsions:
REMARK  status: ('A' for Active; 'I' for Inactive)
REMARK    1  A    between atoms: C_35  and  C_3 
REMARK    2  A    between atoms: C_27  and  C_20 
REMARK    3  A    between atoms: O_53  and  C_20 
REMARK    4  A    between atoms: C_37  and  C_22 
REMARK    5  A    between atoms: N_48  and  C_22 
REMARK    6  A    between atoms: C_35  and  C_26 
REMARK    7  A    between atoms: C_26  and  O_51 
REMARK    8  A    between atoms: N_46  and  C_29 
REMARK    9  A    between atoms: N_47  and  C_30 
REMARK   10  A    between atoms: N_49  and  C_31 
REMARK   11  A    between atoms: O_53  and  C_32 
REMARK   12  A    between atoms: C_37  and  C_33 
REMARK   13  A    between atoms: C_35  and  N_50 
ROOT
HETATM    1  C   UNK N   1      29.390  13.810   4.918  0.00  0.00     0.032 A 
HETATM    2  C   UNK N   1      29.173  15.115   2.892  0.00  0.00     0.032 A 
HETATM    3  C   UNK N   1      30.698  13.570   4.650  0.00  0.00     0.039 A 
HETATM    4  C   UNK N   1      30.508  14.906   2.628  0.00  0.00     0.039 A 
HETATM    5  C   UNK N   1      28.621  14.616   4.064  0.00  0.00     0.030 A 
HETATM    6  C   UNK N   1      31.272  14.133   3.514  0.00  0.00     0.068 A 
ENDROOT
BRANCH   5   7
HETATM    7  N   UNK N   1      27.319  14.243   3.966  0.00  0.00    -0.378 N 
HETATM    8  C   UNK N   1      26.486  15.213   4.647  0.00  0.00     0.143 C 
HETATM    9  C   UNK N   1      25.955  16.163   3.575  0.00  0.00     0.143 C 
HETATM   10  N   UNK N   1      25.228  15.249   2.753  0.00  0.00    -0.378 N 
HETATM   11  C   UNK N   1      26.043  14.442   1.878  0.00  0.00     0.143 C 
HETATM   12  C   UNK N   1      26.861  13.514   2.787  0.00  0.00     0.143 C 
BRANCH  10  13
HETATM   13  C   UNK N   1      24.174  14.598   3.437  0.00  0.00     0.029 C 
HETATM   14  C   UNK N   1      23.234  15.336   4.166  0.00  0.00     0.027 C 
HETATM   15  C   UNK N   1      22.213  14.670   4.803  0.00  0.00     0.005 C 
HETATM   16  C   UNK N   1      22.223  13.289   4.747  0.00  0.00     0.141 C 
HETATM   17  C   UNK N   1      22.816  12.651   3.666  0.00  0.00     0.005 C 
HETATM   18  C   UNK N   1      23.879  13.265   3.098  0.00  0.00     0.027 C 
BRANCH  16  19
HETATM   19  N   UNK N   1      22.649  12.733   5.972  0.00  0.00    -0.281 N 
HETATM   20  C   UNK N   1      23.899  12.571   6.411  0.00  0.00     0.205 C 
HETATM   21  N   UNK N   1      23.866  12.244   7.720  0.00  0.00    -0.289 N 
HETATM   22  N   UNK N   1      22.595  12.172   8.084  0.00  0.00    -0.234 N 
ATOM     23  HN  UNK N   1      24.674  12.080   8.321  1.00  0.00     0.188 HD
HETATM   24  C   UNK N   1      21.849  12.353   7.002  0.00  0.00     0.345 C 
HETATM   25  O   UNK N   1      20.637  12.282   6.975  0.00  0.00    -0.245 OA
BRANCH  22  26
HETATM   26  C   UNK N   1      22.090  12.356   9.452  0.00  0.00     0.141 C 
BRANCH  26  27
HETATM   27  C   UNK N   1      21.768  13.866   9.680  0.00  0.00     0.025 C 
HETATM   28  C   UNK N   1      20.303  14.282   9.733  0.00  0.00     0.007 C 
ENDBRANCH  26  27
BRANCH  26  29
HETATM   29  C   UNK N   1      23.259  12.078  10.404  0.00  0.00     0.139 C 
HETATM   30  C   UNK N   1      22.779  11.876  11.829  0.00  0.00     0.041 C 
BRANCH  29  31
HETATM   31  O   UNK N   1      24.183  13.120  10.371  0.00  0.00    -0.394 OA
HETATM   32  H   UNK N   1      24.301  13.638   9.560  0.00  0.00     0.210 HD
ENDBRANCH  29  31
ENDBRANCH  26  29
ENDBRANCH  22  26
ENDBRANCH  16  19
ENDBRANCH  10  13
ENDBRANCH   5   7
BRANCH   6  33
HETATM   33  O   UNK N   1      32.575  14.379   3.578  0.00  0.00    -0.351 OA
BRANCH  33  34
HETATM   34  C   UNK N   1      33.290  13.435   4.313  0.00  0.00     0.182 C 
BRANCH  34  35
HETATM   35  C   UNK N   1      33.961  14.141   5.545  0.00  0.00     0.037 C 
HETATM   36  C   UNK N   1      34.037  15.627   5.593  0.00  0.00     0.054 C 
HETATM   37  C   UNK N   1      33.480  15.929   6.980  0.00  0.00     0.109 C 
HETATM   38  O   UNK N   1      33.380  14.740   7.725  0.00  0.00    -0.373 OA
HETATM   39  C   UNK N   1      33.196  13.742   6.785  0.00  0.00     0.176 C 
BRANCH  37  40
HETATM   40  C   UNK N   1      34.405  16.896   7.777  0.00  0.00     0.193 C 
BRANCH  40  41
HETATM   41  N   UNK N   1      34.949  16.437   9.070  0.00  0.00    -0.284 N 
HETATM   42  C   UNK N   1      35.781  15.413   9.341  0.00  0.00     0.201 A 
HETATM   43  N   UNK N   1      36.025  15.358  10.670  0.00  0.00    -0.346 N 
HETATM   44  C   UNK N   1      35.308  16.379  11.187  0.00  0.00     0.198 A 
ATOM     45  HN  UNK N   1      36.616  14.693  11.169  1.00  0.00     0.167 HD
HETATM   46  N   UNK N   1      34.655  17.036  10.211  0.00  0.00    -0.293 N 
ATOM     47  HN  UNK N   1      34.046  17.847  10.329  1.00  0.00     0.188 HD
ENDBRANCH  40  41
ENDBRANCH  37  40
BRANCH  37  48
HETATM   48  C   UNK N   1      32.081  16.522   6.758  0.00  0.00     0.017 A 
HETATM   49  C   UNK N   1      31.759  17.064   5.507  0.00  0.00     0.016 A 
HETATM   50  C   UNK N   1      30.490  17.592   5.265  0.00  0.00     0.043 A 
HETATM   51  C   UNK N   1      29.519  17.571   6.264  0.00  0.00     0.119 A 
HETATM   52  C   UNK N   1      29.809  17.039   7.505  0.00  0.00     0.085 A 
HETATM   53  F   UNK N   1      28.283  18.063   6.032  0.00  0.00    -0.206 F 
HETATM   54  C   UNK N   1      31.066  16.527   7.769  0.00  0.00     0.128 A 
HETATM   55  F   UNK N   1      31.235  16.016   8.995  0.00  0.00    -0.205 F 
ENDBRANCH  37  48
ENDBRANCH  34  35
ENDBRANCH  33  34
ENDBRANCH   6  33
TORSDOF 13
ENDMDL
MODEL 9
REMARK VINA RESULT:      -7.6      5.039      8.685
REMARK  13 active torsions:
REMARK  status: ('A' for Active; 'I' for Inactive)
REMARK    1  A    between atoms: C_35  and  C_3 
REMARK    2  A    between atoms: C_27  and  C_20 
REMARK    3  A    between atoms: O_53  and  C_20 
REMARK    4  A    between atoms: C_37  and  C_22 
REMARK    5  A    between atoms: N_48  and  C_22 
REMARK    6  A    between atoms: C_35  and  C_26 
REMARK    7  A    between atoms: C_26  and  O_51 
REMARK    8  A    between atoms: N_46  and  C_29 
REMARK    9  A    between atoms: N_47  and  C_30 
REMARK   10  A    between atoms: N_49  and  C_31 
REMARK   11  A    between atoms: O_53  and  C_32 
REMARK   12  A    between atoms: C_37  and  C_33 
REMARK   13  A    between atoms: C_35  and  N_50 
ROOT
HETATM    1  C   UNK N   1      25.519  14.996   4.885  0.00  0.00     0.032 A 
HETATM    2  C   UNK N   1      26.010  15.268   7.239  0.00  0.00     0.032 A 
HETATM    3  C   UNK N   1      24.633  14.006   5.162  0.00  0.00     0.039 A 
HETATM    4  C   UNK N   1      25.089  14.288   7.533  0.00  0.00     0.039 A 
HETATM    5  C   UNK N   1      26.189  15.665   5.921  0.00  0.00     0.030 A 
HETATM    6  C   UNK N   1      24.396  13.659   6.489  0.00  0.00     0.068 A 
ENDROOT
BRANCH   5   7
HETATM    7  N   UNK N   1      27.454  16.051   5.609  0.00  0.00    -0.378 N 
HETATM    8  C   UNK N   1      28.139  14.965   4.937  0.00  0.00     0.143 C 
HETATM    9  C   UNK N   1      28.034  15.243   3.439  0.00  0.00     0.143 C 
HETATM   10  N   UNK N   1      28.713  16.496   3.358  0.00  0.00    -0.378 N 
HETATM   11  C   UNK N   1      27.941  17.633   3.796  0.00  0.00     0.143 C 
HETATM   12  C   UNK N   1      27.729  17.452   5.306  0.00  0.00     0.143 C 
BRANCH  10  13
HETATM   13  C   UNK N   1      30.062  16.430   3.780  0.00  0.00     0.029 C 
HETATM   14  C   UNK N   1      30.820  15.273   3.566  0.00  0.00     0.027 C 
HETATM   15  C   UNK N   1      32.133  15.252   3.973  0.00  0.00     0.005 C 
HETATM   16  C   UNK N   1      32.608  16.361   4.648  0.00  0.00     0.141 C 
HETATM   17  C   UNK N   1      32.042  17.605   4.404  0.00  0.00     0.005 C 
HETATM   18  C   UNK N   1      30.726  17.631   4.092  0.00  0.00     0.027 C 
BRANCH  16  19
HETATM   19  N   UNK N   1      32.718  16.107   6.031  0.00  0.00    -0.281 N 
HETATM   20  C   UNK N   1      31.953  15.316   6.786  0.00  0.00     0.205 C 
HETATM   21  N   UNK N   1      32.543  15.152   7.989  0.00  0.00    -0.289 N 
HETATM   22  N   UNK N   1      33.657  15.867   7.991  0.00  0.00    -0.234 N 
ATOM     23  HN  UNK N   1      32.194  14.581   8.759  1.00  0.00     0.188 HD
HETATM   24  C   UNK N   1      33.712  16.542   6.850  0.00  0.00     0.345 C 
HETATM   25  O   UNK N   1      34.575  17.346   6.560  0.00  0.00    -0.245 OA
BRANCH  22  26
HETATM   26  C   UNK N   1      34.835  15.605   8.830  0.00  0.00     0.141 C 
BRANCH  26  27
HETATM   27  C   UNK N   1      35.311  14.137   8.600  0.00  0.00     0.025 C 
HETATM   28  C   UNK N   1      36.812  13.873   8.556  0.00  0.00     0.007 C 
ENDBRANCH  26  27
BRANCH  26  29
HETATM   29  C   UNK N   1      34.361  15.618  10.288  0.00  0.00     0.139 C 
HETATM   30  C   UNK N   1      35.447  16.116  11.221  0.00  0.00     0.041 C 
BRANCH  29  31
HETATM   31  O   UNK N   1      33.955  14.346  10.687  0.00  0.00    -0.394 OA
HETATM   32  H   UNK N   1      34.318  13.954  11.497  0.00  0.00     0.210 HD
ENDBRANCH  29  31
ENDBRANCH  26  29
ENDBRANCH  22  26
ENDBRANCH  16  19
ENDBRANCH  10  13
ENDBRANCH   5   7
BRANCH   6  33
HETATM   33  O   UNK N   1      23.193  13.165   6.758  0.00  0.00    -0.351 OA
BRANCH  33  34
HETATM   34  C   UNK N   1      22.747  13.445   8.048  0.00  0.00     0.182 C 
BRANCH  34  35
HETATM   35  C   UNK N   1      21.256  13.934   7.983  0.00  0.00     0.037 C 
HETATM   36  C   UNK N   1      20.945  15.380   8.159  0.00  0.00     0.054 C 
HETATM   37  C   UNK N   1      20.052  15.661   6.955  0.00  0.00     0.109 C 
HETATM   38  O   UNK N   1      19.675  14.452   6.345  0.00  0.00    -0.373 OA
HETATM   39  C   UNK N   1      20.707  13.573   6.623  0.00  0.00     0.176 C 
BRANCH  37  40
HETATM   40  C   UNK N   1      18.742  16.398   7.365  0.00  0.00     0.193 C 
BRANCH  40  41
HETATM   41  N   UNK N   1      18.795  17.343   8.498  0.00  0.00    -0.284 N 
HETATM   42  C   UNK N   1      19.704  18.293   8.787  0.00  0.00     0.201 A 
HETATM   43  N   UNK N   1      19.356  18.932   9.927  0.00  0.00    -0.346 N 
HETATM   44  C   UNK N   1      18.210  18.330  10.314  0.00  0.00     0.198 A 
ATOM     45  HN  UNK N   1      19.848  19.696  10.390  1.00  0.00     0.167 HD
HETATM   46  N   UNK N   1      17.869  17.364   9.441  0.00  0.00    -0.293 N 
ATOM     47  HN  UNK N   1      17.049  16.759   9.497  1.00  0.00     0.188 HD
ENDBRANCH  40  41
ENDBRANCH  37  40
BRANCH  37  48
HETATM   48  C   UNK N   1      20.900  16.492   5.981  0.00  0.00     0.017 A 
HETATM   49  C   UNK N   1      22.206  16.846   6.343  0.00  0.00     0.016 A 
HETATM   50  C   UNK N   1      23.011  17.582   5.472  0.00  0.00     0.043 A 
HETATM   51  C   UNK N   1      22.528  17.962   4.221  0.00  0.00     0.119 A 
HETATM   52  C   UNK N   1      21.245  17.623   3.839  0.00  0.00     0.085 A 
HETATM   53  F   UNK N   1      23.307  18.659   3.366  0.00  0.00    -0.206 F 
HETATM   54  C   UNK N   1      20.427  16.908   4.694  0.00  0.00     0.128 A 
HETATM   55  F   UNK N   1      19.211  16.613   4.218  0.00  0.00    -0.205 F 
ENDBRANCH  37  48
ENDBRANCH  34  35
ENDBRANCH  33  34
ENDBRANCH   6  33
TORSDOF 13
ENDMDL
