REMARK  4 active torsions:
REMARK  status: ('A' for Active; 'I' for Inactive)
REMARK    1  A    between atoms: O_5  and  C_20 
REMARK    2  A    between atoms: N_8  and  C_18 
REMARK    3  A    between atoms: C_13  and  C_18 
REMARK    4  A    between atoms: C_15  and  C_20 
ROOT
HETATM    1  S   UNK N   1       3.562   1.962   0.242  0.00  0.00     0.174 S 
HETATM    2  O   UNK N   1       4.031   3.295  -0.361  0.00  0.00    -0.225 OA
HETATM    3  O   UNK N   1       3.426   2.234   1.749  0.00  0.00    -0.225 OA
HETATM    4  O   UNK N   1       1.102  -1.192   1.133  0.00  0.00    -0.280 OA
HETATM    5  N   UNK N   1       2.216  -0.023  -0.436  0.00  0.00    -0.218 NA
HETATM    6  C   UNK N   1       4.614   0.535  -0.128  0.00  0.00     0.106 C 
HETATM    7  C   UNK N   1       1.999   1.392  -0.446  0.00  0.00     0.198 A 
HETATM    8  C   UNK N   1       3.540  -0.564  -0.162  0.00  0.00     0.189 C 
HETATM    9  C   UNK N   1       0.744   1.147   0.525  0.00  0.00     0.132 A 
HETATM   10  C   UNK N   1       1.197  -0.259   0.350  0.00  0.00     0.204 A 
HETATM   11  C   UNK N   1       5.196   0.685  -1.531  0.00  0.00     0.036 C 
ENDROOT
BRANCH   6  12
HETATM   12  C   UNK N   1       5.652   0.246   0.969  0.00  0.00     0.177 C 
BRANCH  12  13
HETATM   13  N   UNK N   1       7.024   0.518   0.554  0.00  0.00    -0.286 N 
HETATM   14  N   UNK N   1       7.946  -0.416   0.416  0.00  0.00    -0.241 N 
HETATM   15  N   UNK N   1       9.083   0.128   0.017  0.00  0.00    -0.296 N 
ATOM     16  HN  UNK N   1       7.802  -1.410   0.591  1.00  0.00     0.208 HD
HETATM   17  C   UNK N   1       8.882   1.458  -0.103  0.00  0.00     0.127 A 
ATOM     18  HN  UNK N   1       9.955  -0.368  -0.168  1.00  0.00     0.187 HD
HETATM   19  C   UNK N   1       7.564   1.709   0.242  0.00  0.00     0.130 A 
ENDBRANCH  12  13
ENDBRANCH   6  12
BRANCH   8  20
HETATM   20  C   UNK N   1       3.817  -2.014  -0.448  0.00  0.00     0.160 C 
HETATM   21  O   UNK N   1       4.964  -2.431  -0.434  0.00  0.00    -0.649 OA
BRANCH  20  22
HETATM   22  O   UNK N   1       2.802  -2.865  -0.682  0.00  0.00    -0.775 OA
HETATM   23  H   UNK N   1       1.934  -2.549  -0.845  0.00  0.00     0.167 HD
ENDBRANCH  20  22
ENDBRANCH   8  20
TORSDOF 4
