MODEL 1
REMARK VINA RESULT:      -6.7      0.000      0.000
REMARK  5 active torsions:
REMARK  status: ('A' for Active; 'I' for Inactive)
REMARK    1  A    between atoms: C_1  and  N_7 
REMARK    2  A    between atoms: N_7  and  C_10 
REMARK    3  A    between atoms: C_12  and  C_17 
REMARK    4  A    between atoms: C_17  and  C_18 
REMARK    5  A    between atoms: C_18  and  O_20 
ROOT
HETATM    1  C   UNK N   1      30.189  17.586   6.915  0.00  0.00     0.039 A 
HETATM    2  C   UNK N   1      31.110  17.149   5.956  0.00  0.00     0.030 A 
HETATM    3  C   UNK N   1      30.651  17.958   8.192  0.00  0.00    -0.021 A 
HETATM    4  C   UNK N   1      32.010  17.819   8.510  0.00  0.00     0.016 A 
HETATM    5  C   UNK N   1      32.910  17.344   7.559  0.00  0.00    -0.061 A 
HETATM    6  C   UNK N   1      32.465  17.023   6.277  0.00  0.00     0.009 A 
HETATM    7  C   UNK N   1      34.343  17.174   7.916  0.00  0.00     0.048 C 
ENDROOT
BRANCH   1   8
HETATM    8  N   UNK N   1      28.786  17.674   6.644  0.00  0.00    -0.352 N 
HETATM    9  H   UNK N   1      28.262  16.919   6.996  0.00  0.00     0.166 HD
BRANCH   8  10
HETATM   10  C   UNK N   1      28.005  18.654   5.959  0.00  0.00     0.093 A 
HETATM   11  C   UNK N   1      27.415  19.800   6.570  0.00  0.00     0.144 A 
HETATM   12  C   UNK N   1      26.723  20.730   5.795  0.00  0.00     0.045 A 
HETATM   13  F   UNK N   1      27.523  20.061   7.890  0.00  0.00    -0.204 F 
HETATM   14  C   UNK N   1      26.600  20.561   4.418  0.00  0.00     0.005 A 
HETATM   15  C   UNK N   1      27.176  19.453   3.804  0.00  0.00     0.026 A 
HETATM   16  C   UNK N   1      27.869  18.509   4.560  0.00  0.00     0.063 A 
HETATM   17 Cl   UNK N   1      28.603  17.146   3.726  0.00  0.00    -0.082 Cl
ENDBRANCH   8  10
ENDBRANCH   1   8
BRANCH   3  18
HETATM   18  C   UNK N   1      29.690  18.455   9.232  0.00  0.00     0.150 C 
BRANCH  18  19
HETATM   19  C   UNK N   1      28.945  17.335   9.894  0.00  0.00     0.143 C 
HETATM   20  O   UNK N   1      27.782  17.111   9.595  0.00  0.00    -0.650 OA
BRANCH  19  21
HETATM   21  O   UNK N   1      29.546  16.595  10.843  0.00  0.00    -0.776 OA
HETATM   22  H   UNK N   1      30.181  15.911  10.767  0.00  0.00     0.167 HD
ENDBRANCH  19  21
ENDBRANCH  18  19
ENDBRANCH   3  18
TORSDOF 5
ENDMDL
MODEL 2
REMARK VINA RESULT:      -6.5      7.644      9.794
REMARK  5 active torsions:
REMARK  status: ('A' for Active; 'I' for Inactive)
REMARK    1  A    between atoms: C_1  and  N_7 
REMARK    2  A    between atoms: N_7  and  C_10 
REMARK    3  A    between atoms: C_12  and  C_17 
REMARK    4  A    between atoms: C_17  and  C_18 
REMARK    5  A    between atoms: C_18  and  O_20 
ROOT
HETATM    1  C   UNK N   1      22.253  18.892   3.754  0.00  0.00     0.039 A 
HETATM    2  C   UNK N   1      23.380  18.248   4.276  0.00  0.00     0.030 A 
HETATM    3  C   UNK N   1      22.422  20.051   2.974  0.00  0.00    -0.021 A 
HETATM    4  C   UNK N   1      23.706  20.585   2.788  0.00  0.00     0.016 A 
HETATM    5  C   UNK N   1      24.817  19.957   3.347  0.00  0.00    -0.061 A 
HETATM    6  C   UNK N   1      24.658  18.780   4.078  0.00  0.00     0.009 A 
HETATM    7  C   UNK N   1      26.169  20.548   3.167  0.00  0.00     0.048 C 
ENDROOT
BRANCH   1   8
HETATM    8  N   UNK N   1      20.923  18.412   3.982  0.00  0.00    -0.352 N 
HETATM    9  H   UNK N   1      20.230  19.107   3.917  0.00  0.00     0.166 HD
BRANCH   8  10
HETATM   10  C   UNK N   1      20.416  17.112   4.286  0.00  0.00     0.093 A 
HETATM   11  C   UNK N   1      20.016  16.146   3.316  0.00  0.00     0.144 A 
HETATM   12  C   UNK N   1      19.593  14.879   3.720  0.00  0.00     0.045 A 
HETATM   13  F   UNK N   1      20.059  16.381   1.988  0.00  0.00    -0.204 F 
HETATM   14  C   UNK N   1      19.559  14.536   5.070  0.00  0.00     0.005 A 
HETATM   15  C   UNK N   1      19.953  15.463   6.029  0.00  0.00     0.026 A 
HETATM   16  C   UNK N   1      20.376  16.736   5.648  0.00  0.00     0.063 A 
HETATM   17 Cl   UNK N   1      20.892  17.856   6.901  0.00  0.00    -0.082 Cl
ENDBRANCH   8  10
ENDBRANCH   1   8
BRANCH   3  18
HETATM   18  C   UNK N   1      21.234  20.749   2.380  0.00  0.00     0.150 C 
BRANCH  18  19
HETATM   19  C   UNK N   1      20.961  20.303   0.975  0.00  0.00     0.143 C 
HETATM   20  O   UNK N   1      21.190  21.053   0.038  0.00  0.00    -0.650 OA
BRANCH  19  21
HETATM   21  O   UNK N   1      20.434  19.087   0.745  0.00  0.00    -0.776 OA
HETATM   22  H   UNK N   1      20.841  18.244   0.719  0.00  0.00     0.167 HD
ENDBRANCH  19  21
ENDBRANCH  18  19
ENDBRANCH   3  18
TORSDOF 5
ENDMDL
MODEL 3
REMARK VINA RESULT:      -6.5      1.959      4.917
REMARK  5 active torsions:
REMARK  status: ('A' for Active; 'I' for Inactive)
REMARK    1  A    between atoms: C_1  and  N_7 
REMARK    2  A    between atoms: N_7  and  C_10 
REMARK    3  A    between atoms: C_12  and  C_17 
REMARK    4  A    between atoms: C_17  and  C_18 
REMARK    5  A    between atoms: C_18  and  O_20 
ROOT
HETATM    1  C   UNK N   1      28.676  18.364   5.626  0.00  0.00     0.039 A 
HETATM    2  C   UNK N   1      28.160  19.129   4.574  0.00  0.00     0.030 A 
HETATM    3  C   UNK N   1      28.383  18.733   6.952  0.00  0.00    -0.021 A 
HETATM    4  C   UNK N   1      27.640  19.896   7.205  0.00  0.00     0.016 A 
HETATM    5  C   UNK N   1      27.166  20.671   6.149  0.00  0.00    -0.061 A 
HETATM    6  C   UNK N   1      27.411  20.281   4.833  0.00  0.00     0.009 A 
HETATM    7  C   UNK N   1      26.404  21.917   6.430  0.00  0.00     0.048 C 
ENDROOT
BRANCH   1   8
HETATM    8  N   UNK N   1      29.494  17.211   5.404  0.00  0.00    -0.352 N 
HETATM    9  H   UNK N   1      29.073  16.363   5.671  0.00  0.00     0.166 HD
BRANCH   8  10
HETATM   10  C   UNK N   1      30.809  17.062   4.867  0.00  0.00     0.093 A 
HETATM   11  C   UNK N   1      32.016  17.261   5.601  0.00  0.00     0.144 A 
HETATM   12  C   UNK N   1      33.252  17.027   4.996  0.00  0.00     0.045 A 
HETATM   13  F   UNK N   1      32.031  17.640   6.896  0.00  0.00    -0.204 F 
HETATM   14  C   UNK N   1      33.328  16.592   3.676  0.00  0.00     0.005 A 
HETATM   15  C   UNK N   1      32.161  16.384   2.948  0.00  0.00     0.026 A 
HETATM   16  C   UNK N   1      30.916  16.615   3.531  0.00  0.00     0.063 A 
HETATM   17 Cl   UNK N   1      29.474  16.307   2.573  0.00  0.00    -0.082 Cl
ENDBRANCH   8  10
ENDBRANCH   1   8
BRANCH   3  18
HETATM   18  C   UNK N   1      28.902  17.918   8.101  0.00  0.00     0.150 C 
BRANCH  18  19
HETATM   19  C   UNK N   1      27.829  17.081   8.730  0.00  0.00     0.143 C 
HETATM   20  O   UNK N   1      27.806  16.923   9.940  0.00  0.00    -0.650 OA
BRANCH  19  21
HETATM   21  O   UNK N   1      26.908  16.477   7.958  0.00  0.00    -0.776 OA
HETATM   22  H   UNK N   1      26.388  16.815   7.256  0.00  0.00     0.167 HD
ENDBRANCH  19  21
ENDBRANCH  18  19
ENDBRANCH   3  18
TORSDOF 5
ENDMDL
MODEL 4
REMARK VINA RESULT:      -6.4     11.366     13.407
REMARK  5 active torsions:
REMARK  status: ('A' for Active; 'I' for Inactive)
REMARK    1  A    between atoms: C_1  and  N_7 
REMARK    2  A    between atoms: N_7  and  C_10 
REMARK    3  A    between atoms: C_12  and  C_17 
REMARK    4  A    between atoms: C_17  and  C_18 
REMARK    5  A    between atoms: C_18  and  O_20 
ROOT
HETATM    1  C   UNK N   1      29.514  25.544  -4.034  0.00  0.00     0.039 A 
HETATM    2  C   UNK N   1      30.127  26.751  -4.386  0.00  0.00     0.030 A 
HETATM    3  C   UNK N   1      30.286  24.368  -3.987  0.00  0.00    -0.021 A 
HETATM    4  C   UNK N   1      31.637  24.406  -4.360  0.00  0.00     0.016 A 
HETATM    5  C   UNK N   1      32.227  25.607  -4.748  0.00  0.00    -0.061 A 
HETATM    6  C   UNK N   1      31.478  26.783  -4.746  0.00  0.00     0.009 A 
HETATM    7  C   UNK N   1      33.653  25.629  -5.168  0.00  0.00     0.048 C 
ENDROOT
BRANCH   1   8
HETATM    8  N   UNK N   1      28.121  25.458  -3.713  0.00  0.00    -0.352 N 
HETATM    9  H   UNK N   1      27.919  24.857  -2.961  0.00  0.00     0.166 HD
BRANCH   8  10
HETATM   10  C   UNK N   1      26.970  26.082  -4.283  0.00  0.00     0.093 A 
HETATM   11  C   UNK N   1      26.429  27.333  -3.863  0.00  0.00     0.144 A 
HETATM   12  C   UNK N   1      25.335  27.885  -4.531  0.00  0.00     0.045 A 
HETATM   13  F   UNK N   1      26.953  28.053  -2.849  0.00  0.00    -0.204 F 
HETATM   14  C   UNK N   1      24.759  27.230  -5.617  0.00  0.00     0.005 A 
HETATM   15  C   UNK N   1      25.279  26.013  -6.046  0.00  0.00     0.026 A 
HETATM   16  C   UNK N   1      26.368  25.441  -5.390  0.00  0.00     0.063 A 
HETATM   17 Cl   UNK N   1      27.002  23.917  -5.995  0.00  0.00    -0.082 Cl
ENDBRANCH   8  10
ENDBRANCH   1   8
BRANCH   3  18
HETATM   18  C   UNK N   1      29.661  23.063  -3.588  0.00  0.00     0.150 C 
BRANCH  18  19
HETATM   19  C   UNK N   1      29.404  22.986  -2.114  0.00  0.00     0.143 C 
HETATM   20  O   UNK N   1      28.259  22.974  -1.690  0.00  0.00    -0.650 OA
BRANCH  19  21
HETATM   21  O   UNK N   1      30.436  22.962  -1.251  0.00  0.00    -0.776 OA
HETATM   22  H   UNK N   1      30.758  22.271  -0.708  0.00  0.00     0.167 HD
ENDBRANCH  19  21
ENDBRANCH  18  19
ENDBRANCH   3  18
TORSDOF 5
ENDMDL
MODEL 5
REMARK VINA RESULT:      -6.3     11.428     13.560
REMARK  5 active torsions:
REMARK  status: ('A' for Active; 'I' for Inactive)
REMARK    1  A    between atoms: C_1  and  N_7 
REMARK    2  A    between atoms: N_7  and  C_10 
REMARK    3  A    between atoms: C_12  and  C_17 
REMARK    4  A    between atoms: C_17  and  C_18 
REMARK    5  A    between atoms: C_18  and  O_20 
ROOT
HETATM    1  C   UNK N   1      28.852  23.326  -5.175  0.00  0.00     0.039 A 
HETATM    2  C   UNK N   1      28.249  22.649  -6.242  0.00  0.00     0.030 A 
HETATM    3  C   UNK N   1      30.137  22.937  -4.752  0.00  0.00    -0.021 A 
HETATM    4  C   UNK N   1      30.766  21.837  -5.354  0.00  0.00     0.016 A 
HETATM    5  C   UNK N   1      30.138  21.146  -6.388  0.00  0.00    -0.061 A 
HETATM    6  C   UNK N   1      28.887  21.560  -6.844  0.00  0.00     0.009 A 
HETATM    7  C   UNK N   1      30.802  19.964  -6.999  0.00  0.00     0.048 C 
ENDROOT
BRANCH   1   8
HETATM    8  N   UNK N   1      28.208  24.408  -4.495  0.00  0.00    -0.352 N 
HETATM    9  H   UNK N   1      28.433  24.471  -3.539  0.00  0.00     0.166 HD
BRANCH   8  10
HETATM   10  C   UNK N   1      27.300  25.415  -4.945  0.00  0.00     0.093 A 
HETATM   11  C   UNK N   1      25.925  25.193  -5.250  0.00  0.00     0.144 A 
HETATM   12  C   UNK N   1      25.108  26.261  -5.622  0.00  0.00     0.045 A 
HETATM   13  F   UNK N   1      25.342  23.979  -5.162  0.00  0.00    -0.204 F 
HETATM   14  C   UNK N   1      25.616  27.556  -5.696  0.00  0.00     0.005 A 
HETATM   15  C   UNK N   1      26.954  27.791  -5.394  0.00  0.00     0.026 A 
HETATM   16  C   UNK N   1      27.789  26.738  -5.024  0.00  0.00     0.063 A 
HETATM   17 Cl   UNK N   1      29.463  27.099  -4.623  0.00  0.00    -0.082 Cl
ENDBRANCH   8  10
ENDBRANCH   1   8
BRANCH   3  18
HETATM   18  C   UNK N   1      30.819  23.660  -3.628  0.00  0.00     0.150 C 
BRANCH  18  19
HETATM   19  C   UNK N   1      30.903  22.823  -2.387  0.00  0.00     0.143 C 
HETATM   20  O   UNK N   1      30.122  23.011  -1.467  0.00  0.00    -0.650 OA
BRANCH  19  21
HETATM   21  O   UNK N   1      31.860  21.885  -2.272  0.00  0.00    -0.776 OA
HETATM   22  H   UNK N   1      31.794  20.972  -2.071  0.00  0.00     0.167 HD
ENDBRANCH  19  21
ENDBRANCH  18  19
ENDBRANCH   3  18
TORSDOF 5
ENDMDL
MODEL 6
REMARK VINA RESULT:      -6.3      4.032      6.084
REMARK  5 active torsions:
REMARK  status: ('A' for Active; 'I' for Inactive)
REMARK    1  A    between atoms: C_1  and  N_7 
REMARK    2  A    between atoms: N_7  and  C_10 
REMARK    3  A    between atoms: C_12  and  C_17 
REMARK    4  A    between atoms: C_17  and  C_18 
REMARK    5  A    between atoms: C_18  and  O_20 
ROOT
HETATM    1  C   UNK N   1      31.853  16.319   7.084  0.00  0.00     0.039 A 
HETATM    2  C   UNK N   1      30.532  16.230   6.629  0.00  0.00     0.030 A 
HETATM    3  C   UNK N   1      32.152  17.172   8.164  0.00  0.00    -0.021 A 
HETATM    4  C   UNK N   1      31.142  17.969   8.723  0.00  0.00     0.016 A 
HETATM    5  C   UNK N   1      29.839  17.901   8.235  0.00  0.00    -0.061 A 
HETATM    6  C   UNK N   1      29.529  17.020   7.198  0.00  0.00     0.009 A 
HETATM    7  C   UNK N   1      28.785  18.772   8.816  0.00  0.00     0.048 C 
ENDROOT
BRANCH   1   8
HETATM    8  N   UNK N   1      32.919  15.570   6.491  0.00  0.00    -0.352 N 
HETATM    9  H   UNK N   1      33.600  15.266   7.133  0.00  0.00     0.166 HD
BRANCH   8  10
HETATM   10  C   UNK N   1      33.178  15.182   5.142  0.00  0.00     0.093 A 
HETATM   11  C   UNK N   1      33.226  16.076   4.032  0.00  0.00     0.144 A 
HETATM   12  C   UNK N   1      33.551  15.600   2.761  0.00  0.00     0.045 A 
HETATM   13  F   UNK N   1      33.005  17.402   4.150  0.00  0.00    -0.204 F 
HETATM   14  C   UNK N   1      33.837  14.253   2.555  0.00  0.00     0.005 A 
HETATM   15  C   UNK N   1      33.802  13.368   3.629  0.00  0.00     0.026 A 
HETATM   16  C   UNK N   1      33.476  13.821   4.906  0.00  0.00     0.063 A 
HETATM   17 Cl   UNK N   1      33.478  12.663   6.229  0.00  0.00    -0.082 Cl
ENDBRANCH   8  10
ENDBRANCH   1   8
BRANCH   3  18
HETATM   18  C   UNK N   1      33.554  17.270   8.690  0.00  0.00     0.150 C 
BRANCH  18  19
HETATM   19  C   UNK N   1      34.388  18.233   7.899  0.00  0.00     0.143 C 
HETATM   20  O   UNK N   1      34.493  18.103   6.689  0.00  0.00    -0.650 OA
BRANCH  19  21
HETATM   21  O   UNK N   1      35.047  19.224   8.526  0.00  0.00    -0.776 OA
HETATM   22  H   UNK N   1      35.035  19.487   9.424  0.00  0.00     0.167 HD
ENDBRANCH  19  21
ENDBRANCH  18  19
ENDBRANCH   3  18
TORSDOF 5
ENDMDL
MODEL 7
REMARK VINA RESULT:      -6.3      1.838      5.096
REMARK  5 active torsions:
REMARK  status: ('A' for Active; 'I' for Inactive)
REMARK    1  A    between atoms: C_1  and  N_7 
REMARK    2  A    between atoms: N_7  and  C_10 
REMARK    3  A    between atoms: C_12  and  C_17 
REMARK    4  A    between atoms: C_17  and  C_18 
REMARK    5  A    between atoms: C_18  and  O_20 
ROOT
HETATM    1  C   UNK N   1      29.400  17.805   6.804  0.00  0.00     0.039 A 
HETATM    2  C   UNK N   1      29.040  17.842   5.452  0.00  0.00     0.030 A 
HETATM    3  C   UNK N   1      28.773  18.685   7.706  0.00  0.00    -0.021 A 
HETATM    4  C   UNK N   1      27.853  19.631   7.232  0.00  0.00     0.016 A 
HETATM    5  C   UNK N   1      27.533  19.685   5.878  0.00  0.00    -0.061 A 
HETATM    6  C   UNK N   1      28.114  18.781   4.988  0.00  0.00     0.009 A 
HETATM    7  C   UNK N   1      26.578  20.711   5.383  0.00  0.00     0.048 C 
ENDROOT
BRANCH   1   8
HETATM    8  N   UNK N   1      30.386  16.898   7.309  0.00  0.00    -0.352 N 
HETATM    9  H   UNK N   1      30.051  16.290   8.006  0.00  0.00     0.166 HD
BRANCH   8  10
HETATM   10  C   UNK N   1      31.765  16.711   6.988  0.00  0.00     0.093 A 
HETATM   11  C   UNK N   1      32.828  17.541   7.451  0.00  0.00     0.144 A 
HETATM   12  C   UNK N   1      34.150  17.232   7.129  0.00  0.00     0.045 A 
HETATM   13  F   UNK N   1      32.626  18.621   8.235  0.00  0.00    -0.204 F 
HETATM   14  C   UNK N   1      34.454  16.111   6.360  0.00  0.00     0.005 A 
HETATM   15  C   UNK N   1      33.429  15.285   5.908  0.00  0.00     0.026 A 
HETATM   16  C   UNK N   1      32.101  15.577   6.214  0.00  0.00     0.063 A 
HETATM   17 Cl   UNK N   1      30.850  14.482   5.642  0.00  0.00    -0.082 Cl
ENDBRANCH   8  10
ENDBRANCH   1   8
BRANCH   3  18
HETATM   18  C   UNK N   1      29.120  18.651   9.166  0.00  0.00     0.150 C 
BRANCH  18  19
HETATM   19  C   UNK N   1      28.725  17.356   9.810  0.00  0.00     0.143 C 
HETATM   20  O   UNK N   1      27.579  16.947   9.714  0.00  0.00    -0.650 OA
BRANCH  19  21
HETATM   21  O   UNK N   1      29.627  16.656  10.522  0.00  0.00    -0.776 OA
HETATM   22  H   UNK N   1      29.678  16.491  11.443  0.00  0.00     0.167 HD
ENDBRANCH  19  21
ENDBRANCH  18  19
ENDBRANCH   3  18
TORSDOF 5
ENDMDL
MODEL 8
REMARK VINA RESULT:      -6.3     13.551     16.008
REMARK  5 active torsions:
REMARK  status: ('A' for Active; 'I' for Inactive)
REMARK    1  A    between atoms: C_1  and  N_7 
REMARK    2  A    between atoms: N_7  and  C_10 
REMARK    3  A    between atoms: C_12  and  C_17 
REMARK    4  A    between atoms: C_17  and  C_18 
REMARK    5  A    between atoms: C_18  and  O_20 
ROOT
HETATM    1  C   UNK N   1      25.776  25.399  -6.852  0.00  0.00     0.039 A 
HETATM    2  C   UNK N   1      25.820  25.020  -8.198  0.00  0.00     0.030 A 
HETATM    3  C   UNK N   1      25.788  24.403  -5.856  0.00  0.00    -0.021 A 
HETATM    4  C   UNK N   1      25.773  23.050  -6.224  0.00  0.00     0.016 A 
HETATM    5  C   UNK N   1      25.776  22.685  -7.569  0.00  0.00    -0.061 A 
HETATM    6  C   UNK N   1      25.815  23.669  -8.557  0.00  0.00     0.009 A 
HETATM    7  C   UNK N   1      25.731  21.248  -7.946  0.00  0.00     0.048 C 
ENDROOT
BRANCH   1   8
HETATM    8  N   UNK N   1      25.721  26.770  -6.443  0.00  0.00    -0.352 N 
HETATM    9  H   UNK N   1      24.818  27.083  -6.210  0.00  0.00     0.166 HD
BRANCH   8  10
HETATM   10  C   UNK N   1      26.734  27.768  -6.312  0.00  0.00     0.093 A 
HETATM   11  C   UNK N   1      27.698  28.088  -7.314  0.00  0.00     0.144 A 
HETATM   12  C   UNK N   1      28.606  29.127  -7.108  0.00  0.00     0.045 A 
HETATM   13  F   UNK N   1      27.760  27.447  -8.500  0.00  0.00    -0.204 F 
HETATM   14  C   UNK N   1      28.585  29.869  -5.930  0.00  0.00     0.005 A 
HETATM   15  C   UNK N   1      27.646  29.577  -4.945  0.00  0.00     0.026 A 
HETATM   16  C   UNK N   1      26.732  28.540  -5.129  0.00  0.00     0.063 A 
HETATM   17 Cl   UNK N   1      25.549  28.236  -3.864  0.00  0.00    -0.082 Cl
ENDBRANCH   8  10
ENDBRANCH   1   8
BRANCH   3  18
HETATM   18  C   UNK N   1      25.767  24.779  -4.404  0.00  0.00     0.150 C 
BRANCH  18  19
HETATM   19  C   UNK N   1      27.051  24.434  -3.712  0.00  0.00     0.143 C 
HETATM   20  O   UNK N   1      27.032  23.898  -2.615  0.00  0.00    -0.650 OA
BRANCH  19  21
HETATM   21  O   UNK N   1      28.229  24.742  -4.286  0.00  0.00    -0.776 OA
HETATM   22  H   UNK N   1      28.602  25.574  -4.496  0.00  0.00     0.167 HD
ENDBRANCH  19  21
ENDBRANCH  18  19
ENDBRANCH   3  18
TORSDOF 5
ENDMDL
MODEL 9
REMARK VINA RESULT:      -6.3      1.800      2.098
REMARK  5 active torsions:
REMARK  status: ('A' for Active; 'I' for Inactive)
REMARK    1  A    between atoms: C_1  and  N_7 
REMARK    2  A    between atoms: N_7  and  C_10 
REMARK    3  A    between atoms: C_12  and  C_17 
REMARK    4  A    between atoms: C_17  and  C_18 
REMARK    5  A    between atoms: C_18  and  O_20 
ROOT
HETATM    1  C   UNK N   1      29.819  17.585   6.912  0.00  0.00     0.039 A 
HETATM    2  C   UNK N   1      30.668  17.193   5.872  0.00  0.00     0.030 A 
HETATM    3  C   UNK N   1      30.375  17.959   8.150  0.00  0.00    -0.021 A 
HETATM    4  C   UNK N   1      31.761  17.868   8.348  0.00  0.00     0.016 A 
HETATM    5  C   UNK N   1      32.592  17.438   7.317  0.00  0.00    -0.061 A 
HETATM    6  C   UNK N   1      32.050  17.115   6.073  0.00  0.00     0.009 A 
HETATM    7  C   UNK N   1      34.056  17.318   7.547  0.00  0.00     0.048 C 
ENDROOT
BRANCH   1   8
HETATM    8  N   UNK N   1      28.395  17.623   6.765  0.00  0.00    -0.352 N 
HETATM    9  H   UNK N   1      27.901  17.402   7.587  0.00  0.00     0.166 HD
BRANCH   8  10
HETATM   10  C   UNK N   1      27.559  17.922   5.647  0.00  0.00     0.093 A 
HETATM   11  C   UNK N   1      27.073  16.960   4.713  0.00  0.00     0.144 A 
HETATM   12  C   UNK N   1      26.208  17.350   3.690  0.00  0.00     0.045 A 
HETATM   13  F   UNK N   1      27.383  15.648   4.785  0.00  0.00    -0.204 F 
HETATM   14  C   UNK N   1      25.801  18.676   3.566  0.00  0.00     0.005 A 
HETATM   15  C   UNK N   1      26.259  19.626   4.474  0.00  0.00     0.026 A 
HETATM   16  C   UNK N   1      27.127  19.260   5.501  0.00  0.00     0.063 A 
HETATM   17 Cl   UNK N   1      27.648  20.497   6.637  0.00  0.00    -0.082 Cl
ENDBRANCH   8  10
ENDBRANCH   1   8
BRANCH   3  18
HETATM   18  C   UNK N   1      29.491  18.408   9.276  0.00  0.00     0.150 C 
BRANCH  18  19
HETATM   19  C   UNK N   1      28.860  17.253   9.994  0.00  0.00     0.143 C 
HETATM   20  O   UNK N   1      27.706  16.935   9.750  0.00  0.00    -0.650 OA
BRANCH  19  21
HETATM   21  O   UNK N   1      29.554  16.584  10.932  0.00  0.00    -0.776 OA
HETATM   22  H   UNK N   1      29.584  16.697  11.861  0.00  0.00     0.167 HD
ENDBRANCH  19  21
ENDBRANCH  18  19
ENDBRANCH   3  18
TORSDOF 5
ENDMDL
