MODEL 1
REMARK VINA RESULT:      -9.1      0.000      0.000
REMARK  12 active torsions:
REMARK  status: ('A' for Active; 'I' for Inactive)
REMARK    1  A    between atoms: C_13  and  O_18 
REMARK    2  A    between atoms: C_15  and  C_19 
REMARK    3  A    between atoms: C_19  and  C_24 
REMARK    4  A    between atoms: C_24  and  C_29 
REMARK    5  A    between atoms: C_32  and  O_38 
REMARK    6  A    between atoms: C_39  and  O_46 
REMARK    7  A    between atoms: C_45  and  O_50 
REMARK    8  A    between atoms: C_47  and  O_52 
REMARK    9  A    between atoms: O_50  and  C_65 
REMARK   10  A    between atoms: C_51  and  O_55 
REMARK   11  A    between atoms: C_65  and  C_66 
REMARK   12  A    between atoms: C_66  and  O_67 
ROOT
HETATM    1  N   UNK N   1      27.475  18.426   5.290  0.00  0.00    -0.331 N 
HETATM    2  C   UNK N   1      26.063  18.671   5.565  0.00  0.00     0.187 C 
HETATM    3  C   UNK N   1      27.996  17.172   5.461  0.00  0.00     0.296 C 
HETATM    4  C   UNK N   1      28.306  19.515   4.811  0.00  0.00     0.127 C 
HETATM    5  C   UNK N   1      25.204  17.871   4.613  0.00  0.00     0.282 C 
HETATM    6  C   UNK N   1      25.713  20.158   5.439  0.00  0.00     0.035 C 
HETATM    7  C   UNK N   1      29.352  16.827   5.006  0.00  0.00     0.278 C 
HETATM    8  O   UNK N   1      27.289  16.269   5.891  0.00  0.00    -0.264 OA
HETATM    9  C   UNK N   1      28.187  20.715   5.754  0.00  0.00     0.020 C 
HETATM   10  O   UNK N   1      24.612  16.738   5.068  0.00  0.00    -0.314 OA
HETATM   11  O   UNK N   1      25.130  18.190   3.435  0.00  0.00    -0.263 OA
HETATM   12  C   UNK N   1      26.740  20.999   6.196  0.00  0.00     0.004 C 
HETATM   13  C   UNK N   1      29.468  16.124   3.669  0.00  0.00     0.238 C 
HETATM   14  O   UNK N   1      30.322  17.063   5.711  0.00  0.00    -0.281 OA
HETATM   15  C   UNK N   1      23.498  16.085   4.567  0.00  0.00     0.142 C 
HETATM   16  O   UNK N   1      28.526  15.050   3.712  0.00  0.00    -0.343 OA
HETATM   17  C   UNK N   1      30.908  15.686   3.295  0.00  0.00     0.053 C 
HETATM   18  C   UNK N   1      23.444  15.954   3.029  0.00  0.00     0.112 C 
HETATM   19  C   UNK N   1      29.009  13.768   3.369  0.00  0.00     0.128 C 
HETATM   20  C   UNK N   1      31.359  14.502   4.125  0.00  0.00     0.013 C 
HETATM   21  C   UNK N   1      31.934  16.810   3.325  0.00  0.00     0.016 C 
HETATM   22  C   UNK N   1      24.585  15.226   2.388  0.00  0.00     0.136 C 
HETATM   23  C   UNK N   1      29.119  13.649   1.851  0.00  0.00     0.068 C 
HETATM   24  C   UNK N   1      30.304  13.398   4.114  0.00  0.00     0.033 C 
HETATM   25  C   UNK N   1      24.921  13.802   2.711  0.00  0.00     0.074 C 
HETATM   26  O   UNK N   1      25.254  15.806   1.548  0.00  0.00    -0.297 OA
HETATM   27  C   UNK N   1      29.437  12.229   1.376  0.00  0.00     0.151 C 
HETATM   28  C   UNK N   1      23.887  12.748   2.408  0.00  0.00    -0.010 C 
HETATM   29  C   UNK N   1      25.433  13.632   4.128  0.00  0.00     0.022 C 
HETATM   30  C   UNK N   1      28.238  11.289   1.382  0.00  0.00    -0.055 C 
HETATM   31  C   UNK N   1      23.349  12.504   1.202  0.00  0.00    -0.056 C 
HETATM   32  C   UNK N   1      28.295  10.041   0.905  0.00  0.00     0.005 C 
HETATM   33  C   UNK N   1      26.925  11.731   1.912  0.00  0.00     0.046 C 
HETATM   34  C   UNK N   1      22.558  11.233   1.040  0.00  0.00     0.183 C 
HETATM   35  C   UNK N   1      23.687  13.337   0.003  0.00  0.00     0.046 C 
HETATM   36  C   UNK N   1      29.496   9.427   0.324  0.00  0.00     0.000 C 
HETATM   37  C   UNK N   1      23.324  10.171   0.212  0.00  0.00     0.223 C 
HETATM   38  C   UNK N   1      29.463   8.302  -0.411  0.00  0.00    -0.000 C 
HETATM   39  C   UNK N   1      22.782   8.761   0.415  0.00  0.00     0.162 C 
HETATM   40  C   UNK N   1      28.257   7.506  -0.769  0.00  0.00    -0.004 C 
HETATM   41  C   UNK N   1      23.435   7.543  -0.217  0.00  0.00     0.055 C 
HETATM   42  O   UNK N   1      21.820   8.586   1.148  0.00  0.00    -0.295 OA
HETATM   43  C   UNK N   1      27.038   7.704  -0.244  0.00  0.00    -0.022 C 
HETATM   44  C   UNK N   1      24.688   7.833  -1.036  0.00  0.00     0.020 C 
HETATM   45  C   UNK N   1      22.445   6.773  -1.070  0.00  0.00     0.018 C 
HETATM   46  C   UNK N   1      25.820   6.901  -0.631  0.00  0.00     0.005 C 
HETATM   47  C   UNK N   1      26.076   5.896  -1.744  0.00  0.00     0.014 C 
ENDROOT
BRANCH  15  48
HETATM   48  C   UNK N   1      22.241  16.755   5.131  0.00  0.00     0.012 C 
HETATM   49  C   UNK N   1      21.021  16.661   4.226  0.00  0.00     0.012 C 
BRANCH  48  50
HETATM   50  C   UNK N   1      21.955  16.441   6.606  0.00  0.00     0.011 C 
BRANCH  50  51
HETATM   51  C   UNK N   1      21.259  15.114   6.893  0.00  0.00    -0.012 C 
HETATM   52  C   UNK N   1      22.350  14.046   7.092  0.00  0.00     0.039 C 
HETATM   53  C   UNK N   1      21.859  12.915   7.994  0.00  0.00     0.150 C 
HETATM   54  C   UNK N   1      21.551  13.471   9.398  0.00  0.00     0.150 C 
HETATM   55  C   UNK N   1      21.064  14.932   9.397  0.00  0.00     0.035 C 
HETATM   56  C   UNK N   1      20.319  15.239   8.105  0.00  0.00     0.007 C 
BRANCH  53  57
HETATM   57  O   UNK N   1      20.717  12.326   7.444  0.00  0.00    -0.388 OA
HETATM   58  C   UNK N   1      21.197  11.509   6.421  0.00  0.00     0.202 C 
ENDBRANCH  53  57
BRANCH  54  59
HETATM   59  O   UNK N   1      22.680  13.355  10.213  0.00  0.00    -0.381 OA
BRANCH  59  60
HETATM   60  C   UNK N   1      22.641  12.045  10.705  0.00  0.00     0.194 C 
BRANCH  60  61
HETATM   61  C   UNK N   1      23.410  11.937  12.011  0.00  0.00     0.190 C 
BRANCH  61  62
HETATM   62  O   UNK N   1      24.740  12.312  11.816  0.00  0.00    -0.399 OA
HETATM   63  H   UNK N   1      25.468  11.684  11.934  0.00  0.00     0.209 HD
ENDBRANCH  61  62
ENDBRANCH  60  61
ENDBRANCH  59  60
ENDBRANCH  54  59
ENDBRANCH  50  51
ENDBRANCH  48  50
ENDBRANCH  15  48
BRANCH  34  64
HETATM   64  O   UNK N   1      21.307  11.490   0.474  0.00  0.00    -0.388 OA
HETATM   65  H   UNK N   1      21.087  11.566  -0.467  0.00  0.00     0.210 HD
ENDBRANCH  34  64
BRANCH  13  66
HETATM   66  O   UNK N   1      29.042  17.023   2.688  0.00  0.00    -0.359 OA
HETATM   67  H   UNK N   1      28.979  17.841   2.172  0.00  0.00     0.213 HD
ENDBRANCH  13  66
BRANCH  37  68
HETATM   68  O   UNK N   1      24.681  10.192   0.553  0.00  0.00    -0.380 OA
HETATM   69  C   UNK N   1      24.739   9.590   1.816  0.00  0.00     0.202 C 
ENDBRANCH  37  68
BRANCH  27  70
HETATM   70  O   UNK N   1      29.999  12.313   0.102  0.00  0.00    -0.386 OA
HETATM   71  C   UNK N   1      31.377  12.306   0.336  0.00  0.00     0.202 C 
ENDBRANCH  27  70
TORSDOF 12
ENDMDL
MODEL 2
REMARK VINA RESULT:      -8.7      2.925      7.869
REMARK  12 active torsions:
REMARK  status: ('A' for Active; 'I' for Inactive)
REMARK    1  A    between atoms: C_13  and  O_18 
REMARK    2  A    between atoms: C_15  and  C_19 
REMARK    3  A    between atoms: C_19  and  C_24 
REMARK    4  A    between atoms: C_24  and  C_29 
REMARK    5  A    between atoms: C_32  and  O_38 
REMARK    6  A    between atoms: C_39  and  O_46 
REMARK    7  A    between atoms: C_45  and  O_50 
REMARK    8  A    between atoms: C_47  and  O_52 
REMARK    9  A    between atoms: O_50  and  C_65 
REMARK   10  A    between atoms: C_51  and  O_55 
REMARK   11  A    between atoms: C_65  and  C_66 
REMARK   12  A    between atoms: C_66  and  O_67 
ROOT
HETATM    1  N   UNK N   1      28.203  16.839   6.050  0.00  0.00    -0.331 N 
HETATM    2  C   UNK N   1      29.646  16.867   5.837  0.00  0.00     0.187 C 
HETATM    3  C   UNK N   1      27.357  16.726   4.979  0.00  0.00     0.296 C 
HETATM    4  C   UNK N   1      27.681  16.905   7.403  0.00  0.00     0.127 C 
HETATM    5  C   UNK N   1      30.108  15.556   5.244  0.00  0.00     0.282 C 
HETATM    6  C   UNK N   1      30.404  17.129   7.144  0.00  0.00     0.035 C 
HETATM    7  C   UNK N   1      25.916  16.489   5.151  0.00  0.00     0.278 C 
HETATM    8  O   UNK N   1      27.811  16.699   3.842  0.00  0.00    -0.264 OA
HETATM    9  C   UNK N   1      28.264  18.121   8.127  0.00  0.00     0.020 C 
HETATM   10  O   UNK N   1      30.387  15.506   3.917  0.00  0.00    -0.314 OA
HETATM   11  O   UNK N   1      30.131  14.545   5.931  0.00  0.00    -0.263 OA
HETATM   12  C   UNK N   1      29.773  18.308   7.883  0.00  0.00     0.004 C 
HETATM   13  C   UNK N   1      25.436  15.058   5.014  0.00  0.00     0.238 C 
HETATM   14  O   UNK N   1      25.152  17.422   5.348  0.00  0.00    -0.281 OA
HETATM   15  C   UNK N   1      31.187  14.604   3.237  0.00  0.00     0.142 C 
HETATM   16  O   UNK N   1      26.015  14.569   3.802  0.00  0.00    -0.343 OA
HETATM   17  C   UNK N   1      23.896  14.885   5.093  0.00  0.00     0.053 C 
HETATM   18  C   UNK N   1      31.015  13.125   3.648  0.00  0.00     0.112 C 
HETATM   19  C   UNK N   1      25.135  13.963   2.879  0.00  0.00     0.128 C 
HETATM   20  C   UNK N   1      23.218  15.391   3.837  0.00  0.00     0.013 C 
HETATM   21  C   UNK N   1      23.262  15.476   6.345  0.00  0.00     0.016 C 
HETATM   22  C   UNK N   1      29.640  12.552   3.488  0.00  0.00     0.136 C 
HETATM   23  C   UNK N   1      24.813  12.541   3.332  0.00  0.00     0.068 C 
HETATM   24  C   UNK N   1      23.888  14.818   2.590  0.00  0.00     0.033 C 
HETATM   25  C   UNK N   1      28.938  12.488   2.165  0.00  0.00     0.074 C 
HETATM   26  O   UNK N   1      29.077  12.093   4.468  0.00  0.00    -0.297 OA
HETATM   27  C   UNK N   1      24.033  11.735   2.291  0.00  0.00     0.151 C 
HETATM   28  C   UNK N   1      29.569  11.665   1.072  0.00  0.00    -0.010 C 
HETATM   29  C   UNK N   1      28.574  13.862   1.634  0.00  0.00     0.022 C 
HETATM   30  C   UNK N   1      24.890  11.197   1.153  0.00  0.00    -0.055 C 
HETATM   31  C   UNK N   1      29.860  10.357   1.148  0.00  0.00    -0.056 C 
HETATM   32  C   UNK N   1      24.408  10.386   0.205  0.00  0.00     0.005 C 
HETATM   33  C   UNK N   1      26.329  11.543   1.051  0.00  0.00     0.046 C 
HETATM   34  C   UNK N   1      30.213   9.649  -0.134  0.00  0.00     0.183 C 
HETATM   35  C   UNK N   1      29.643   9.570   2.405  0.00  0.00     0.046 C 
HETATM   36  C   UNK N   1      23.018   9.916   0.141  0.00  0.00     0.000 C 
HETATM   37  C   UNK N   1      29.072   8.720  -0.620  0.00  0.00     0.223 C 
HETATM   38  C   UNK N   1      22.627   8.883  -0.626  0.00  0.00    -0.000 C 
HETATM   39  C   UNK N   1      29.191   8.362  -2.096  0.00  0.00     0.162 C 
HETATM   40  C   UNK N   1      23.490   8.051  -1.508  0.00  0.00    -0.004 C 
HETATM   41  C   UNK N   1      28.135   7.544  -2.820  0.00  0.00     0.055 C 
HETATM   42  O   UNK N   1      30.138   8.783  -2.744  0.00  0.00    -0.295 OA
HETATM   43  C   UNK N   1      24.767   8.338  -1.805  0.00  0.00    -0.022 C 
HETATM   44  C   UNK N   1      26.935   7.140  -1.970  0.00  0.00     0.020 C 
HETATM   45  C   UNK N   1      28.741   6.305  -3.452  0.00  0.00     0.018 C 
HETATM   46  C   UNK N   1      25.636   7.473  -2.685  0.00  0.00     0.005 C 
HETATM   47  C   UNK N   1      24.960   6.188  -3.141  0.00  0.00     0.014 C 
ENDROOT
BRANCH  15  48
HETATM   48  C   UNK N   1      32.645  15.063   3.344  0.00  0.00     0.012 C 
HETATM   49  C   UNK N   1      32.845  16.561   3.158  0.00  0.00     0.012 C 
BRANCH  48  50
HETATM   50  C   UNK N   1      33.421  14.467   4.526  0.00  0.00     0.011 C 
BRANCH  50  51
HETATM   51  C   UNK N   1      34.163  15.459   5.417  0.00  0.00    -0.012 C 
HETATM   52  C   UNK N   1      33.330  15.656   6.696  0.00  0.00     0.039 C 
HETATM   53  C   UNK N   1      34.214  16.052   7.877  0.00  0.00     0.150 C 
HETATM   54  C   UNK N   1      35.202  14.911   8.188  0.00  0.00     0.150 C 
HETATM   55  C   UNK N   1      35.621  14.095   6.951  0.00  0.00     0.035 C 
HETATM   56  C   UNK N   1      35.594  14.971   5.706  0.00  0.00     0.007 C 
BRANCH  53  57
HETATM   57  O   UNK N   1      34.908  17.228   7.582  0.00  0.00    -0.388 OA
HETATM   58  C   UNK N   1      34.071  18.254   8.021  0.00  0.00     0.202 C 
ENDBRANCH  53  57
BRANCH  54  59
HETATM   59  O   UNK N   1      34.655  14.057   9.149  0.00  0.00    -0.381 OA
BRANCH  59  60
HETATM   60  C   UNK N   1      35.463  14.216  10.280  0.00  0.00     0.194 C 
BRANCH  60  61
HETATM   61  C   UNK N   1      34.746  15.032  11.344  0.00  0.00     0.190 C 
BRANCH  61  62
HETATM   62  O   UNK N   1      33.365  14.901  11.196  0.00  0.00    -0.399 OA
HETATM   63  H   UNK N   1      32.776  14.827  11.963  0.00  0.00     0.209 HD
ENDBRANCH  61  62
ENDBRANCH  60  61
ENDBRANCH  59  60
ENDBRANCH  54  59
ENDBRANCH  50  51
ENDBRANCH  48  50
ENDBRANCH  15  48
BRANCH  34  64
HETATM   64  O   UNK N   1      31.406   8.935  -0.001  0.00  0.00    -0.388 OA
HETATM   65  H   UNK N   1      31.537   7.978  -0.089  0.00  0.00     0.210 HD
ENDBRANCH  34  64
BRANCH  13  66
HETATM   66  O   UNK N   1      25.988  14.331   6.072  0.00  0.00    -0.359 OA
HETATM   67  H   UNK N   1      26.417  14.149   6.922  0.00  0.00     0.213 HD
ENDBRANCH  13  66
BRANCH  37  68
HETATM   68  O   UNK N   1      27.834   9.333  -0.397  0.00  0.00    -0.380 OA
HETATM   69  C   UNK N   1      27.212   8.533   0.571  0.00  0.00     0.202 C 
ENDBRANCH  37  68
BRANCH  27  70
HETATM   70  O   UNK N   1      23.372  10.698   2.950  0.00  0.00    -0.386 OA
HETATM   71  C   UNK N   1      22.714  11.331   4.009  0.00  0.00     0.202 C 
ENDBRANCH  27  70
TORSDOF 12
ENDMDL
MODEL 3
REMARK VINA RESULT:      -8.6      3.484      7.955
REMARK  12 active torsions:
REMARK  status: ('A' for Active; 'I' for Inactive)
REMARK    1  A    between atoms: C_13  and  O_18 
REMARK    2  A    between atoms: C_15  and  C_19 
REMARK    3  A    between atoms: C_19  and  C_24 
REMARK    4  A    between atoms: C_24  and  C_29 
REMARK    5  A    between atoms: C_32  and  O_38 
REMARK    6  A    between atoms: C_39  and  O_46 
REMARK    7  A    between atoms: C_45  and  O_50 
REMARK    8  A    between atoms: C_47  and  O_52 
REMARK    9  A    between atoms: O_50  and  C_65 
REMARK   10  A    between atoms: C_51  and  O_55 
REMARK   11  A    between atoms: C_65  and  C_66 
REMARK   12  A    between atoms: C_66  and  O_67 
ROOT
HETATM    1  N   UNK N   1      25.841  18.952   4.711  0.00  0.00    -0.331 N 
HETATM    2  C   UNK N   1      27.166  18.381   4.932  0.00  0.00     0.187 C 
HETATM    3  C   UNK N   1      25.018  18.416   3.758  0.00  0.00     0.296 C 
HETATM    4  C   UNK N   1      25.401  20.068   5.527  0.00  0.00     0.127 C 
HETATM    5  C   UNK N   1      27.042  16.959   5.428  0.00  0.00     0.282 C 
HETATM    6  C   UNK N   1      27.972  19.203   5.944  0.00  0.00     0.035 C 
HETATM    7  C   UNK N   1      23.608  18.817   3.635  0.00  0.00     0.278 C 
HETATM    8  O   UNK N   1      25.413  17.491   3.058  0.00  0.00    -0.264 OA
HETATM    9  C   UNK N   1      26.439  21.193   5.473  0.00  0.00     0.020 C 
HETATM   10  O   UNK N   1      27.266  15.945   4.554  0.00  0.00    -0.314 OA
HETATM   11  O   UNK N   1      26.649  16.735   6.564  0.00  0.00    -0.263 OA
HETATM   12  C   UNK N   1      27.889  20.688   5.591  0.00  0.00     0.004 C 
HETATM   13  C   UNK N   1      22.579  17.913   4.283  0.00  0.00     0.238 C 
HETATM   14  O   UNK N   1      23.299  19.813   2.997  0.00  0.00    -0.281 OA
HETATM   15  C   UNK N   1      27.619  14.634   4.826  0.00  0.00     0.142 C 
HETATM   16  O   UNK N   1      22.897  16.589   3.848  0.00  0.00    -0.343 OA
HETATM   17  C   UNK N   1      21.106  18.326   4.027  0.00  0.00     0.053 C 
HETATM   18  C   UNK N   1      26.854  13.971   5.993  0.00  0.00     0.112 C 
HETATM   19  C   UNK N   1      21.840  15.832   3.297  0.00  0.00     0.128 C 
HETATM   20  C   UNK N   1      20.690  18.029   2.601  0.00  0.00     0.013 C 
HETATM   21  C   UNK N   1      20.780  19.762   4.414  0.00  0.00     0.016 C 
HETATM   22  C   UNK N   1      25.364  13.904   5.851  0.00  0.00     0.136 C 
HETATM   23  C   UNK N   1      20.962  15.283   4.419  0.00  0.00     0.068 C 
HETATM   24  C   UNK N   1      21.056  16.597   2.216  0.00  0.00     0.033 C 
HETATM   25  C   UNK N   1      24.690  13.187   4.720  0.00  0.00     0.074 C 
HETATM   26  O   UNK N   1      24.668  14.429   6.703  0.00  0.00    -0.297 OA
HETATM   27  C   UNK N   1      19.912  14.281   3.932  0.00  0.00     0.151 C 
HETATM   28  C   UNK N   1      24.917  11.702   4.592  0.00  0.00    -0.010 C 
HETATM   29  C   UNK N   1      24.922  13.863   3.382  0.00  0.00     0.022 C 
HETATM   30  C   UNK N   1      20.464  12.889   3.657  0.00  0.00    -0.055 C 
HETATM   31  C   UNK N   1      24.643  10.785   5.533  0.00  0.00    -0.056 C 
HETATM   32  C   UNK N   1      19.684  11.855   3.324  0.00  0.00     0.005 C 
HETATM   33  C   UNK N   1      21.917  12.608   3.763  0.00  0.00     0.046 C 
HETATM   34  C   UNK N   1      24.664   9.338   5.118  0.00  0.00     0.183 C 
HETATM   35  C   UNK N   1      24.128  11.172   6.886  0.00  0.00     0.046 C 
HETATM   36  C   UNK N   1      18.223  11.925   3.184  0.00  0.00     0.000 C 
HETATM   37  C   UNK N   1      23.239   8.739   5.017  0.00  0.00     0.223 C 
HETATM   38  C   UNK N   1      17.436  10.836   3.146  0.00  0.00    -0.000 C 
HETATM   39  C   UNK N   1      23.190   7.468   4.180  0.00  0.00     0.162 C 
HETATM   40  C   UNK N   1      17.873   9.416   3.244  0.00  0.00    -0.004 C 
HETATM   41  C   UNK N   1      21.886   6.757   3.860  0.00  0.00     0.055 C 
HETATM   42  O   UNK N   1      24.223   7.021   3.702  0.00  0.00    -0.295 OA
HETATM   43  C   UNK N   1      19.152   9.014   3.198  0.00  0.00    -0.022 C 
HETATM   44  C   UNK N   1      20.631   7.429   4.407  0.00  0.00     0.020 C 
HETATM   45  C   UNK N   1      21.922   5.312   4.321  0.00  0.00     0.018 C 
HETATM   46  C   UNK N   1      19.581   7.572   3.318  0.00  0.00     0.005 C 
HETATM   47  C   UNK N   1      18.432   6.612   3.586  0.00  0.00     0.014 C 
ENDROOT
BRANCH  15  48
HETATM   48  C   UNK N   1      29.137  14.564   5.022  0.00  0.00     0.012 C 
HETATM   49  C   UNK N   1      29.746  13.204   4.710  0.00  0.00     0.012 C 
BRANCH  48  50
HETATM   50  C   UNK N   1      29.915  15.751   4.437  0.00  0.00     0.011 C 
BRANCH  50  51
HETATM   51  C   UNK N   1      30.518  16.726   5.443  0.00  0.00    -0.012 C 
HETATM   52  C   UNK N   1      30.463  16.062   6.831  0.00  0.00     0.039 C 
HETATM   53  C   UNK N   1      31.569  16.593   7.742  0.00  0.00     0.150 C 
HETATM   54  C   UNK N   1      32.945  16.227   7.152  0.00  0.00     0.150 C 
HETATM   55  C   UNK N   1      32.965  16.160   5.614  0.00  0.00     0.035 C 
HETATM   56  C   UNK N   1      31.945  17.128   5.030  0.00  0.00     0.007 C 
BRANCH  53  57
HETATM   57  O   UNK N   1      31.452  17.979   7.878  0.00  0.00    -0.388 OA
HETATM   58  C   UNK N   1      30.458  18.158   8.840  0.00  0.00     0.202 C 
ENDBRANCH  53  57
BRANCH  54  59
HETATM   59  O   UNK N   1      33.378  15.007   7.679  0.00  0.00    -0.381 OA
BRANCH  59  60
HETATM   60  C   UNK N   1      34.138  15.346   8.804  0.00  0.00     0.194 C 
BRANCH  60  61
HETATM   61  C   UNK N   1      33.847  14.398   9.956  0.00  0.00     0.190 C 
BRANCH  61  62
HETATM   62  O   UNK N   1      33.083  15.047  10.928  0.00  0.00    -0.399 OA
HETATM   63  H   UNK N   1      33.495  15.557  11.642  0.00  0.00     0.209 HD
ENDBRANCH  61  62
ENDBRANCH  60  61
ENDBRANCH  59  60
ENDBRANCH  54  59
ENDBRANCH  50  51
ENDBRANCH  48  50
ENDBRANCH  15  48
BRANCH  34  64
HETATM   64  O   UNK N   1      25.456   8.580   5.983  0.00  0.00    -0.388 OA
HETATM   65  H   UNK N   1      25.162   7.940   6.650  0.00  0.00     0.210 HD
ENDBRANCH  34  64
BRANCH  13  66
HETATM   66  O   UNK N   1      22.789  17.967   5.664  0.00  0.00    -0.359 OA
HETATM   67  H   UNK N   1      23.239  17.879   6.518  0.00  0.00     0.213 HD
ENDBRANCH  13  66
BRANCH  37  68
HETATM   68  O   UNK N   1      22.365   9.684   4.466  0.00  0.00    -0.380 OA
HETATM   69  C   UNK N   1      22.697   9.721   3.106  0.00  0.00     0.202 C 
ENDBRANCH  37  68
BRANCH  27  70
HETATM   70  O   UNK N   1      18.886  14.234   4.876  0.00  0.00    -0.386 OA
HETATM   71  C   UNK N   1      18.726  15.565   5.273  0.00  0.00     0.202 C 
ENDBRANCH  27  70
TORSDOF 12
ENDMDL
MODEL 4
REMARK VINA RESULT:      -8.5      2.909      9.251
REMARK  12 active torsions:
REMARK  status: ('A' for Active; 'I' for Inactive)
REMARK    1  A    between atoms: C_13  and  O_18 
REMARK    2  A    between atoms: C_15  and  C_19 
REMARK    3  A    between atoms: C_19  and  C_24 
REMARK    4  A    between atoms: C_24  and  C_29 
REMARK    5  A    between atoms: C_32  and  O_38 
REMARK    6  A    between atoms: C_39  and  O_46 
REMARK    7  A    between atoms: C_45  and  O_50 
REMARK    8  A    between atoms: C_47  and  O_52 
REMARK    9  A    between atoms: O_50  and  C_65 
REMARK   10  A    between atoms: C_51  and  O_55 
REMARK   11  A    between atoms: C_65  and  C_66 
REMARK   12  A    between atoms: C_66  and  O_67 
ROOT
HETATM    1  N   UNK N   1      31.310  16.432   5.150  0.00  0.00    -0.331 N 
HETATM    2  C   UNK N   1      32.115  15.298   4.709  0.00  0.00     0.187 C 
HETATM    3  C   UNK N   1      30.349  16.948   4.325  0.00  0.00     0.296 C 
HETATM    4  C   UNK N   1      31.523  16.982   6.477  0.00  0.00     0.127 C 
HETATM    5  C   UNK N   1      31.235  14.087   4.501  0.00  0.00     0.282 C 
HETATM    6  C   UNK N   1      33.216  14.959   5.720  0.00  0.00     0.035 C 
HETATM    7  C   UNK N   1      29.379  17.949   4.795  0.00  0.00     0.278 C 
HETATM    8  O   UNK N   1      30.198  16.491   3.199  0.00  0.00    -0.264 OA
HETATM    9  C   UNK N   1      33.003  17.323   6.667  0.00  0.00     0.020 C 
HETATM   10  O   UNK N   1      30.897  13.739   3.233  0.00  0.00    -0.314 OA
HETATM   11  O   UNK N   1      30.760  13.500   5.462  0.00  0.00    -0.263 OA
HETATM   12  C   UNK N   1      33.951  16.233   6.134  0.00  0.00     0.004 C 
HETATM   13  C   UNK N   1      28.011  17.440   5.205  0.00  0.00     0.238 C 
HETATM   14  O   UNK N   1      29.667  19.137   4.804  0.00  0.00    -0.281 OA
HETATM   15  C   UNK N   1      30.484  12.506   2.759  0.00  0.00     0.142 C 
HETATM   16  O   UNK N   1      27.576  16.595   4.137  0.00  0.00    -0.343 OA
HETATM   17  C   UNK N   1      26.998  18.551   5.585  0.00  0.00     0.053 C 
HETATM   18  C   UNK N   1      29.458  11.766   3.644  0.00  0.00     0.112 C 
HETATM   19  C   UNK N   1      26.290  16.848   3.613  0.00  0.00     0.128 C 
HETATM   20  C   UNK N   1      26.517  19.301   4.360  0.00  0.00     0.013 C 
HETATM   21  C   UNK N   1      27.487  19.504   6.666  0.00  0.00     0.016 C 
HETATM   22  C   UNK N   1      28.169  12.484   3.902  0.00  0.00     0.136 C 
HETATM   23  C   UNK N   1      25.231  16.263   4.545  0.00  0.00     0.068 C 
HETATM   24  C   UNK N   1      26.063  18.331   3.272  0.00  0.00     0.033 C 
HETATM   25  C   UNK N   1      27.239  12.900   2.803  0.00  0.00     0.074 C 
HETATM   26  O   UNK N   1      27.847  12.717   5.056  0.00  0.00    -0.297 OA
HETATM   27  C   UNK N   1      23.818  16.306   3.959  0.00  0.00     0.151 C 
HETATM   28  C   UNK N   1      26.635  11.818   1.944  0.00  0.00    -0.010 C 
HETATM   29  C   UNK N   1      27.827  13.988   1.925  0.00  0.00     0.022 C 
HETATM   30  C   UNK N   1      23.540  15.218   2.930  0.00  0.00    -0.055 C 
HETATM   31  C   UNK N   1      25.892  10.792   2.388  0.00  0.00    -0.056 C 
HETATM   32  C   UNK N   1      22.333  15.030   2.385  0.00  0.00     0.005 C 
HETATM   33  C   UNK N   1      24.611  14.290   2.490  0.00  0.00     0.046 C 
HETATM   34  C   UNK N   1      25.139   9.986   1.361  0.00  0.00     0.183 C 
HETATM   35  C   UNK N   1      25.637  10.574   3.849  0.00  0.00     0.046 C 
HETATM   36  C   UNK N   1      21.143  15.831   2.701  0.00  0.00     0.000 C 
HETATM   37  C   UNK N   1      23.618  10.279   1.391  0.00  0.00     0.223 C 
HETATM   38  C   UNK N   1      19.895  15.448   2.380  0.00  0.00    -0.000 C 
HETATM   39  C   UNK N   1      22.911   9.857   0.110  0.00  0.00     0.162 C 
HETATM   40  C   UNK N   1      19.497  14.194   1.684  0.00  0.00    -0.004 C 
HETATM   41  C   UNK N   1      21.436  10.132  -0.132  0.00  0.00     0.055 C 
HETATM   42  O   UNK N   1      23.551   9.321  -0.784  0.00  0.00    -0.295 OA
HETATM   43  C   UNK N   1      20.360  13.343   1.108  0.00  0.00    -0.022 C 
HETATM   44  C   UNK N   1      20.729  10.891   0.986  0.00  0.00     0.020 C 
HETATM   45  C   UNK N   1      20.680   8.849  -0.423  0.00  0.00     0.018 C 
HETATM   46  C   UNK N   1      19.944  12.065   0.423  0.00  0.00     0.005 C 
HETATM   47  C   UNK N   1      18.453  11.775   0.519  0.00  0.00     0.014 C 
ENDROOT
BRANCH  15  48
HETATM   48  C   UNK N   1      31.722  11.648   2.474  0.00  0.00     0.012 C 
HETATM   49  C   UNK N   1      31.411  10.213   2.073  0.00  0.00     0.012 C 
BRANCH  48  50
HETATM   50  C   UNK N   1      32.786  12.328   1.601  0.00  0.00     0.011 C 
BRANCH  50  51
HETATM   51  C   UNK N   1      33.100  11.655   0.269  0.00  0.00    -0.012 C 
HETATM   52  C   UNK N   1      32.203  12.297  -0.804  0.00  0.00     0.039 C 
HETATM   53  C   UNK N   1      32.848  12.213  -2.187  0.00  0.00     0.150 C 
HETATM   54  C   UNK N   1      34.161  13.020  -2.195  0.00  0.00     0.150 C 
HETATM   55  C   UNK N   1      34.885  13.045  -0.836  0.00  0.00     0.035 C 
HETATM   56  C   UNK N   1      34.599  11.766  -0.061  0.00  0.00     0.007 C 
BRANCH  53  57
HETATM   57  O   UNK N   1      33.097  10.878  -2.518  0.00  0.00    -0.388 OA
HETATM   58  C   UNK N   1      33.255  10.880  -3.904  0.00  0.00     0.202 C 
ENDBRANCH  53  57
BRANCH  54  59
HETATM   59  O   UNK N   1      33.912  14.328  -2.617  0.00  0.00    -0.381 OA
BRANCH  59  60
HETATM   60  C   UNK N   1      34.884  14.589  -3.589  0.00  0.00     0.194 C 
BRANCH  60  61
HETATM   61  C   UNK N   1      35.085  16.085  -3.763  0.00  0.00     0.190 C 
BRANCH  61  62
HETATM   62  O   UNK N   1      34.065  16.783  -3.116  0.00  0.00    -0.399 OA
HETATM   63  H   UNK N   1      33.903  16.681  -2.165  0.00  0.00     0.209 HD
ENDBRANCH  61  62
ENDBRANCH  60  61
ENDBRANCH  59  60
ENDBRANCH  54  59
ENDBRANCH  50  51
ENDBRANCH  48  50
ENDBRANCH  15  48
BRANCH  34  64
HETATM   64  O   UNK N   1      25.381   8.620   1.521  0.00  0.00    -0.388 OA
HETATM   65  H   UNK N   1      25.504   8.133   2.350  0.00  0.00     0.210 HD
ENDBRANCH  34  64
BRANCH  13  66
HETATM   66  O   UNK N   1      28.188  16.638   6.335  0.00  0.00    -0.359 OA
HETATM   67  H   UNK N   1      28.429  15.869   6.874  0.00  0.00     0.213 HD
ENDBRANCH  13  66
BRANCH  37  68
HETATM   68  O   UNK N   1      23.402  11.645   1.604  0.00  0.00    -0.380 OA
HETATM   69  C   UNK N   1      23.734  12.251   0.386  0.00  0.00     0.202 C 
ENDBRANCH  37  68
BRANCH  27  70
HETATM   70  O   UNK N   1      22.908  16.239   5.014  0.00  0.00    -0.386 OA
HETATM   71  C   UNK N   1      23.592  15.537   6.011  0.00  0.00     0.202 C 
ENDBRANCH  27  70
TORSDOF 12
ENDMDL
MODEL 5
REMARK VINA RESULT:      -8.4     11.038     15.400
REMARK  12 active torsions:
REMARK  status: ('A' for Active; 'I' for Inactive)
REMARK    1  A    between atoms: C_13  and  O_18 
REMARK    2  A    between atoms: C_15  and  C_19 
REMARK    3  A    between atoms: C_19  and  C_24 
REMARK    4  A    between atoms: C_24  and  C_29 
REMARK    5  A    between atoms: C_32  and  O_38 
REMARK    6  A    between atoms: C_39  and  O_46 
REMARK    7  A    between atoms: C_45  and  O_50 
REMARK    8  A    between atoms: C_47  and  O_52 
REMARK    9  A    between atoms: O_50  and  C_65 
REMARK   10  A    between atoms: C_51  and  O_55 
REMARK   11  A    between atoms: C_65  and  C_66 
REMARK   12  A    between atoms: C_66  and  O_67 
ROOT
HETATM    1  N   UNK N   1      37.271   7.163  14.504  0.00  0.00    -0.331 N 
HETATM    2  C   UNK N   1      37.206   8.184  15.545  0.00  0.00     0.187 C 
HETATM    3  C   UNK N   1      36.283   7.086  13.560  0.00  0.00     0.296 C 
HETATM    4  C   UNK N   1      38.402   6.254  14.468  0.00  0.00     0.127 C 
HETATM    5  C   UNK N   1      37.293   9.560  14.926  0.00  0.00     0.282 C 
HETATM    6  C   UNK N   1      38.331   8.016  16.572  0.00  0.00     0.035 C 
HETATM    7  C   UNK N   1      36.403   6.217  12.380  0.00  0.00     0.278 C 
HETATM    8  O   UNK N   1      35.321   7.842  13.619  0.00  0.00    -0.264 OA
HETATM    9  C   UNK N   1      38.573   5.581  15.833  0.00  0.00     0.020 C 
HETATM   10  O   UNK N   1      36.155  10.288  14.797  0.00  0.00    -0.314 OA
HETATM   11  O   UNK N   1      38.352   9.961  14.464  0.00  0.00    -0.263 OA
HETATM   12  C   UNK N   1      38.416   6.556  17.015  0.00  0.00     0.004 C 
HETATM   13  C   UNK N   1      36.862   6.869  11.091  0.00  0.00     0.238 C 
HETATM   14  O   UNK N   1      36.098   5.035  12.446  0.00  0.00    -0.281 OA
HETATM   15  C   UNK N   1      36.018  11.659  14.668  0.00  0.00     0.142 C 
HETATM   16  O   UNK N   1      36.047   8.034  10.935  0.00  0.00    -0.343 OA
HETATM   17  C   UNK N   1      36.862   5.929   9.858  0.00  0.00     0.053 C 
HETATM   18  C   UNK N   1      37.016  12.336  13.703  0.00  0.00     0.112 C 
HETATM   19  C   UNK N   1      35.403   8.194   9.689  0.00  0.00     0.128 C 
HETATM   20  C   UNK N   1      35.453   5.638   9.385  0.00  0.00     0.013 C 
HETATM   21  C   UNK N   1      37.662   4.647  10.046  0.00  0.00     0.016 C 
HETATM   22  C   UNK N   1      36.993  11.854  12.285  0.00  0.00     0.136 C 
HETATM   23  C   UNK N   1      36.401   8.719   8.659  0.00  0.00     0.068 C 
HETATM   24  C   UNK N   1      34.652   6.930   9.236  0.00  0.00     0.033 C 
HETATM   25  C   UNK N   1      35.772  11.938  11.420  0.00  0.00     0.074 C 
HETATM   26  O   UNK N   1      38.017  11.398  11.803  0.00  0.00    -0.297 OA
HETATM   27  C   UNK N   1      35.748   9.119   7.333  0.00  0.00     0.151 C 
HETATM   28  C   UNK N   1      35.214  13.306  11.119  0.00  0.00    -0.010 C 
HETATM   29  C   UNK N   1      34.661  11.019  11.892  0.00  0.00     0.022 C 
HETATM   30  C   UNK N   1      35.047  10.471   7.370  0.00  0.00    -0.055 C 
HETATM   31  C   UNK N   1      35.883  14.309  10.529  0.00  0.00    -0.056 C 
HETATM   32  C   UNK N   1      34.510  11.037   6.284  0.00  0.00     0.005 C 
HETATM   33  C   UNK N   1      34.942  11.243   8.633  0.00  0.00     0.046 C 
HETATM   34  C   UNK N   1      35.080  15.491  10.051  0.00  0.00     0.183 C 
HETATM   35  C   UNK N   1      37.331  14.186  10.161  0.00  0.00     0.046 C 
HETATM   36  C   UNK N   1      34.525  10.441   4.941  0.00  0.00     0.000 C 
HETATM   37  C   UNK N   1      34.943  15.517   8.508  0.00  0.00     0.223 C 
HETATM   38  C   UNK N   1      34.255  11.140   3.825  0.00  0.00    -0.000 C 
HETATM   39  C   UNK N   1      33.792  16.394   8.033  0.00  0.00     0.162 C 
HETATM   40  C   UNK N   1      33.913  12.586   3.740  0.00  0.00    -0.004 C 
HETATM   41  C   UNK N   1      33.403  16.497   6.568  0.00  0.00     0.055 C 
HETATM   42  O   UNK N   1      33.119  17.001   8.853  0.00  0.00    -0.295 OA
HETATM   43  C   UNK N   1      33.643  13.363   4.800  0.00  0.00    -0.022 C 
HETATM   44  C   UNK N   1      34.225  15.633   5.617  0.00  0.00     0.020 C 
HETATM   45  C   UNK N   1      33.437  17.937   6.093  0.00  0.00     0.018 C 
HETATM   46  C   UNK N   1      33.317  14.833   4.698  0.00  0.00     0.005 C 
HETATM   47  C   UNK N   1      33.407  15.385   3.283  0.00  0.00     0.014 C 
ENDROOT
BRANCH  15  48
HETATM   48  C   UNK N   1      36.050  12.291  16.064  0.00  0.00     0.012 C 
HETATM   49  C   UNK N   1      36.063  13.812  16.063  0.00  0.00     0.012 C 
BRANCH  48  50
HETATM   50  C   UNK N   1      35.072  11.670  17.071  0.00  0.00     0.011 C 
BRANCH  50  51
HETATM   51  C   UNK N   1      35.683  10.767  18.138  0.00  0.00    -0.012 C 
HETATM   52  C   UNK N   1      35.418  11.415  19.509  0.00  0.00     0.039 C 
HETATM   53  C   UNK N   1      35.369  10.365  20.617  0.00  0.00     0.150 C 
HETATM   54  C   UNK N   1      34.188   9.406  20.368  0.00  0.00     0.150 C 
HETATM   55  C   UNK N   1      33.861   9.195  18.878  0.00  0.00     0.035 C 
HETATM   56  C   UNK N   1      35.120   9.338  18.035  0.00  0.00     0.007 C 
BRANCH  53  57
HETATM   57  O   UNK N   1      36.571   9.654  20.656  0.00  0.00    -0.388 OA
HETATM   58  C   UNK N   1      37.421  10.437  21.439  0.00  0.00     0.202 C 
ENDBRANCH  53  57
BRANCH  54  59
HETATM   59  O   UNK N   1      33.052   9.868  21.037  0.00  0.00    -0.381 OA
BRANCH  59  60
HETATM   60  C   UNK N   1      33.097   9.258  22.295  0.00  0.00     0.194 C 
BRANCH  60  61
HETATM   61  C   UNK N   1      32.833  10.274  23.395  0.00  0.00     0.190 C 
BRANCH  61  62
HETATM   62  O   UNK N   1      32.812  11.563  22.861  0.00  0.00    -0.399 OA
HETATM   63  H   UNK N   1      32.763  11.716  21.904  0.00  0.00     0.209 HD
ENDBRANCH  61  62
ENDBRANCH  60  61
ENDBRANCH  59  60
ENDBRANCH  54  59
ENDBRANCH  50  51
ENDBRANCH  48  50
ENDBRANCH  15  48
BRANCH  34  64
HETATM   64  O   UNK N   1      35.625  16.689  10.518  0.00  0.00    -0.388 OA
HETATM   65  H   UNK N   1      36.090  16.843  11.355  0.00  0.00     0.210 HD
ENDBRANCH  34  64
BRANCH  13  66
HETATM   66  O   UNK N   1      38.178   7.296  11.287  0.00  0.00    -0.359 OA
HETATM   67  H   UNK N   1      38.921   7.835  11.598  0.00  0.00     0.213 HD
ENDBRANCH  13  66
BRANCH  37  68
HETATM   68  O   UNK N   1      34.757  14.216   8.026  0.00  0.00    -0.380 OA
HETATM   69  C   UNK N   1      33.439  13.895   8.372  0.00  0.00     0.202 C 
ENDBRANCH  37  68
BRANCH  27  70
HETATM   70  O   UNK N   1      36.729   9.093   6.341  0.00  0.00    -0.386 OA
HETATM   71  C   UNK N   1      37.932   9.166   7.048  0.00  0.00     0.202 C 
ENDBRANCH  27  70
TORSDOF 12
ENDMDL
MODEL 6
REMARK VINA RESULT:      -8.3      2.835      8.903
REMARK  12 active torsions:
REMARK  status: ('A' for Active; 'I' for Inactive)
REMARK    1  A    between atoms: C_13  and  O_18 
REMARK    2  A    between atoms: C_15  and  C_19 
REMARK    3  A    between atoms: C_19  and  C_24 
REMARK    4  A    between atoms: C_24  and  C_29 
REMARK    5  A    between atoms: C_32  and  O_38 
REMARK    6  A    between atoms: C_39  and  O_46 
REMARK    7  A    between atoms: C_45  and  O_50 
REMARK    8  A    between atoms: C_47  and  O_52 
REMARK    9  A    between atoms: O_50  and  C_65 
REMARK   10  A    between atoms: C_51  and  O_55 
REMARK   11  A    between atoms: C_65  and  C_66 
REMARK   12  A    between atoms: C_66  and  O_67 
ROOT
HETATM    1  N   UNK N   1      31.396  16.358   5.106  0.00  0.00    -0.331 N 
HETATM    2  C   UNK N   1      32.193  15.243   4.604  0.00  0.00     0.187 C 
HETATM    3  C   UNK N   1      30.418  16.906   4.321  0.00  0.00     0.296 C 
HETATM    4  C   UNK N   1      31.635  16.856   6.448  0.00  0.00     0.127 C 
HETATM    5  C   UNK N   1      31.308  14.041   4.366  0.00  0.00     0.282 C 
HETATM    6  C   UNK N   1      33.313  14.865   5.579  0.00  0.00     0.035 C 
HETATM    7  C   UNK N   1      29.458  17.887   4.849  0.00  0.00     0.278 C 
HETATM    8  O   UNK N   1      30.246  16.493   3.180  0.00  0.00    -0.264 OA
HETATM    9  C   UNK N   1      33.119  17.190   6.623  0.00  0.00     0.020 C 
HETATM   10  O   UNK N   1      30.945  13.742   3.093  0.00  0.00    -0.314 OA
HETATM   11  O   UNK N   1      30.852  13.416   5.313  0.00  0.00    -0.263 OA
HETATM   12  C   UNK N   1      34.056  16.122   6.028  0.00  0.00     0.004 C 
HETATM   13  C   UNK N   1      28.099  17.361   5.266  0.00  0.00     0.238 C 
HETATM   14  O   UNK N   1      29.747  19.074   4.899  0.00  0.00    -0.281 OA
HETATM   15  C   UNK N   1      30.523  12.529   2.578  0.00  0.00     0.142 C 
HETATM   16  O   UNK N   1      27.643  16.559   4.174  0.00  0.00    -0.343 OA
HETATM   17  C   UNK N   1      27.093  18.455   5.709  0.00  0.00     0.053 C 
HETATM   18  C   UNK N   1      29.515  11.753   3.454  0.00  0.00     0.112 C 
HETATM   19  C   UNK N   1      26.347  16.830   3.686  0.00  0.00     0.128 C 
HETATM   20  C   UNK N   1      26.588  19.253   4.524  0.00  0.00     0.013 C 
HETATM   21  C   UNK N   1      27.604  19.366   6.817  0.00  0.00     0.016 C 
HETATM   22  C   UNK N   1      28.231  12.460   3.766  0.00  0.00     0.136 C 
HETATM   23  C   UNK N   1      25.307  16.209   4.615  0.00  0.00     0.068 C 
HETATM   24  C   UNK N   1      26.113  18.326   3.408  0.00  0.00     0.033 C 
HETATM   25  C   UNK N   1      27.280  12.918   2.703  0.00  0.00     0.074 C 
HETATM   26  O   UNK N   1      27.932  12.648   4.934  0.00  0.00    -0.297 OA
HETATM   27  C   UNK N   1      23.882  16.273   4.059  0.00  0.00     0.151 C 
HETATM   28  C   UNK N   1      26.659  11.870   1.814  0.00  0.00    -0.010 C 
HETATM   29  C   UNK N   1      27.850  14.041   1.857  0.00  0.00     0.022 C 
HETATM   30  C   UNK N   1      23.583  15.226   2.994  0.00  0.00    -0.055 C 
HETATM   31  C   UNK N   1      25.924  10.827   2.232  0.00  0.00    -0.056 C 
HETATM   32  C   UNK N   1      22.366  15.059   2.466  0.00  0.00     0.005 C 
HETATM   33  C   UNK N   1      24.646  14.318   2.497  0.00  0.00     0.046 C 
HETATM   34  C   UNK N   1      25.151  10.062   1.190  0.00  0.00     0.183 C 
HETATM   35  C   UNK N   1      25.698  10.552   3.688  0.00  0.00     0.046 C 
HETATM   36  C   UNK N   1      21.182  15.846   2.837  0.00  0.00     0.000 C 
HETATM   37  C   UNK N   1      23.631  10.352   1.261  0.00  0.00     0.223 C 
HETATM   38  C   UNK N   1      19.928  15.476   2.527  0.00  0.00    -0.000 C 
HETATM   39  C   UNK N   1      22.898   9.980  -0.022  0.00  0.00     0.162 C 
HETATM   40  C   UNK N   1      19.517  14.249   1.790  0.00  0.00    -0.004 C 
HETATM   41  C   UNK N   1      21.419  10.264  -0.222  0.00  0.00     0.055 C 
HETATM   42  O   UNK N   1      23.521   9.481  -0.948  0.00  0.00    -0.295 OA
HETATM   43  C   UNK N   1      20.368  13.423   1.164  0.00  0.00    -0.022 C 
HETATM   44  C   UNK N   1      20.734  10.978   0.938  0.00  0.00     0.020 C 
HETATM   45  C   UNK N   1      20.657   8.993  -0.549  0.00  0.00     0.018 C 
HETATM   46  C   UNK N   1      19.938  12.172   0.437  0.00  0.00     0.005 C 
HETATM   47  C   UNK N   1      18.449  11.878   0.552  0.00  0.00     0.014 C 
ENDROOT
BRANCH  15  48
HETATM   48  C   UNK N   1      31.754  11.684   2.235  0.00  0.00     0.012 C 
HETATM   49  C   UNK N   1      32.342  10.925   3.416  0.00  0.00     0.012 C 
BRANCH  48  50
HETATM   50  C   UNK N   1      31.623  10.850   0.954  0.00  0.00     0.011 C 
BRANCH  50  51
HETATM   51  C   UNK N   1      31.848  11.591  -0.361  0.00  0.00    -0.012 C 
HETATM   52  C   UNK N   1      32.649  10.663  -1.292  0.00  0.00     0.039 C 
HETATM   53  C   UNK N   1      32.369  10.977  -2.760  0.00  0.00     0.150 C 
HETATM   54  C   UNK N   1      30.885  10.709  -3.073  0.00  0.00     0.150 C 
HETATM   55  C   UNK N   1      29.943  10.953  -1.879  0.00  0.00     0.035 C 
HETATM   56  C   UNK N   1      30.508  12.038  -0.974  0.00  0.00     0.007 C 
BRANCH  53  57
HETATM   57  O   UNK N   1      32.690  12.310  -3.034  0.00  0.00    -0.388 OA
HETATM   58  C   UNK N   1      33.922  12.252  -3.685  0.00  0.00     0.202 C 
ENDBRANCH  53  57
BRANCH  54  59
HETATM   59  O   UNK N   1      30.726   9.400  -3.535  0.00  0.00    -0.381 OA
BRANCH  59  60
HETATM   60  C   UNK N   1      29.459   9.007  -3.088  0.00  0.00     0.194 C 
BRANCH  60  61
HETATM   61  C   UNK N   1      28.754   8.164  -4.138  0.00  0.00     0.190 C 
BRANCH  61  62
HETATM   62  O   UNK N   1      27.805   8.933  -4.810  0.00  0.00    -0.399 OA
HETATM   63  H   UNK N   1      26.877   8.656  -4.874  0.00  0.00     0.209 HD
ENDBRANCH  61  62
ENDBRANCH  60  61
ENDBRANCH  59  60
ENDBRANCH  54  59
ENDBRANCH  50  51
ENDBRANCH  48  50
ENDBRANCH  15  48
BRANCH  34  64
HETATM   64  O   UNK N   1      25.396   8.691   1.291  0.00  0.00    -0.388 OA
HETATM   65  H   UNK N   1      25.341   8.025   0.588  0.00  0.00     0.210 HD
ENDBRANCH  34  64
BRANCH  13  66
HETATM   66  O   UNK N   1      28.298  16.515   6.360  0.00  0.00    -0.359 OA
HETATM   67  H   UNK N   1      28.409  15.695   6.865  0.00  0.00     0.213 HD
ENDBRANCH  13  66
BRANCH  37  68
HETATM   68  O   UNK N   1      23.418  11.708   1.532  0.00  0.00    -0.380 OA
HETATM   69  C   UNK N   1      23.712  12.360   0.328  0.00  0.00     0.202 C 
ENDBRANCH  37  68
BRANCH  27  70
HETATM   70  O   UNK N   1      22.993  16.164   5.129  0.00  0.00    -0.386 OA
HETATM   71  C   UNK N   1      23.712  15.461   6.100  0.00  0.00     0.202 C 
ENDBRANCH  27  70
TORSDOF 12
ENDMDL
MODEL 7
REMARK VINA RESULT:      -8.3      3.063      9.059
REMARK  12 active torsions:
REMARK  status: ('A' for Active; 'I' for Inactive)
REMARK    1  A    between atoms: C_13  and  O_18 
REMARK    2  A    between atoms: C_15  and  C_19 
REMARK    3  A    between atoms: C_19  and  C_24 
REMARK    4  A    between atoms: C_24  and  C_29 
REMARK    5  A    between atoms: C_32  and  O_38 
REMARK    6  A    between atoms: C_39  and  O_46 
REMARK    7  A    between atoms: C_45  and  O_50 
REMARK    8  A    between atoms: C_47  and  O_52 
REMARK    9  A    between atoms: O_50  and  C_65 
REMARK   10  A    between atoms: C_51  and  O_55 
REMARK   11  A    between atoms: C_65  and  C_66 
REMARK   12  A    between atoms: C_66  and  O_67 
ROOT
HETATM    1  N   UNK N   1      22.555   8.914  -0.420  0.00  0.00    -0.331 N 
HETATM    2  C   UNK N   1      21.388   9.766  -0.213  0.00  0.00     0.187 C 
HETATM    3  C   UNK N   1      23.768   9.476  -0.713  0.00  0.00     0.296 C 
HETATM    4  C   UNK N   1      22.418   7.475  -0.286  0.00  0.00     0.127 C 
HETATM    5  C   UNK N   1      21.597  10.644   0.999  0.00  0.00     0.282 C 
HETATM    6  C   UNK N   1      20.111   8.938  -0.028  0.00  0.00     0.035 C 
HETATM    7  C   UNK N   1      25.007   8.684  -0.728  0.00  0.00     0.278 C 
HETATM    8  O   UNK N   1      23.862  10.690  -0.850  0.00  0.00    -0.264 OA
HETATM    9  C   UNK N   1      21.277   6.975  -1.175  0.00  0.00     0.020 C 
HETATM   10  O   UNK N   1      21.929  11.946   0.809  0.00  0.00    -0.314 OA
HETATM   11  O   UNK N   1      21.564  10.161   2.122  0.00  0.00    -0.263 OA
HETATM   12  C   UNK N   1      20.024   7.868  -1.115  0.00  0.00     0.004 C 
HETATM   13  C   UNK N   1      25.871   8.738   0.516  0.00  0.00     0.238 C 
HETATM   14  O   UNK N   1      25.330   8.055  -1.726  0.00  0.00    -0.281 OA
HETATM   15  C   UNK N   1      21.769  13.013   1.676  0.00  0.00     0.142 C 
HETATM   16  O   UNK N   1      26.014  10.125   0.829  0.00  0.00    -0.343 OA
HETATM   17  C   UNK N   1      27.216   7.974   0.399  0.00  0.00     0.053 C 
HETATM   18  C   UNK N   1      22.149  12.732   3.147  0.00  0.00     0.112 C 
HETATM   19  C   UNK N   1      27.329  10.596   1.033  0.00  0.00     0.128 C 
HETATM   20  C   UNK N   1      28.193   8.711  -0.493  0.00  0.00     0.013 C 
HETATM   21  C   UNK N   1      27.076   6.515  -0.012  0.00  0.00     0.016 C 
HETATM   22  C   UNK N   1      23.562  12.299   3.392  0.00  0.00     0.136 C 
HETATM   23  C   UNK N   1      27.805  10.203   2.429  0.00  0.00     0.068 C 
HETATM   24  C   UNK N   1      28.296  10.180  -0.090  0.00  0.00     0.033 C 
HETATM   25  C   UNK N   1      24.744  13.144   3.024  0.00  0.00     0.074 C 
HETATM   26  O   UNK N   1      23.761  11.227   3.938  0.00  0.00    -0.297 OA
HETATM   27  C   UNK N   1      29.139  10.845   2.819  0.00  0.00     0.151 C 
HETATM   28  C   UNK N   1      24.884  14.488   3.693  0.00  0.00    -0.010 C 
HETATM   29  C   UNK N   1      24.907  13.294   1.524  0.00  0.00     0.022 C 
HETATM   30  C   UNK N   1      29.024  12.302   3.248  0.00  0.00    -0.055 C 
HETATM   31  C   UNK N   1      24.957  14.698   5.017  0.00  0.00    -0.056 C 
HETATM   32  C   UNK N   1      30.062  13.001   3.721  0.00  0.00     0.005 C 
HETATM   33  C   UNK N   1      27.727  13.020   3.175  0.00  0.00     0.046 C 
HETATM   34  C   UNK N   1      25.385  16.067   5.479  0.00  0.00     0.183 C 
HETATM   35  C   UNK N   1      24.830  13.577   6.003  0.00  0.00     0.046 C 
HETATM   36  C   UNK N   1      31.420  12.465   3.885  0.00  0.00     0.000 C 
HETATM   37  C   UNK N   1      26.831  16.067   6.038  0.00  0.00     0.223 C 
HETATM   38  C   UNK N   1      32.363  13.071   4.627  0.00  0.00    -0.000 C 
HETATM   39  C   UNK N   1      27.447  17.460   6.077  0.00  0.00     0.162 C 
HETATM   40  C   UNK N   1      32.215  14.337   5.396  0.00  0.00    -0.004 C 
HETATM   41  C   UNK N   1      28.889  17.697   6.495  0.00  0.00     0.055 C 
HETATM   42  O   UNK N   1      26.786  18.422   5.716  0.00  0.00    -0.295 OA
HETATM   43  C   UNK N   1      31.158  15.158   5.305  0.00  0.00    -0.022 C 
HETATM   44  C   UNK N   1      29.679  16.437   6.835  0.00  0.00     0.020 C 
HETATM   45  C   UNK N   1      28.969  18.669   7.657  0.00  0.00     0.018 C 
HETATM   46  C   UNK N   1      31.013  16.429   6.106  0.00  0.00     0.005 C 
HETATM   47  C   UNK N   1      32.141  16.657   7.102  0.00  0.00     0.014 C 
ENDROOT
BRANCH  15  48
HETATM   48  C   UNK N   1      20.338  13.544   1.544  0.00  0.00     0.012 C 
HETATM   49  C   UNK N   1      19.297  12.736   2.307  0.00  0.00     0.012 C 
BRANCH  48  50
HETATM   50  C   UNK N   1      20.200  15.063   1.709  0.00  0.00     0.011 C 
BRANCH  50  51
HETATM   51  C   UNK N   1      20.481  15.620   3.102  0.00  0.00    -0.012 C 
HETATM   52  C   UNK N   1      21.839  16.343   3.053  0.00  0.00     0.039 C 
HETATM   53  C   UNK N   1      21.915  17.449   4.104  0.00  0.00     0.150 C 
HETATM   54  C   UNK N   1      20.853  18.524   3.802  0.00  0.00     0.150 C 
HETATM   55  C   UNK N   1      19.582  17.972   3.129  0.00  0.00     0.035 C 
HETATM   56  C   UNK N   1      19.334  16.536   3.568  0.00  0.00     0.007 C 
BRANCH  53  57
HETATM   57  O   UNK N   1      21.713  16.912   5.378  0.00  0.00    -0.388 OA
HETATM   58  C   UNK N   1      21.440  18.014   6.189  0.00  0.00     0.202 C 
ENDBRANCH  53  57
BRANCH  54  59
HETATM   59  O   UNK N   1      21.408  19.528   3.003  0.00  0.00    -0.381 OA
BRANCH  59  60
HETATM   60  C   UNK N   1      20.313  20.176   2.421  0.00  0.00     0.194 C 
BRANCH  60  61
HETATM   61  C   UNK N   1      20.736  20.934   1.174  0.00  0.00     0.190 C 
BRANCH  61  62
HETATM   62  O   UNK N   1      20.688  20.092   0.062  0.00  0.00    -0.399 OA
HETATM   63  H   UNK N   1      20.649  19.128   0.156  0.00  0.00     0.209 HD
ENDBRANCH  61  62
ENDBRANCH  60  61
ENDBRANCH  59  60
ENDBRANCH  54  59
ENDBRANCH  50  51
ENDBRANCH  48  50
ENDBRANCH  15  48
BRANCH  34  64
HETATM   64  O   UNK N   1      24.493  16.579   6.423  0.00  0.00    -0.388 OA
HETATM   65  H   UNK N   1      24.479  16.411   7.378  0.00  0.00     0.210 HD
ENDBRANCH  34  64
BRANCH  13  66
HETATM   66  O   UNK N   1      25.146   8.142   1.551  0.00  0.00    -0.359 OA
HETATM   67  H   UNK N   1      24.384   7.854   2.077  0.00  0.00     0.213 HD
ENDBRANCH  13  66
BRANCH  37  68
HETATM   68  O   UNK N   1      27.640  15.231   5.261  0.00  0.00    -0.380 OA
HETATM   69  C   UNK N   1      27.848  15.943   4.072  0.00  0.00     0.202 C 
ENDBRANCH  37  68
BRANCH  27  70
HETATM   70  O   UNK N   1      29.716  10.072   3.827  0.00  0.00    -0.386 OA
HETATM   71  C   UNK N   1      28.625   9.597   4.559  0.00  0.00     0.202 C 
ENDBRANCH  27  70
TORSDOF 12
ENDMDL
MODEL 8
REMARK VINA RESULT:      -8.2      3.553      5.952
REMARK  12 active torsions:
REMARK  status: ('A' for Active; 'I' for Inactive)
REMARK    1  A    between atoms: C_13  and  O_18 
REMARK    2  A    between atoms: C_15  and  C_19 
REMARK    3  A    between atoms: C_19  and  C_24 
REMARK    4  A    between atoms: C_24  and  C_29 
REMARK    5  A    between atoms: C_32  and  O_38 
REMARK    6  A    between atoms: C_39  and  O_46 
REMARK    7  A    between atoms: C_45  and  O_50 
REMARK    8  A    between atoms: C_47  and  O_52 
REMARK    9  A    between atoms: O_50  and  C_65 
REMARK   10  A    between atoms: C_51  and  O_55 
REMARK   11  A    between atoms: C_65  and  C_66 
REMARK   12  A    between atoms: C_66  and  O_67 
ROOT
HETATM    1  N   UNK N   1      27.775  18.325   6.001  0.00  0.00    -0.331 N 
HETATM    2  C   UNK N   1      26.510  18.088   5.312  0.00  0.00     0.187 C 
HETATM    3  C   UNK N   1      28.386  17.303   6.677  0.00  0.00     0.296 C 
HETATM    4  C   UNK N   1      28.385  19.640   5.938  0.00  0.00     0.127 C 
HETATM    5  C   UNK N   1      26.706  17.085   4.199  0.00  0.00     0.282 C 
HETATM    6  C   UNK N   1      25.932  19.384   4.734  0.00  0.00     0.035 C 
HETATM    7  C   UNK N   1      29.751  17.432   7.210  0.00  0.00     0.278 C 
HETATM    8  O   UNK N   1      27.847  16.205   6.744  0.00  0.00    -0.264 OA
HETATM    9  C   UNK N   1      27.376  20.704   6.379  0.00  0.00     0.020 C 
HETATM   10  O   UNK N   1      26.298  15.806   4.397  0.00  0.00    -0.314 OA
HETATM   11  O   UNK N   1      27.311  17.403   3.185  0.00  0.00    -0.263 OA
HETATM   12  C   UNK N   1      25.969  20.487   5.790  0.00  0.00     0.004 C 
HETATM   13  C   UNK N   1      30.872  16.851   6.373  0.00  0.00     0.238 C 
HETATM   14  O   UNK N   1      29.945  17.947   8.302  0.00  0.00    -0.281 OA
HETATM   15  C   UNK N   1      25.984  14.844   3.452  0.00  0.00     0.142 C 
HETATM   16  O   UNK N   1      30.453  15.528   6.029  0.00  0.00    -0.343 OA
HETATM   17  C   UNK N   1      32.272  16.918   7.037  0.00  0.00     0.053 C 
HETATM   18  C   UNK N   1      26.953  14.755   2.253  0.00  0.00     0.112 C 
HETATM   19  C   UNK N   1      31.369  14.486   6.289  0.00  0.00     0.128 C 
HETATM   20  C   UNK N   1      32.396  15.917   8.167  0.00  0.00     0.013 C 
HETATM   21  C   UNK N   1      32.692  18.312   7.479  0.00  0.00     0.016 C 
HETATM   22  C   UNK N   1      28.384  14.459   2.581  0.00  0.00     0.136 C 
HETATM   23  C   UNK N   1      32.441  14.460   5.202  0.00  0.00     0.068 C 
HETATM   24  C   UNK N   1      31.938  14.531   7.718  0.00  0.00     0.033 C 
HETATM   25  C   UNK N   1      28.811  13.211   3.292  0.00  0.00     0.074 C 
HETATM   26  O   UNK N   1      29.243  15.253   2.232  0.00  0.00    -0.297 OA
HETATM   27  C   UNK N   1      33.359  13.237   5.284  0.00  0.00     0.151 C 
HETATM   28  C   UNK N   1      28.539  11.889   2.621  0.00  0.00    -0.010 C 
HETATM   29  C   UNK N   1      28.332  13.169   4.731  0.00  0.00     0.022 C 
HETATM   30  C   UNK N   1      32.741  11.959   4.731  0.00  0.00    -0.055 C 
HETATM   31  C   UNK N   1      28.978  11.525   1.406  0.00  0.00    -0.056 C 
HETATM   32  C   UNK N   1      33.423  10.815   4.623  0.00  0.00     0.005 C 
HETATM   33  C   UNK N   1      31.332  11.932   4.265  0.00  0.00     0.046 C 
HETATM   34  C   UNK N   1      28.852  10.072   1.030  0.00  0.00     0.183 C 
HETATM   35  C   UNK N   1      29.755  12.463   0.532  0.00  0.00     0.046 C 
HETATM   36  C   UNK N   1      34.829  10.643   5.014  0.00  0.00     0.000 C 
HETATM   37  C   UNK N   1      30.220   9.345   1.047  0.00  0.00     0.223 C 
HETATM   38  C   UNK N   1      35.575   9.594   4.628  0.00  0.00    -0.000 C 
HETATM   39  C   UNK N   1      30.082   7.830   1.130  0.00  0.00     0.162 C 
HETATM   40  C   UNK N   1      35.143   8.462   3.763  0.00  0.00    -0.004 C 
HETATM   41  C   UNK N   1      31.286   6.912   1.257  0.00  0.00     0.055 C 
HETATM   42  O   UNK N   1      28.969   7.326   1.145  0.00  0.00    -0.295 OA
HETATM   43  C   UNK N   1      33.873   8.235   3.394  0.00  0.00    -0.022 C 
HETATM   44  C   UNK N   1      32.635   7.620   1.332  0.00  0.00     0.020 C 
HETATM   45  C   UNK N   1      31.317   5.891   0.136  0.00  0.00     0.018 C 
HETATM   46  C   UNK N   1      33.453   7.094   2.500  0.00  0.00     0.005 C 
HETATM   47  C   UNK N   1      34.616   6.265   1.976  0.00  0.00     0.014 C 
ENDROOT
BRANCH  15  48
HETATM   48  C   UNK N   1      24.533  15.050   3.005  0.00  0.00     0.012 C 
HETATM   49  C   UNK N   1      24.319  14.937   1.502  0.00  0.00     0.012 C 
BRANCH  48  50
HETATM   50  C   UNK N   1      23.491  14.301   3.846  0.00  0.00     0.011 C 
BRANCH  50  51
HETATM   51  C   UNK N   1      22.394  15.152   4.479  0.00  0.00    -0.012 C 
HETATM   52  C   UNK N   1      22.788  16.630   4.305  0.00  0.00     0.039 C 
HETATM   53  C   UNK N   1      21.555  17.531   4.276  0.00  0.00     0.150 C 
HETATM   54  C   UNK N   1      20.685  17.178   3.053  0.00  0.00     0.150 C 
HETATM   55  C   UNK N   1      20.757  15.695   2.645  0.00  0.00     0.035 C 
HETATM   56  C   UNK N   1      21.022  14.824   3.864  0.00  0.00     0.007 C 
BRANCH  53  57
HETATM   57  O   UNK N   1      20.821  17.375   5.455  0.00  0.00    -0.388 OA
HETATM   58  C   UNK N   1      21.437  18.227   6.372  0.00  0.00     0.202 C 
ENDBRANCH  53  57
BRANCH  54  59
HETATM   59  O   UNK N   1      21.044  17.981   1.967  0.00  0.00    -0.381 OA
BRANCH  59  60
HETATM   60  C   UNK N   1      20.389  19.199   2.183  0.00  0.00     0.194 C 
BRANCH  60  61
HETATM   61  C   UNK N   1      21.062  20.318   1.405  0.00  0.00     0.190 C 
BRANCH  61  62
HETATM   62  O   UNK N   1      20.687  20.260   0.063  0.00  0.00    -0.399 OA
HETATM   63  H   UNK N   1      20.141  19.536  -0.283  0.00  0.00     0.209 HD
ENDBRANCH  61  62
ENDBRANCH  60  61
ENDBRANCH  59  60
ENDBRANCH  54  59
ENDBRANCH  50  51
ENDBRANCH  48  50
ENDBRANCH  15  48
BRANCH  34  64
HETATM   64  O   UNK N   1      28.233   9.927  -0.213  0.00  0.00    -0.388 OA
HETATM   65  H   UNK N   1      27.289  10.010  -0.419  0.00  0.00     0.210 HD
ENDBRANCH  34  64
BRANCH  13  66
HETATM   66  O   UNK N   1      30.939  17.595   5.192  0.00  0.00    -0.359 OA
HETATM   67  H   UNK N   1      31.114  18.341   4.597  0.00  0.00     0.213 HD
ENDBRANCH  13  66
BRANCH  37  68
HETATM   68  O   UNK N   1      30.983   9.795   2.130  0.00  0.00    -0.380 OA
HETATM   69  C   UNK N   1      30.388   9.205   3.252  0.00  0.00     0.202 C 
ENDBRANCH  37  68
BRANCH  27  70
HETATM   70  O   UNK N   1      34.549  13.542   4.624  0.00  0.00    -0.386 OA
HETATM   71  C   UNK N   1      34.168  14.457   3.639  0.00  0.00     0.202 C 
ENDBRANCH  27  70
TORSDOF 12
ENDMDL
MODEL 9
REMARK VINA RESULT:      -8.1      2.885      4.329
REMARK  12 active torsions:
REMARK  status: ('A' for Active; 'I' for Inactive)
REMARK    1  A    between atoms: C_13  and  O_18 
REMARK    2  A    between atoms: C_15  and  C_19 
REMARK    3  A    between atoms: C_19  and  C_24 
REMARK    4  A    between atoms: C_24  and  C_29 
REMARK    5  A    between atoms: C_32  and  O_38 
REMARK    6  A    between atoms: C_39  and  O_46 
REMARK    7  A    between atoms: C_45  and  O_50 
REMARK    8  A    between atoms: C_47  and  O_52 
REMARK    9  A    between atoms: O_50  and  C_65 
REMARK   10  A    between atoms: C_51  and  O_55 
REMARK   11  A    between atoms: C_65  and  C_66 
REMARK   12  A    between atoms: C_66  and  O_67 
ROOT
HETATM    1  N   UNK N   1      27.677  18.130   5.258  0.00  0.00    -0.331 N 
HETATM    2  C   UNK N   1      26.223  18.006   5.305  0.00  0.00     0.187 C 
HETATM    3  C   UNK N   1      28.463  17.135   5.772  0.00  0.00     0.296 C 
HETATM    4  C   UNK N   1      28.272  19.301   4.640  0.00  0.00     0.127 C 
HETATM    5  C   UNK N   1      25.776  16.829   4.471  0.00  0.00     0.282 C 
HETATM    6  C   UNK N   1      25.532  19.278   4.801  0.00  0.00     0.035 C 
HETATM    7  C   UNK N   1      29.920  17.114   5.568  0.00  0.00     0.278 C 
HETATM    8  O   UNK N   1      27.947  16.166   6.315  0.00  0.00    -0.264 OA
HETATM    9  C   UNK N   1      27.687  20.572   5.262  0.00  0.00     0.020 C 
HETATM   10  O   UNK N   1      25.425  15.680   5.103  0.00  0.00    -0.314 OA
HETATM   11  O   UNK N   1      25.830  16.884   3.250  0.00  0.00    -0.263 OA
HETATM   12  C   UNK N   1      26.161  20.506   5.457  0.00  0.00     0.004 C 
HETATM   13  C   UNK N   1      30.443  16.234   4.451  0.00  0.00     0.238 C 
HETATM   14  O   UNK N   1      30.659  17.748   6.306  0.00  0.00    -0.281 OA
HETATM   15  C   UNK N   1      24.620  14.653   4.641  0.00  0.00     0.142 C 
HETATM   16  O   UNK N   1      29.815  14.963   4.631  0.00  0.00    -0.343 OA
HETATM   17  C   UNK N   1      31.990  16.166   4.356  0.00  0.00     0.053 C 
HETATM   18  C   UNK N   1      24.870  14.223   3.179  0.00  0.00     0.112 C 
HETATM   19  C   UNK N   1      30.662  13.834   4.651  0.00  0.00     0.128 C 
HETATM   20  C   UNK N   1      32.576  15.341   5.483  0.00  0.00     0.013 C 
HETATM   21  C   UNK N   1      32.673  17.522   4.244  0.00  0.00     0.016 C 
HETATM   22  C   UNK N   1      26.253  13.746   2.858  0.00  0.00     0.136 C 
HETATM   23  C   UNK N   1      31.061  13.466   3.224  0.00  0.00     0.068 C 
HETATM   24  C   UNK N   1      31.858  13.999   5.605  0.00  0.00     0.033 C 
HETATM   25  C   UNK N   1      26.881  12.566   3.537  0.00  0.00     0.074 C 
HETATM   26  O   UNK N   1      26.887  14.323   1.991  0.00  0.00    -0.297 OA
HETATM   27  C   UNK N   1      31.809  12.134   3.128  0.00  0.00     0.151 C 
HETATM   28  C   UNK N   1      26.219  11.222   3.368  0.00  0.00    -0.010 C 
HETATM   29  C   UNK N   1      27.164  12.822   5.005  0.00  0.00     0.022 C 
HETATM   30  C   UNK N   1      30.909  10.908   3.212  0.00  0.00    -0.055 C 
HETATM   31  C   UNK N   1      25.980  10.610   2.197  0.00  0.00    -0.056 C 
HETATM   32  C   UNK N   1      31.366   9.663   3.045  0.00  0.00     0.005 C 
HETATM   33  C   UNK N   1      29.454  11.046   3.472  0.00  0.00     0.046 C 
HETATM   34  C   UNK N   1      25.581   9.158   2.242  0.00  0.00     0.183 C 
HETATM   35  C   UNK N   1      26.297  11.262   0.885  0.00  0.00     0.046 C 
HETATM   36  C   UNK N   1      32.766   9.321   2.764  0.00  0.00     0.000 C 
HETATM   37  C   UNK N   1      26.726   8.225   1.775  0.00  0.00     0.223 C 
HETATM   38  C   UNK N   1      33.150   8.115   2.309  0.00  0.00    -0.000 C 
HETATM   39  C   UNK N   1      26.536   6.784   2.232  0.00  0.00     0.162 C 
HETATM   40  C   UNK N   1      32.269   6.954   2.007  0.00  0.00    -0.004 C 
HETATM   41  C   UNK N   1      27.578   5.708   1.977  0.00  0.00     0.055 C 
HETATM   42  O   UNK N   1      25.538   6.481   2.871  0.00  0.00    -0.295 OA
HETATM   43  C   UNK N   1      30.968   6.889   2.329  0.00  0.00    -0.022 C 
HETATM   44  C   UNK N   1      28.839   6.185   1.264  0.00  0.00     0.020 C 
HETATM   45  C   UNK N   1      26.982   4.539   1.216  0.00  0.00     0.018 C 
HETATM   46  C   UNK N   1      30.082   5.712   1.999  0.00  0.00     0.005 C 
HETATM   47  C   UNK N   1      30.777   4.631   1.185  0.00  0.00     0.014 C 
ENDROOT
BRANCH  15  48
HETATM   48  C   UNK N   1      23.155  15.027   4.888  0.00  0.00     0.012 C 
HETATM   49  C   UNK N   1      22.201  13.841   4.910  0.00  0.00     0.012 C 
BRANCH  48  50
HETATM   50  C   UNK N   1      22.933  16.034   6.025  0.00  0.00     0.011 C 
BRANCH  50  51
HETATM   51  C   UNK N   1      22.143  17.290   5.671  0.00  0.00    -0.012 C 
HETATM   52  C   UNK N   1      22.435  17.629   4.199  0.00  0.00     0.039 C 
HETATM   53  C   UNK N   1      21.273  18.392   3.566  0.00  0.00     0.150 C 
HETATM   54  C   UNK N   1      20.015  17.501   3.553  0.00  0.00     0.150 C 
HETATM   55  C   UNK N   1      19.941  16.512   4.730  0.00  0.00     0.035 C 
HETATM   56  C   UNK N   1      20.642  17.091   5.951  0.00  0.00     0.007 C 
BRANCH  53  57
HETATM   57  O   UNK N   1      21.027  19.568   4.280  0.00  0.00    -0.388 OA
HETATM   58  C   UNK N   1      20.551  20.469   3.327  0.00  0.00     0.202 C 
ENDBRANCH  53  57
BRANCH  54  59
HETATM   59  O   UNK N   1      19.943  16.799   2.346  0.00  0.00    -0.381 OA
BRANCH  59  60
HETATM   60  C   UNK N   1      19.951  15.448   2.711  0.00  0.00     0.194 C 
BRANCH  60  61
HETATM   61  C   UNK N   1      20.542  14.595   1.600  0.00  0.00     0.190 C 
BRANCH  61  62
HETATM   62  O   UNK N   1      21.326  15.383   0.757  0.00  0.00    -0.399 OA
HETATM   63  H   UNK N   1      21.063  16.284   0.513  0.00  0.00     0.209 HD
ENDBRANCH  61  62
ENDBRANCH  60  61
ENDBRANCH  59  60
ENDBRANCH  54  59
ENDBRANCH  50  51
ENDBRANCH  48  50
ENDBRANCH  15  48
BRANCH  34  64
HETATM   64  O   UNK N   1      24.425   8.933   1.492  0.00  0.00    -0.388 OA
HETATM   65  H   UNK N   1      23.578   9.400   1.554  0.00  0.00     0.210 HD
ENDBRANCH  34  64
BRANCH  13  66
HETATM   66  O   UNK N   1      29.979  16.770   3.247  0.00  0.00    -0.359 OA
HETATM   67  H   UNK N   1      29.888  17.382   2.501  0.00  0.00     0.213 HD
ENDBRANCH  13  66
BRANCH  37  68
HETATM   68  O   UNK N   1      27.951   8.699   2.255  0.00  0.00    -0.380 OA
HETATM   69  C   UNK N   1      27.942   8.387   3.620  0.00  0.00     0.202 C 
ENDBRANCH  37  68
BRANCH  27  70
HETATM   70  O   UNK N   1      32.544  12.133   1.942  0.00  0.00    -0.386 OA
HETATM   71  C   UNK N   1      33.510  13.124   2.138  0.00  0.00     0.202 C 
ENDBRANCH  27  70
TORSDOF 12
ENDMDL
