REMARK  8 active torsions:
REMARK  status: ('A' for Active; 'I' for Inactive)
REMARK    1  A    between atoms: C_3  and  O_32 
REMARK    2  A    between atoms: C_11  and  O_34 
REMARK    3  A    between atoms: C_14  and  O_38 
REMARK    4  A    between atoms: C_16  and  C_19 
REMARK    5  A    between atoms: C_17  and  O_37 
REMARK    6  A    between atoms: C_18  and  N_27 
REMARK       I    between atoms: C_19  and  N_20 
REMARK    7  A    between atoms: N_20  and  C_21 
REMARK    8  A    between atoms: C_21  and  N_22 
ROOT
HETATM    1  C   UNK N   1      11.192  -9.324   0.469  0.00  0.00     0.003 A 
HETATM    2  C   UNK N   1      11.055 -10.682   0.190  0.00  0.00     0.037 A 
HETATM    3  C   UNK N   1      12.167 -11.444  -0.172  0.00  0.00     0.080 A 
HETATM    4  C   UNK N   1      12.440  -8.711   0.364  0.00  0.00     0.011 A 
HETATM    5  C   UNK N   1      13.574  -9.456  -0.003  0.00  0.00    -0.007 A 
HETATM    6  C   UNK N   1      13.442 -10.839  -0.261  0.00  0.00     0.057 A 
HETATM    7  C   UNK N   1      14.663 -11.639  -0.548  0.00  0.00     0.194 C 
HETATM    8  C   UNK N   1      14.912  -8.779  -0.243  0.00  0.00     0.090 C 
HETATM    9  C   UNK N   1      16.076  -9.636   0.300  0.00  0.00     0.065 C 
HETATM   10  C   UNK N   1      15.998 -11.081  -0.155  0.00  0.00     0.033 C 
HETATM   11  C   UNK N   1      17.094 -11.878  -0.038  0.00  0.00     0.097 C 
HETATM   12  C   UNK N   1      17.426  -9.069  -0.137  0.00  0.00     0.024 C 
HETATM   13  C   UNK N   1      18.544  -9.778   0.624  0.00  0.00     0.075 C 
HETATM   14  C   UNK N   1      18.444 -11.345   0.449  0.00  0.00     0.177 C 
HETATM   15  C   UNK N   1      19.610 -11.873  -0.371  0.00  0.00     0.208 C 
HETATM   16  C   UNK N   1      20.952 -11.461   0.082  0.00  0.00     0.112 C 
HETATM   17  C   UNK N   1      21.074 -10.182   0.511  0.00  0.00     0.096 C 
HETATM   18  C   UNK N   1      19.938  -9.200   0.211  0.00  0.00     0.286 C 
HETATM   19  C   UNK N   1      14.965  -7.381   0.377  0.00  0.00     0.052 C 
HETATM   20  O   UNK N   1      15.063  -8.641  -1.627  0.00  0.00    -0.385 OA
HETATM   21  O   UNK N   1      14.562 -12.787  -0.956  0.00  0.00    -0.287 OA
HETATM   22  O   UNK N   1      19.472 -12.746  -1.217  0.00  0.00    -0.288 OA
HETATM   23  H   UNK N   1      15.197  -8.684  -2.586  0.00  0.00     0.211 HD
ENDROOT
BRANCH  11  24
HETATM   24  O   UNK N   1      16.995 -13.199  -0.306  0.00  0.00    -0.361 OA
HETATM   25  H   UNK N   1      16.168 -13.598  -0.491  0.00  0.00     0.217 HD
ENDBRANCH  11  24
BRANCH   3  26
HETATM   26  O   UNK N   1      12.006 -12.760  -0.401  0.00  0.00    -0.360 OA
HETATM   27  H   UNK N   1      11.156 -13.121  -0.560  0.00  0.00     0.217 HD
ENDBRANCH   3  26
BRANCH  14  28
HETATM   28  O   UNK N   1      18.635 -11.900   1.720  0.00  0.00    -0.374 OA
HETATM   29  H   UNK N   1      18.369 -12.207   2.600  0.00  0.00     0.211 HD
ENDBRANCH  14  28
BRANCH  18  30
HETATM   30  N   UNK N   1      20.194  -7.817   0.689  0.00  0.00     0.091 N 
HETATM   31  C   UNK N   1      21.480  -7.333   0.199  0.00  0.00     0.310 C 
HETATM   32  C   UNK N   1      19.242  -6.889   0.097  0.00  0.00     0.310 C 
ENDBRANCH  18  30
BRANCH  17  33
HETATM   33  O   UNK N   1      22.172  -9.777   1.175  0.00  0.00    -0.362 OA
HETATM   34  H   UNK N   1      22.799 -10.298   1.638  0.00  0.00     0.217 HD
ENDBRANCH  17  33
BRANCH  16  35
HETATM   35  C   UNK N   1      22.039 -12.487   0.200  0.00  0.00     0.259 C 
HETATM   36  O   UNK N   1      21.726 -13.634   0.490  0.00  0.00    -0.267 OA
HETATM   37  N   UNK N   1      23.346 -12.219  -0.056  0.00  0.00    -0.331 N 
HETATM   38  H   UNK N   1      24.023 -12.880   0.216  0.00  0.00     0.164 HD
BRANCH  37  39
HETATM   39  C   UNK N   1      23.787 -11.009  -0.708  0.00  0.00     0.397 C 
BRANCH  39  40
HETATM   40  N   UNK N   1      24.635 -10.220   0.167  0.00  0.00     0.105 N 
HETATM   41  C   UNK N   1      25.998 -10.709   0.061  0.00  0.00     0.274 C 
HETATM   42  C   UNK N   1      26.894  -9.502   0.170  0.00  0.00     0.032 C 
HETATM   43  C   UNK N   1      26.082  -8.387  -0.434  0.00  0.00     0.032 C 
HETATM   44  C   UNK N   1      24.648  -8.873  -0.390  0.00  0.00     0.274 C 
ENDBRANCH  39  40
ENDBRANCH  37  39
ENDBRANCH  16  35
TORSDOF 8
