MODEL 1
REMARK VINA RESULT:      -6.2      0.000      0.000
REMARK  5 active torsions:
REMARK  status: ('A' for Active; 'I' for Inactive)
REMARK    1  A    between atoms: N_3  and  C_5 
REMARK    2  A    between atoms: N_4  and  C_9 
REMARK    3  A    between atoms: C_5  and  C_6 
REMARK    4  A    between atoms: C_6  and  C_9 
REMARK    5  A    between atoms: C_14  and  C_22 
ROOT
HETATM    1  S   UNK N   1      27.941  22.020  -7.944  0.00  0.00    -0.086 SA
HETATM    2  N   UNK N   1      27.994  24.378  -5.773  0.00  0.00    -0.345 N 
HETATM    3  C   UNK N   1      28.819  23.230  -5.544  0.00  0.00     0.053 A 
HETATM    4  C   UNK N   1      27.235  24.583  -6.977  0.00  0.00     0.052 A 
HETATM    5  C   UNK N   1      28.894  22.144  -6.439  0.00  0.00     0.032 A 
HETATM    6  C   UNK N   1      27.163  23.625  -8.011  0.00  0.00     0.032 A 
HETATM    7  C   UNK N   1      29.617  23.194  -4.382  0.00  0.00     0.046 A 
HETATM    8  C   UNK N   1      26.537  25.799  -7.148  0.00  0.00     0.031 A 
HETATM    9  C   UNK N   1      30.470  22.124  -4.106  0.00  0.00     0.011 A 
HETATM   10  C   UNK N   1      29.745  21.069  -6.156  0.00  0.00     0.022 A 
HETATM   11  C   UNK N   1      26.423  23.904  -9.168  0.00  0.00     0.021 A 
HETATM   12  C   UNK N   1      30.530  21.057  -5.004  0.00  0.00     0.016 A 
HETATM   13  C   UNK N   1      25.806  26.064  -8.304  0.00  0.00     0.002 A 
HETATM   14  C   UNK N   1      25.753  25.116  -9.319  0.00  0.00     0.002 A 
ENDROOT
BRANCH   2  15
HETATM   15  C   UNK N   1      27.978  25.410  -4.751  0.00  0.00     0.131 C 
BRANCH  15  16
HETATM   16  C   UNK N   1      26.784  25.220  -3.826  0.00  0.00     0.050 C 
BRANCH  16  17
HETATM   17  C   UNK N   1      26.433  26.524  -3.120  0.00  0.00     0.273 C 
BRANCH  17  18
HETATM   18  N   UNK N   1      26.707  27.683  -3.964  0.00  0.00     0.080 N 
HETATM   19  C   UNK N   1      25.433  28.138  -4.486  0.00  0.00     0.309 C 
HETATM   20  C   UNK N   1      27.234  28.760  -3.142  0.00  0.00     0.309 C 
ENDBRANCH  17  18
ENDBRANCH  16  17
ENDBRANCH  15  16
ENDBRANCH   2  15
BRANCH   9  21
HETATM   21  C   UNK N   1      31.302  22.135  -2.883  0.00  0.00     0.155 C 
HETATM   22  O   UNK N   1      30.917  22.721  -1.884  0.00  0.00    -0.293 OA
HETATM   23  C   UNK N   1      32.625  21.440  -2.851  0.00  0.00     0.096 C 
ENDBRANCH   9  21
TORSDOF 5
ENDMDL
MODEL 2
REMARK VINA RESULT:      -6.0      2.467      5.262
REMARK  5 active torsions:
REMARK  status: ('A' for Active; 'I' for Inactive)
REMARK    1  A    between atoms: N_3  and  C_5 
REMARK    2  A    between atoms: N_4  and  C_9 
REMARK    3  A    between atoms: C_5  and  C_6 
REMARK    4  A    between atoms: C_6  and  C_9 
REMARK    5  A    between atoms: C_14  and  C_22 
ROOT
HETATM    1  S   UNK N   1      26.805  23.515  -7.822  0.00  0.00    -0.086 SA
HETATM    2  N   UNK N   1      28.530  24.003  -5.164  0.00  0.00    -0.345 N 
HETATM    3  C   UNK N   1      27.471  24.921  -5.461  0.00  0.00     0.053 A 
HETATM    4  C   UNK N   1      28.786  22.812  -5.927  0.00  0.00     0.052 A 
HETATM    5  C   UNK N   1      26.633  24.793  -6.587  0.00  0.00     0.032 A 
HETATM    6  C   UNK N   1      28.070  22.483  -7.098  0.00  0.00     0.032 A 
HETATM    7  C   UNK N   1      27.233  25.988  -4.570  0.00  0.00     0.046 A 
HETATM    8  C   UNK N   1      29.788  21.920  -5.488  0.00  0.00     0.031 A 
HETATM    9  C   UNK N   1      26.200  26.904  -4.776  0.00  0.00     0.011 A 
HETATM   10  C   UNK N   1      25.602  25.717  -6.794  0.00  0.00     0.022 A 
HETATM   11  C   UNK N   1      28.357  21.292  -7.779  0.00  0.00     0.021 A 
HETATM   12  C   UNK N   1      25.382  26.761  -5.897  0.00  0.00     0.016 A 
HETATM   13  C   UNK N   1      30.063  20.738  -6.173  0.00  0.00     0.002 A 
HETATM   14  C   UNK N   1      29.342  20.421  -7.318  0.00  0.00     0.002 A 
ENDROOT
BRANCH   2  15
HETATM   15  C   UNK N   1      29.344  24.273  -3.992  0.00  0.00     0.131 C 
BRANCH  15  16
HETATM   16  C   UNK N   1      30.607  25.025  -4.387  0.00  0.00     0.050 C 
BRANCH  16  17
HETATM   17  C   UNK N   1      30.821  26.236  -3.486  0.00  0.00     0.273 C 
BRANCH  17  18
HETATM   18  N   UNK N   1      30.527  27.483  -4.185  0.00  0.00     0.080 N 
HETATM   19  C   UNK N   1      29.868  28.357  -3.233  0.00  0.00     0.309 C 
HETATM   20  C   UNK N   1      31.776  28.129  -4.556  0.00  0.00     0.309 C 
ENDBRANCH  17  18
ENDBRANCH  16  17
ENDBRANCH  15  16
ENDBRANCH   2  15
BRANCH   9  21
HETATM   21  C   UNK N   1      25.976  27.999  -3.807  0.00  0.00     0.155 C 
HETATM   22  O   UNK N   1      25.478  27.762  -2.717  0.00  0.00    -0.293 OA
HETATM   23  C   UNK N   1      26.345  29.408  -4.144  0.00  0.00     0.096 C 
ENDBRANCH   9  21
TORSDOF 5
ENDMDL
MODEL 3
REMARK VINA RESULT:      -6.0     10.920     14.057
REMARK  5 active torsions:
REMARK  status: ('A' for Active; 'I' for Inactive)
REMARK    1  A    between atoms: N_3  and  C_5 
REMARK    2  A    between atoms: N_4  and  C_9 
REMARK    3  A    between atoms: C_5  and  C_6 
REMARK    4  A    between atoms: C_6  and  C_9 
REMARK    5  A    between atoms: C_14  and  C_22 
ROOT
HETATM    1  S   UNK N   1      28.724  18.842   8.135  0.00  0.00    -0.086 SA
HETATM    2  N   UNK N   1      28.899  17.480   5.238  0.00  0.00    -0.345 N 
HETATM    3  C   UNK N   1      28.007  18.588   5.411  0.00  0.00     0.053 A 
HETATM    4  C   UNK N   1      29.804  17.022   6.256  0.00  0.00     0.052 A 
HETATM    5  C   UNK N   1      27.865  19.278   6.632  0.00  0.00     0.032 A 
HETATM    6  C   UNK N   1      29.834  17.567   7.558  0.00  0.00     0.032 A 
HETATM    7  C   UNK N   1      27.256  19.029   4.302  0.00  0.00     0.046 A 
HETATM    8  C   UNK N   1      30.716  15.990   5.948  0.00  0.00     0.031 A 
HETATM    9  C   UNK N   1      26.390  20.121   4.387  0.00  0.00     0.011 A 
HETATM   10  C   UNK N   1      26.990  20.368   6.714  0.00  0.00     0.022 A 
HETATM   11  C   UNK N   1      30.760  17.087   8.493  0.00  0.00     0.021 A 
HETATM   12  C   UNK N   1      26.261  20.791   5.604  0.00  0.00     0.016 A 
HETATM   13  C   UNK N   1      31.634  15.522   6.887  0.00  0.00     0.002 A 
HETATM   14  C   UNK N   1      31.659  16.076   8.161  0.00  0.00     0.002 A 
ENDROOT
BRANCH   2  15
HETATM   15  C   UNK N   1      28.921  16.832   3.938  0.00  0.00     0.131 C 
BRANCH  15  16
HETATM   16  C   UNK N   1      27.952  15.659   3.915  0.00  0.00     0.050 C 
BRANCH  16  17
HETATM   17  C   UNK N   1      27.109  15.676   2.645  0.00  0.00     0.273 C 
BRANCH  17  18
HETATM   18  N   UNK N   1      25.748  15.213   2.898  0.00  0.00     0.080 N 
HETATM   19  C   UNK N   1      24.984  16.364   3.339  0.00  0.00     0.309 C 
HETATM   20  C   UNK N   1      25.155  14.768   1.647  0.00  0.00     0.309 C 
ENDBRANCH  17  18
ENDBRANCH  16  17
ENDBRANCH  15  16
ENDBRANCH   2  15
BRANCH   9  21
HETATM   21  C   UNK N   1      25.633  20.561   3.194  0.00  0.00     0.155 C 
HETATM   22  O   UNK N   1      26.208  21.125   2.276  0.00  0.00    -0.293 OA
HETATM   23  C   UNK N   1      24.160  20.330   3.094  0.00  0.00     0.096 C 
ENDBRANCH   9  21
TORSDOF 5
ENDMDL
MODEL 4
REMARK VINA RESULT:      -5.9      2.253      4.213
REMARK  5 active torsions:
REMARK  status: ('A' for Active; 'I' for Inactive)
REMARK    1  A    between atoms: N_3  and  C_5 
REMARK    2  A    between atoms: N_4  and  C_9 
REMARK    3  A    between atoms: C_5  and  C_6 
REMARK    4  A    between atoms: C_6  and  C_9 
REMARK    5  A    between atoms: C_14  and  C_22 
ROOT
HETATM    1  S   UNK N   1      30.297  27.842  -5.031  0.00  0.00    -0.086 SA
HETATM    2  N   UNK N   1      28.044  25.891  -3.851  0.00  0.00    -0.345 N 
HETATM    3  C   UNK N   1      29.378  25.384  -3.979  0.00  0.00     0.053 A 
HETATM    4  C   UNK N   1      27.686  27.258  -4.112  0.00  0.00     0.052 A 
HETATM    5  C   UNK N   1      30.453  26.157  -4.463  0.00  0.00     0.032 A 
HETATM    6  C   UNK N   1      28.603  28.211  -4.606  0.00  0.00     0.032 A 
HETATM    7  C   UNK N   1      29.637  24.057  -3.576  0.00  0.00     0.046 A 
HETATM    8  C   UNK N   1      26.364  27.681  -3.854  0.00  0.00     0.031 A 
HETATM    9  C   UNK N   1      30.917  23.505  -3.642  0.00  0.00     0.011 A 
HETATM   10  C   UNK N   1      31.734  25.596  -4.534  0.00  0.00     0.022 A 
HETATM   11  C   UNK N   1      28.189  29.534  -4.813  0.00  0.00     0.021 A 
HETATM   12  C   UNK N   1      31.968  24.285  -4.124  0.00  0.00     0.016 A 
HETATM   13  C   UNK N   1      25.965  29.000  -4.062  0.00  0.00     0.002 A 
HETATM   14  C   UNK N   1      26.882  29.929  -4.539  0.00  0.00     0.002 A 
ENDROOT
BRANCH   2  15
HETATM   15  C   UNK N   1      27.021  24.976  -3.376  0.00  0.00     0.131 C 
BRANCH  15  16
HETATM   16  C   UNK N   1      26.609  24.020  -4.486  0.00  0.00     0.050 C 
BRANCH  16  17
HETATM   17  C   UNK N   1      25.481  24.614  -5.323  0.00  0.00     0.273 C 
BRANCH  17  18
HETATM   18  N   UNK N   1      25.813  24.620  -6.744  0.00  0.00     0.080 N 
HETATM   19  C   UNK N   1      25.881  26.009  -7.157  0.00  0.00     0.309 C 
HETATM   20  C   UNK N   1      27.143  24.061  -6.926  0.00  0.00     0.309 C 
ENDBRANCH  17  18
ENDBRANCH  16  17
ENDBRANCH  15  16
ENDBRANCH   2  15
BRANCH   9  21
HETATM   21  C   UNK N   1      31.148  22.114  -3.192  0.00  0.00     0.155 C 
HETATM   22  O   UNK N   1      31.861  21.892  -2.226  0.00  0.00    -0.293 OA
HETATM   23  C   UNK N   1      30.523  20.963  -3.912  0.00  0.00     0.096 C 
ENDBRANCH   9  21
TORSDOF 5
ENDMDL
MODEL 5
REMARK VINA RESULT:      -5.8     13.016     14.420
REMARK  5 active torsions:
REMARK  status: ('A' for Active; 'I' for Inactive)
REMARK    1  A    between atoms: N_3  and  C_5 
REMARK    2  A    between atoms: N_4  and  C_9 
REMARK    3  A    between atoms: C_5  and  C_6 
REMARK    4  A    between atoms: C_6  and  C_9 
REMARK    5  A    between atoms: C_14  and  C_22 
ROOT
HETATM    1  S   UNK N   1      25.852  16.696   5.049  0.00  0.00    -0.086 SA
HETATM    2  N   UNK N   1      22.901  17.927   4.811  0.00  0.00    -0.345 N 
HETATM    3  C   UNK N   1      23.078  16.744   5.599  0.00  0.00     0.053 A 
HETATM    4  C   UNK N   1      23.989  18.656   4.219  0.00  0.00     0.052 A 
HETATM    5  C   UNK N   1      24.332  16.128   5.794  0.00  0.00     0.032 A 
HETATM    6  C   UNK N   1      25.330  18.223   4.285  0.00  0.00     0.032 A 
HETATM    7  C   UNK N   1      21.953  16.183   6.237  0.00  0.00     0.046 A 
HETATM    8  C   UNK N   1      23.715  19.869   3.549  0.00  0.00     0.031 A 
HETATM    9  C   UNK N   1      22.053  15.050   7.046  0.00  0.00     0.011 A 
HETATM   10  C   UNK N   1      24.426  14.988   6.601  0.00  0.00     0.022 A 
HETATM   11  C   UNK N   1      26.343  18.998   3.704  0.00  0.00     0.021 A 
HETATM   12  C   UNK N   1      23.301  14.453   7.225  0.00  0.00     0.016 A 
HETATM   13  C   UNK N   1      24.732  20.632   2.977  0.00  0.00     0.002 A 
HETATM   14  C   UNK N   1      26.049  20.198   3.060  0.00  0.00     0.002 A 
ENDROOT
BRANCH   2  15
HETATM   15  C   UNK N   1      21.550  18.437   4.659  0.00  0.00     0.131 C 
BRANCH  15  16
HETATM   16  C   UNK N   1      21.027  18.142   3.260  0.00  0.00     0.050 C 
BRANCH  16  17
HETATM   17  C   UNK N   1      19.944  17.071   3.301  0.00  0.00     0.273 C 
BRANCH  17  18
HETATM   18  N   UNK N   1      20.125  16.085   2.239  0.00  0.00     0.080 N 
HETATM   19  C   UNK N   1      20.103  16.808   0.982  0.00  0.00     0.309 C 
HETATM   20  C   UNK N   1      21.446  15.489   2.360  0.00  0.00     0.309 C 
ENDBRANCH  17  18
ENDBRANCH  16  17
ENDBRANCH  15  16
ENDBRANCH   2  15
BRANCH   9  21
HETATM   21  C   UNK N   1      20.848  14.504   7.709  0.00  0.00     0.155 C 
HETATM   22  O   UNK N   1      20.230  13.583   7.198  0.00  0.00    -0.293 OA
HETATM   23  C   UNK N   1      20.364  15.071   9.005  0.00  0.00     0.096 C 
ENDBRANCH   9  21
TORSDOF 5
ENDMDL
MODEL 6
REMARK VINA RESULT:      -5.7     13.797     15.869
REMARK  5 active torsions:
REMARK  status: ('A' for Active; 'I' for Inactive)
REMARK    1  A    between atoms: N_3  and  C_5 
REMARK    2  A    between atoms: N_4  and  C_9 
REMARK    3  A    between atoms: C_5  and  C_6 
REMARK    4  A    between atoms: C_6  and  C_9 
REMARK    5  A    between atoms: C_14  and  C_22 
ROOT
HETATM    1  S   UNK N   1      28.770  16.085   5.911  0.00  0.00    -0.086 SA
HETATM    2  N   UNK N   1      31.731  16.839   6.881  0.00  0.00    -0.345 N 
HETATM    3  C   UNK N   1      31.586  16.108   5.657  0.00  0.00     0.053 A 
HETATM    4  C   UNK N   1      30.621  17.353   7.635  0.00  0.00     0.052 A 
HETATM    5  C   UNK N   1      30.334  15.743   5.122  0.00  0.00     0.032 A 
HETATM    6  C   UNK N   1      29.276  17.108   7.285  0.00  0.00     0.032 A 
HETATM    7  C   UNK N   1      32.748  15.762   4.937  0.00  0.00     0.046 A 
HETATM    8  C   UNK N   1      30.876  18.151   8.772  0.00  0.00     0.031 A 
HETATM    9  C   UNK N   1      32.684  15.078   3.721  0.00  0.00     0.011 A 
HETATM   10  C   UNK N   1      30.276  15.051   3.907  0.00  0.00     0.022 A 
HETATM   11  C   UNK N   1      28.243  17.662   8.053  0.00  0.00     0.021 A 
HETATM   12  C   UNK N   1      31.436  14.723   3.208  0.00  0.00     0.016 A 
HETATM   13  C   UNK N   1      29.840  18.698   9.527  0.00  0.00     0.002 A 
HETATM   14  C   UNK N   1      28.521  18.456   9.164  0.00  0.00     0.002 A 
ENDROOT
BRANCH   2  15
HETATM   15  C   UNK N   1      33.080  17.117   7.342  0.00  0.00     0.131 C 
BRANCH  15  16
HETATM   16  C   UNK N   1      33.483  16.131   8.429  0.00  0.00     0.050 C 
BRANCH  16  17
HETATM   17  C   UNK N   1      34.469  16.768   9.400  0.00  0.00     0.273 C 
BRANCH  17  18
HETATM   18  N   UNK N   1      34.703  15.916  10.562  0.00  0.00     0.080 N 
HETATM   19  C   UNK N   1      34.293  14.575  10.194  0.00  0.00     0.309 C 
HETATM   20  C   UNK N   1      36.131  15.861  10.834  0.00  0.00     0.309 C 
ENDBRANCH  17  18
ENDBRANCH  16  17
ENDBRANCH  15  16
ENDBRANCH   2  15
BRANCH   9  21
HETATM   21  C   UNK N   1      33.928  14.749   2.990  0.00  0.00     0.155 C 
HETATM   22  O   UNK N   1      34.135  15.228   1.886  0.00  0.00    -0.293 OA
HETATM   23  C   UNK N   1      34.943  13.825   3.582  0.00  0.00     0.096 C 
ENDBRANCH   9  21
TORSDOF 5
ENDMDL
MODEL 7
REMARK VINA RESULT:      -5.6      3.035      7.278
REMARK  5 active torsions:
REMARK  status: ('A' for Active; 'I' for Inactive)
REMARK    1  A    between atoms: N_3  and  C_5 
REMARK    2  A    between atoms: N_4  and  C_9 
REMARK    3  A    between atoms: C_5  and  C_6 
REMARK    4  A    between atoms: C_6  and  C_9 
REMARK    5  A    between atoms: C_14  and  C_22 
ROOT
HETATM    1  S   UNK N   1      29.679  22.774  -2.405  0.00  0.00    -0.086 SA
HETATM    2  N   UNK N   1      29.802  22.709  -5.608  0.00  0.00    -0.345 N 
HETATM    3  C   UNK N   1      28.702  23.385  -4.987  0.00  0.00     0.053 A 
HETATM    4  C   UNK N   1      30.911  22.160  -4.877  0.00  0.00     0.052 A 
HETATM    5  C   UNK N   1      28.557  23.498  -3.590  0.00  0.00     0.032 A 
HETATM    6  C   UNK N   1      30.976  22.159  -3.467  0.00  0.00     0.032 A 
HETATM    7  C   UNK N   1      27.733  23.995  -5.811  0.00  0.00     0.046 A 
HETATM    8  C   UNK N   1      31.995  21.606  -5.592  0.00  0.00     0.031 A 
HETATM    9  C   UNK N   1      26.651  24.698  -5.279  0.00  0.00     0.011 A 
HETATM   10  C   UNK N   1      27.466  24.198  -3.060  0.00  0.00     0.022 A 
HETATM   11  C   UNK N   1      32.101  21.628  -2.821  0.00  0.00     0.021 A 
HETATM   12  C   UNK N   1      26.523  24.798  -3.894  0.00  0.00     0.016 A 
HETATM   13  C   UNK N   1      33.109  21.082  -4.938  0.00  0.00     0.002 A 
HETATM   14  C   UNK N   1      33.164  21.098  -3.549  0.00  0.00     0.002 A 
ENDROOT
BRANCH   2  15
HETATM   15  C   UNK N   1      29.811  22.631  -7.058  0.00  0.00     0.131 C 
BRANCH  15  16
HETATM   16  C   UNK N   1      29.210  21.312  -7.522  0.00  0.00     0.050 C 
BRANCH  16  17
HETATM   17  C   UNK N   1      29.923  20.800  -8.768  0.00  0.00     0.273 C 
BRANCH  17  18
HETATM   18  N   UNK N   1      30.031  19.344  -8.764  0.00  0.00     0.080 N 
HETATM   19  C   UNK N   1      31.428  19.024  -8.541  0.00  0.00     0.309 C 
HETATM   20  C   UNK N   1      29.290  18.813  -7.631  0.00  0.00     0.309 C 
ENDBRANCH  17  18
ENDBRANCH  16  17
ENDBRANCH  15  16
ENDBRANCH   2  15
BRANCH   9  21
HETATM   21  C   UNK N   1      25.667  25.336  -6.181  0.00  0.00     0.155 C 
HETATM   22  O   UNK N   1      25.329  24.779  -7.213  0.00  0.00    -0.293 OA
HETATM   23  C   UNK N   1      25.077  26.669  -5.850  0.00  0.00     0.096 C 
ENDBRANCH   9  21
TORSDOF 5
ENDMDL
MODEL 8
REMARK VINA RESULT:      -5.6     12.409     14.225
REMARK  5 active torsions:
REMARK  status: ('A' for Active; 'I' for Inactive)
REMARK    1  A    between atoms: N_3  and  C_5 
REMARK    2  A    between atoms: N_4  and  C_9 
REMARK    3  A    between atoms: C_5  and  C_6 
REMARK    4  A    between atoms: C_6  and  C_9 
REMARK    5  A    between atoms: C_14  and  C_22 
ROOT
HETATM    1  S   UNK N   1      27.500  18.134   6.415  0.00  0.00    -0.086 SA
HETATM    2  N   UNK N   1      29.815  16.520   4.895  0.00  0.00    -0.345 N 
HETATM    3  C   UNK N   1      30.123  17.108   6.164  0.00  0.00     0.053 A 
HETATM    4  C   UNK N   1      28.497  16.513   4.321  0.00  0.00     0.052 A 
HETATM    5  C   UNK N   1      29.179  17.819   6.932  0.00  0.00     0.032 A 
HETATM    6  C   UNK N   1      27.398  17.167   4.918  0.00  0.00     0.032 A 
HETATM    7  C   UNK N   1      31.423  16.944   6.686  0.00  0.00     0.046 A 
HETATM    8  C   UNK N   1      28.279  15.815   3.114  0.00  0.00     0.031 A 
HETATM    9  C   UNK N   1      31.787  17.461   7.931  0.00  0.00     0.011 A 
HETATM   10  C   UNK N   1      29.551  18.342   8.177  0.00  0.00     0.022 A 
HETATM   11  C   UNK N   1      26.135  17.098   4.313  0.00  0.00     0.021 A 
HETATM   12  C   UNK N   1      30.840  18.164   8.676  0.00  0.00     0.016 A 
HETATM   13  C   UNK N   1      27.018  15.752   2.524  0.00  0.00     0.002 A 
HETATM   14  C   UNK N   1      25.942  16.392   3.128  0.00  0.00     0.002 A 
ENDROOT
BRANCH   2  15
HETATM   15  C   UNK N   1      30.891  15.847   4.187  0.00  0.00     0.131 C 
BRANCH  15  16
HETATM   16  C   UNK N   1      31.630  16.829   3.290  0.00  0.00     0.050 C 
BRANCH  16  17
HETATM   17  C   UNK N   1      33.126  16.538   3.285  0.00  0.00     0.273 C 
BRANCH  17  18
HETATM   18  N   UNK N   1      33.429  15.270   3.942  0.00  0.00     0.080 N 
HETATM   19  C   UNK N   1      34.121  14.444   2.972  0.00  0.00     0.309 C 
HETATM   20  C   UNK N   1      34.360  15.508   5.034  0.00  0.00     0.309 C 
ENDBRANCH  17  18
ENDBRANCH  16  17
ENDBRANCH  15  16
ENDBRANCH   2  15
BRANCH   9  21
HETATM   21  C   UNK N   1      33.158  17.251   8.448  0.00  0.00     0.155 C 
HETATM   22  O   UNK N   1      33.413  16.271   9.130  0.00  0.00    -0.293 OA
HETATM   23  C   UNK N   1      34.246  18.232   8.153  0.00  0.00     0.096 C 
ENDBRANCH   9  21
TORSDOF 5
ENDMDL
MODEL 9
REMARK VINA RESULT:      -5.6     20.941     24.884
REMARK  5 active torsions:
REMARK  status: ('A' for Active; 'I' for Inactive)
REMARK    1  A    between atoms: N_3  and  C_5 
REMARK    2  A    between atoms: N_4  and  C_9 
REMARK    3  A    between atoms: C_5  and  C_6 
REMARK    4  A    between atoms: C_6  and  C_9 
REMARK    5  A    between atoms: C_14  and  C_22 
ROOT
HETATM    1  S   UNK N   1      36.043   8.770  14.742  0.00  0.00    -0.086 SA
HETATM    2  N   UNK N   1      36.560  11.877  14.144  0.00  0.00    -0.345 N 
HETATM    3  C   UNK N   1      36.076  11.510  15.441  0.00  0.00     0.053 A 
HETATM    4  C   UNK N   1      36.937  10.923  13.137  0.00  0.00     0.052 A 
HETATM    5  C   UNK N   1      35.835  10.175  15.824  0.00  0.00     0.032 A 
HETATM    6  C   UNK N   1      36.780   9.530  13.303  0.00  0.00     0.032 A 
HETATM    7  C   UNK N   1      35.858  12.528  16.393  0.00  0.00     0.046 A 
HETATM    8  C   UNK N   1      37.501  11.388  11.930  0.00  0.00     0.031 A 
HETATM    9  C   UNK N   1      35.417  12.244  17.687  0.00  0.00     0.011 A 
HETATM   10  C   UNK N   1      35.387   9.895  17.121  0.00  0.00     0.022 A 
HETATM   11  C   UNK N   1      37.192   8.656  12.288  0.00  0.00     0.021 A 
HETATM   12  C   UNK N   1      35.183  10.916  18.047  0.00  0.00     0.016 A 
HETATM   13  C   UNK N   1      37.909  10.509  10.928  0.00  0.00     0.002 A 
HETATM   14  C   UNK N   1      37.758   9.139  11.110  0.00  0.00     0.002 A 
ENDROOT
BRANCH   2  15
HETATM   15  C   UNK N   1      36.728  13.293  13.865  0.00  0.00     0.131 C 
BRANCH  15  16
HETATM   16  C   UNK N   1      35.482  13.852  13.193  0.00  0.00     0.050 C 
BRANCH  16  17
HETATM   17  C   UNK N   1      35.829  14.485  11.851  0.00  0.00     0.273 C 
BRANCH  17  18
HETATM   18  N   UNK N   1      34.783  15.400  11.403  0.00  0.00     0.080 N 
HETATM   19  C   UNK N   1      35.447  16.535  10.792  0.00  0.00     0.309 C 
HETATM   20  C   UNK N   1      34.000  14.757  10.360  0.00  0.00     0.309 C 
ENDBRANCH  17  18
ENDBRANCH  16  17
ENDBRANCH  15  16
ENDBRANCH   2  15
BRANCH   9  21
HETATM   21  C   UNK N   1      35.217  13.341  18.659  0.00  0.00     0.155 C 
HETATM   22  O   UNK N   1      35.008  13.089  19.835  0.00  0.00    -0.293 OA
HETATM   23  C   UNK N   1      35.257  14.769  18.220  0.00  0.00     0.096 C 
ENDBRANCH   9  21
TORSDOF 5
ENDMDL
