MODEL 1
REMARK VINA RESULT:      -7.9      0.000      0.000
REMARK  17 active torsions:
REMARK  status: ('A' for Active; 'I' for Inactive)
REMARK    1  A    between atoms: C_1  and  O_17 
REMARK    2  A    between atoms: C_2  and  O_12 
REMARK    3  A    between atoms: C_5  and  O_26 
REMARK    4  A    between atoms: C_8  and  O_42 
REMARK    5  A    between atoms: C_13  and  O_12 
REMARK    6  A    between atoms: C_24  and  O_17 
REMARK    7  A    between atoms: C_23  and  C_24 
REMARK    8  A    between atoms: O_26  and  C_28 
REMARK    9  A    between atoms: C_33  and  O_34 
REMARK   10  A    between atoms: C_37  and  O_38 
REMARK   11  A    between atoms: C_51  and  O_42 
REMARK   12  A    between atoms: C_50  and  C_47 
REMARK   13  A    between atoms: C_50  and  C_49 
REMARK   14  A    between atoms: C_51  and  C_49 
REMARK   15  A    between atoms: C_49  and  O_53 
REMARK   16  A    between atoms: C_50  and  N_54 
REMARK       I    between atoms: C_61  and  N_54 
REMARK   17  A    between atoms: C_60  and  C_61 
ROOT
HETATM    1  C   UNK N   1      28.484  15.719   5.878  0.00  0.00     0.176 C 
HETATM    2  C   UNK N   1      31.082  15.082   5.606  0.00  0.00     0.125 C 
HETATM    3  C   UNK N   1      31.703  14.567   3.163  0.00  0.00     0.068 C 
HETATM    4  C   UNK N   1      28.660  13.478   2.524  0.00  0.00     0.171 C 
HETATM    5  C   UNK N   1      27.042  13.406   2.324  0.00  0.00     0.232 C 
HETATM    6  C   UNK N   1      26.232  14.325   3.309  0.00  0.00    -0.028 C 
HETATM    7  C   UNK N   1      25.001  14.873   3.284  0.00  0.00    -0.048 C 
HETATM    8  C   UNK N   1      24.568  15.732   4.502  0.00  0.00     0.164 C 
HETATM    9  C   UNK N   1      25.799  16.508   5.174  0.00  0.00     0.078 C 
HETATM   10  C   UNK N   1      24.080  14.624   2.142  0.00  0.00     0.046 C 
HETATM   11  C   UNK N   1      32.004  14.011   6.164  0.00  0.00     0.210 C 
HETATM   12  O   UNK N   1      29.259  13.700   1.483  0.00  0.00    -0.294 OA
HETATM   13  C   UNK N   1      29.611  14.584   5.249  0.00  0.00     0.076 C 
HETATM   14  C   UNK N   1      29.582  13.419   3.914  0.00  0.00     0.055 C 
HETATM   15  C   UNK N   1      29.406  12.001   4.484  0.00  0.00     0.027 C 
HETATM   16  C   UNK N   1      26.897  15.484   5.617  0.00  0.00     0.098 C 
HETATM   17  C   UNK N   1      27.816  15.750   3.412  0.00  0.00     0.023 C 
HETATM   18  C   UNK N   1      27.118  13.263   5.001  0.00  0.00     0.023 C 
HETATM   19  C   UNK N   1      31.045  13.253   3.450  0.00  0.00     0.137 C 
HETATM   20  C   UNK N   1      32.128  15.147   4.503  0.00  0.00     0.161 C 
HETATM   21  O   UNK N   1      32.971  14.229   5.167  0.00  0.00    -0.380 OA
HETATM   22  C   UNK N   1      27.047  14.696   4.382  0.00  0.00     0.013 C 
ENDROOT
BRANCH   8  23
HETATM   23  O   UNK N   1      24.067  14.811   5.400  0.00  0.00    -0.309 OA
BRANCH  23  24
HETATM   24  C   UNK N   1      22.851  14.840   5.985  0.00  0.00     0.290 C 
HETATM   25  O   UNK N   1      22.644  15.649   6.874  0.00  0.00    -0.262 OA
BRANCH  24  26
HETATM   26  C   UNK N   1      21.716  13.971   5.536  0.00  0.00     0.244 C 
BRANCH  26  27
HETATM   27  C   UNK N   1      20.824  14.550   4.437  0.00  0.00     0.156 C 
BRANCH  27  28
HETATM   28  C   UNK N   1      20.836  13.573   3.293  0.00  0.00    -0.033 A 
HETATM   29  C   UNK N   1      20.382  13.945   2.016  0.00  0.00     0.009 A 
HETATM   30  C   UNK N   1      20.514  13.066   0.938  0.00  0.00     0.001 A 
HETATM   31  C   UNK N   1      21.128  11.825   1.121  0.00  0.00     0.000 A 
HETATM   32  C   UNK N   1      21.599  11.456   2.385  0.00  0.00     0.001 A 
HETATM   33  C   UNK N   1      21.455  12.329   3.467  0.00  0.00     0.009 A 
ENDBRANCH  27  28
BRANCH  27  34
HETATM   34  N   UNK N   1      21.219  15.928   4.163  0.00  0.00    -0.345 N 
HETATM   35  C   UNK N   1      20.472  17.051   3.975  0.00  0.00     0.252 C 
HETATM   36  O   UNK N   1      19.261  17.033   4.089  0.00  0.00    -0.268 OA
HETATM   37  H   UNK N   1      22.191  16.070   4.105  0.00  0.00     0.163 HD
BRANCH  35  38
HETATM   38  C   UNK N   1      21.170  18.296   3.578  0.00  0.00     0.032 A 
HETATM   39  C   UNK N   1      20.506  19.291   2.844  0.00  0.00     0.017 A 
HETATM   40  C   UNK N   1      21.196  20.440   2.436  0.00  0.00     0.001 A 
HETATM   41  C   UNK N   1      22.546  20.604   2.764  0.00  0.00     0.000 A 
HETATM   42  C   UNK N   1      23.210  19.620   3.498  0.00  0.00     0.001 A 
HETATM   43  C   UNK N   1      22.525  18.469   3.894  0.00  0.00     0.017 A 
ENDBRANCH  35  38
ENDBRANCH  27  34
ENDBRANCH  26  27
BRANCH  26  44
HETATM   44  O   UNK N   1      20.944  13.592   6.635  0.00  0.00    -0.383 OA
HETATM   45  H   UNK N   1      20.476  12.742   6.634  0.00  0.00     0.210 HD
ENDBRANCH  26  44
ENDBRANCH  24  26
ENDBRANCH  23  24
ENDBRANCH   8  23
BRANCH  16  46
HETATM   46  O   UNK N   1      26.364  14.837   6.751  0.00  0.00    -0.386 OA
HETATM   47  H   UNK N   1      26.022  14.684   7.646  0.00  0.00     0.210 HD
ENDBRANCH  16  46
BRANCH   5  48
HETATM   48  O   UNK N   1      26.560  12.119   2.387  0.00  0.00    -0.304 OA
BRANCH  48  49
HETATM   49  C   UNK N   1      26.300  11.388   1.276  0.00  0.00     0.255 C 
HETATM   50  O   UNK N   1      27.216  10.815   0.710  0.00  0.00    -0.266 OA
HETATM   51  C   UNK N   1      24.916  11.283   0.714  0.00  0.00     0.126 C 
ENDBRANCH  48  49
ENDBRANCH   5  48
BRANCH   1  52
HETATM   52  O   UNK N   1      28.784  17.030   5.536  0.00  0.00    -0.308 OA
BRANCH  52  53
HETATM   53  C   UNK N   1      28.496  18.088   6.349  0.00  0.00     0.293 C 
HETATM   54  O   UNK N   1      28.863  18.047   7.513  0.00  0.00    -0.259 OA
BRANCH  53  55
HETATM   55  C   UNK N   1      27.758  19.288   5.863  0.00  0.00     0.039 A 
HETATM   56  C   UNK N   1      27.257  20.225   6.781  0.00  0.00     0.017 A 
HETATM   57  C   UNK N   1      26.527  21.333   6.337  0.00  0.00     0.001 A 
HETATM   58  C   UNK N   1      26.274  21.502   4.974  0.00  0.00     0.000 A 
HETATM   59  C   UNK N   1      26.762  20.570   4.053  0.00  0.00     0.001 A 
HETATM   60  C   UNK N   1      27.506  19.473   4.497  0.00  0.00     0.017 A 
ENDBRANCH  53  55
ENDBRANCH  52  53
ENDBRANCH   1  52
BRANCH   2  61
HETATM   61  O   UNK N   1      31.165  16.302   6.274  0.00  0.00    -0.305 OA
BRANCH  61  62
HETATM   62  C   UNK N   1      31.914  16.614   7.366  0.00  0.00     0.255 C 
HETATM   63  C   UNK N   1      33.155  17.419   7.186  0.00  0.00     0.126 C 
HETATM   64  O   UNK N   1      31.594  16.245   8.486  0.00  0.00    -0.266 OA
ENDBRANCH  61  62
ENDBRANCH   2  61
BRANCH  19  65
HETATM   65  O   UNK N   1      31.239  12.329   2.414  0.00  0.00    -0.394 OA
HETATM   66  H   UNK N   1      31.553  12.630   1.546  0.00  0.00     0.210 HD
ENDBRANCH  19  65
TORSDOF 17
ENDMDL
MODEL 2
REMARK VINA RESULT:      -7.8      2.386      5.992
REMARK  17 active torsions:
REMARK  status: ('A' for Active; 'I' for Inactive)
REMARK    1  A    between atoms: C_1  and  O_17 
REMARK    2  A    between atoms: C_2  and  O_12 
REMARK    3  A    between atoms: C_5  and  O_26 
REMARK    4  A    between atoms: C_8  and  O_42 
REMARK    5  A    between atoms: C_13  and  O_12 
REMARK    6  A    between atoms: C_24  and  O_17 
REMARK    7  A    between atoms: C_23  and  C_24 
REMARK    8  A    between atoms: O_26  and  C_28 
REMARK    9  A    between atoms: C_33  and  O_34 
REMARK   10  A    between atoms: C_37  and  O_38 
REMARK   11  A    between atoms: C_51  and  O_42 
REMARK   12  A    between atoms: C_50  and  C_47 
REMARK   13  A    between atoms: C_50  and  C_49 
REMARK   14  A    between atoms: C_51  and  C_49 
REMARK   15  A    between atoms: C_49  and  O_53 
REMARK   16  A    between atoms: C_50  and  N_54 
REMARK       I    between atoms: C_61  and  N_54 
REMARK   17  A    between atoms: C_60  and  C_61 
ROOT
HETATM    1  C   UNK N   1      26.640  13.495   4.268  0.00  0.00     0.176 C 
HETATM    2  C   UNK N   1      29.306  13.239   4.491  0.00  0.00     0.125 C 
HETATM    3  C   UNK N   1      30.366  15.210   5.762  0.00  0.00     0.068 C 
HETATM    4  C   UNK N   1      28.011  17.266   4.721  0.00  0.00     0.171 C 
HETATM    5  C   UNK N   1      26.562  17.969   4.462  0.00  0.00     0.232 C 
HETATM    6  C   UNK N   1      25.363  16.956   4.370  0.00  0.00    -0.028 C 
HETATM    7  C   UNK N   1      24.032  17.059   4.547  0.00  0.00    -0.048 C 
HETATM    8  C   UNK N   1      23.175  15.781   4.341  0.00  0.00     0.164 C 
HETATM    9  C   UNK N   1      23.958  14.445   4.754  0.00  0.00     0.078 C 
HETATM   10  C   UNK N   1      23.407  18.366   4.887  0.00  0.00     0.046 C 
HETATM   11  C   UNK N   1      30.472  13.115   3.524  0.00  0.00     0.210 C 
HETATM   12  O   UNK N   1      28.616  17.754   5.663  0.00  0.00    -0.294 OA
HETATM   13  C   UNK N   1      28.163  14.255   4.039  0.00  0.00     0.076 C 
HETATM   14  C   UNK N   1      28.715  15.939   3.994  0.00  0.00     0.055 C 
HETATM   15  C   UNK N   1      28.984  16.343   2.534  0.00  0.00     0.027 C 
HETATM   16  C   UNK N   1      25.283  14.327   3.931  0.00  0.00     0.098 C 
HETATM   17  C   UNK N   1      26.313  15.586   5.700  0.00  0.00     0.023 C 
HETATM   18  C   UNK N   1      26.353  15.965   2.692  0.00  0.00     0.023 C 
HETATM   19  C   UNK N   1      30.187  15.927   4.459  0.00  0.00     0.137 C 
HETATM   20  C   UNK N   1      30.389  13.723   5.445  0.00  0.00     0.161 C 
HETATM   21  O   UNK N   1      31.413  13.456   4.510  0.00  0.00    -0.380 OA
HETATM   22  C   UNK N   1      25.855  15.667   4.143  0.00  0.00     0.013 C 
ENDROOT
BRANCH   8  23
HETATM   23  O   UNK N   1      22.926  15.760   2.983  0.00  0.00    -0.309 OA
BRANCH  23  24
HETATM   24  C   UNK N   1      21.865  15.194   2.369  0.00  0.00     0.290 C 
HETATM   25  O   UNK N   1      21.821  13.979   2.272  0.00  0.00    -0.262 OA
BRANCH  24  26
HETATM   26  C   UNK N   1      20.699  15.991   1.869  0.00  0.00     0.244 C 
BRANCH  26  27
HETATM   27  C   UNK N   1      19.988  16.859   2.908  0.00  0.00     0.156 C 
BRANCH  27  28
HETATM   28  C   UNK N   1      20.376  18.287   2.635  0.00  0.00    -0.033 A 
HETATM   29  C   UNK N   1      20.636  18.731   1.328  0.00  0.00     0.009 A 
HETATM   30  C   UNK N   1      20.875  20.085   1.078  0.00  0.00     0.001 A 
HETATM   31  C   UNK N   1      20.825  21.007   2.127  0.00  0.00     0.000 A 
HETATM   32  C   UNK N   1      20.549  20.573   3.427  0.00  0.00     0.001 A 
HETATM   33  C   UNK N   1      20.323  19.217   3.680  0.00  0.00     0.009 A 
ENDBRANCH  27  28
BRANCH  27  34
HETATM   34  N   UNK N   1      20.236  16.325   4.243  0.00  0.00    -0.345 N 
HETATM   35  C   UNK N   1      19.379  16.016   5.255  0.00  0.00     0.252 C 
HETATM   36  O   UNK N   1      18.174  16.105   5.114  0.00  0.00    -0.268 OA
HETATM   37  H   UNK N   1      21.185  16.160   4.446  0.00  0.00     0.163 HD
BRANCH  35  38
HETATM   38  C   UNK N   1      19.955  15.611   6.558  0.00  0.00     0.032 A 
HETATM   39  C   UNK N   1      20.510  14.334   6.734  0.00  0.00     0.017 A 
HETATM   40  C   UNK N   1      21.007  13.952   7.987  0.00  0.00     0.001 A 
HETATM   41  C   UNK N   1      20.958  14.843   9.065  0.00  0.00     0.000 A 
HETATM   42  C   UNK N   1      20.412  16.115   8.894  0.00  0.00     0.001 A 
HETATM   43  C   UNK N   1      19.906  16.492   7.648  0.00  0.00     0.017 A 
ENDBRANCH  35  38
ENDBRANCH  27  34
ENDBRANCH  26  27
BRANCH  26  44
HETATM   44  O   UNK N   1      19.786  15.149   1.234  0.00  0.00    -0.383 OA
HETATM   45  H   UNK N   1      19.943  14.854   0.323  0.00  0.00     0.210 HD
ENDBRANCH  26  44
ENDBRANCH  24  26
ENDBRANCH  23  24
ENDBRANCH   8  23
BRANCH  16  46
HETATM   46  O   UNK N   1      24.879  13.982   2.624  0.00  0.00    -0.386 OA
HETATM   47  H   UNK N   1      24.710  13.465   1.822  0.00  0.00     0.210 HD
ENDBRANCH  16  46
BRANCH   5  48
HETATM   48  O   UNK N   1      26.563  18.788   3.356  0.00  0.00    -0.304 OA
BRANCH  48  49
HETATM   49  C   UNK N   1      26.171  20.084   3.414  0.00  0.00     0.255 C 
HETATM   50  O   UNK N   1      26.745  20.849   4.170  0.00  0.00    -0.266 OA
HETATM   51  C   UNK N   1      25.033  20.594   2.585  0.00  0.00     0.126 C 
ENDBRANCH  48  49
ENDBRANCH   5  48
BRANCH   1  52
HETATM   52  O   UNK N   1      26.494  12.935   5.530  0.00  0.00    -0.308 OA
BRANCH  52  53
HETATM   53  C   UNK N   1      25.526  12.019   5.823  0.00  0.00     0.293 C 
HETATM   54  O   UNK N   1      25.269  11.156   4.996  0.00  0.00    -0.259 OA
BRANCH  53  55
HETATM   55  C   UNK N   1      24.781  12.031   7.113  0.00  0.00     0.039 A 
HETATM   56  C   UNK N   1      24.997  13.063   8.040  0.00  0.00     0.017 A 
HETATM   57  C   UNK N   1      24.332  13.061   9.271  0.00  0.00     0.001 A 
HETATM   58  C   UNK N   1      23.463  12.017   9.594  0.00  0.00     0.000 A 
HETATM   59  C   UNK N   1      23.248  10.980   8.681  0.00  0.00     0.001 A 
HETATM   60  C   UNK N   1      23.899  10.993   7.444  0.00  0.00     0.017 A 
ENDBRANCH  53  55
ENDBRANCH  52  53
ENDBRANCH   1  52
BRANCH   2  61
HETATM   61  O   UNK N   1      28.868  12.021   5.006  0.00  0.00    -0.305 OA
BRANCH  61  62
HETATM   62  C   UNK N   1      29.011  10.780   4.469  0.00  0.00     0.255 C 
HETATM   63  C   UNK N   1      30.035   9.859   5.039  0.00  0.00     0.126 C 
HETATM   64  O   UNK N   1      28.325  10.408   3.530  0.00  0.00    -0.266 OA
ENDBRANCH  61  62
ENDBRANCH   2  61
BRANCH  19  65
HETATM   65  O   UNK N   1      30.822  17.176   4.453  0.00  0.00    -0.394 OA
HETATM   66  H   UNK N   1      31.226  17.513   3.637  0.00  0.00     0.210 HD
ENDBRANCH  19  65
TORSDOF 17
ENDMDL
MODEL 3
REMARK VINA RESULT:      -7.8      2.140      4.049
REMARK  17 active torsions:
REMARK  status: ('A' for Active; 'I' for Inactive)
REMARK    1  A    between atoms: C_1  and  O_17 
REMARK    2  A    between atoms: C_2  and  O_12 
REMARK    3  A    between atoms: C_5  and  O_26 
REMARK    4  A    between atoms: C_8  and  O_42 
REMARK    5  A    between atoms: C_13  and  O_12 
REMARK    6  A    between atoms: C_24  and  O_17 
REMARK    7  A    between atoms: C_23  and  C_24 
REMARK    8  A    between atoms: O_26  and  C_28 
REMARK    9  A    between atoms: C_33  and  O_34 
REMARK   10  A    between atoms: C_37  and  O_38 
REMARK   11  A    between atoms: C_51  and  O_42 
REMARK   12  A    between atoms: C_50  and  C_47 
REMARK   13  A    between atoms: C_50  and  C_49 
REMARK   14  A    between atoms: C_51  and  C_49 
REMARK   15  A    between atoms: C_49  and  O_53 
REMARK   16  A    between atoms: C_50  and  N_54 
REMARK       I    between atoms: C_61  and  N_54 
REMARK   17  A    between atoms: C_60  and  C_61 
ROOT
HETATM    1  C   UNK N   1      28.201  14.863   5.410  0.00  0.00     0.176 C 
HETATM    2  C   UNK N   1      30.889  14.864   5.428  0.00  0.00     0.125 C 
HETATM    3  C   UNK N   1      31.874  14.436   3.090  0.00  0.00     0.068 C 
HETATM    4  C   UNK N   1      29.262  12.625   2.222  0.00  0.00     0.171 C 
HETATM    5  C   UNK N   1      27.739  12.158   1.871  0.00  0.00     0.232 C 
HETATM    6  C   UNK N   1      26.633  12.885   2.718  0.00  0.00    -0.028 C 
HETATM    7  C   UNK N   1      25.318  13.119   2.542  0.00  0.00    -0.048 C 
HETATM    8  C   UNK N   1      24.564  13.887   3.661  0.00  0.00     0.164 C 
HETATM    9  C   UNK N   1      25.497  14.958   4.404  0.00  0.00     0.078 C 
HETATM   10  C   UNK N   1      24.610  12.619   1.332  0.00  0.00     0.046 C 
HETATM   11  C   UNK N   1      31.973  14.066   6.133  0.00  0.00     0.210 C 
HETATM   12  O   UNK N   1      29.901  12.951   1.233  0.00  0.00    -0.294 OA
HETATM   13  C   UNK N   1      29.625  14.015   4.958  0.00  0.00     0.076 C 
HETATM   14  C   UNK N   1      30.017  12.835   3.695  0.00  0.00     0.055 C 
HETATM   15  C   UNK N   1      30.121  11.435   4.326  0.00  0.00     0.027 C 
HETATM   16  C   UNK N   1      26.751  14.244   5.009  0.00  0.00     0.098 C 
HETATM   17  C   UNK N   1      27.814  14.653   2.893  0.00  0.00     0.023 C 
HETATM   18  C   UNK N   1      27.557  12.123   4.546  0.00  0.00     0.023 C 
HETATM   19  C   UNK N   1      31.519  13.012   3.386  0.00  0.00     0.137 C 
HETATM   20  C   UNK N   1      32.003  15.144   4.429  0.00  0.00     0.161 C 
HETATM   21  O   UNK N   1      32.962  14.479   5.223  0.00  0.00    -0.380 OA
HETATM   22  C   UNK N   1      27.216  13.477   3.842  0.00  0.00     0.013 C 
ENDROOT
BRANCH   8  23
HETATM   23  O   UNK N   1      24.202  12.902   4.557  0.00  0.00    -0.309 OA
BRANCH  23  24
HETATM   24  C   UNK N   1      22.980  12.341   4.684  0.00  0.00     0.290 C 
HETATM   25  O   UNK N   1      22.902  11.164   4.992  0.00  0.00    -0.262 OA
BRANCH  24  26
HETATM   26  C   UNK N   1      21.711  13.125   4.538  0.00  0.00     0.244 C 
BRANCH  26  27
HETATM   27  C   UNK N   1      21.366  14.061   5.697  0.00  0.00     0.156 C 
BRANCH  27  28
HETATM   28  C   UNK N   1      21.723  15.457   5.263  0.00  0.00    -0.033 A 
HETATM   29  C   UNK N   1      22.471  16.307   6.096  0.00  0.00     0.009 A 
HETATM   30  C   UNK N   1      22.898  17.552   5.629  0.00  0.00     0.001 A 
HETATM   31  C   UNK N   1      22.607  17.944   4.320  0.00  0.00     0.000 A 
HETATM   32  C   UNK N   1      21.879  17.095   3.481  0.00  0.00     0.001 A 
HETATM   33  C   UNK N   1      21.439  15.854   3.951  0.00  0.00     0.009 A 
ENDBRANCH  27  28
BRANCH  27  34
HETATM   34  N   UNK N   1      21.962  13.555   6.929  0.00  0.00    -0.345 N 
HETATM   35  C   UNK N   1      21.454  13.441   8.186  0.00  0.00     0.252 C 
HETATM   36  O   UNK N   1      20.298  13.726   8.430  0.00  0.00    -0.268 OA
HETATM   37  H   UNK N   1      22.891  13.240   6.833  0.00  0.00     0.163 HD
BRANCH  35  38
HETATM   38  C   UNK N   1      22.365  13.004   9.271  0.00  0.00     0.032 A 
HETATM   39  C   UNK N   1      23.757  13.039   9.099  0.00  0.00     0.017 A 
HETATM   40  C   UNK N   1      24.602  12.578  10.118  0.00  0.00     0.001 A 
HETATM   41  C   UNK N   1      24.061  12.087  11.311  0.00  0.00     0.000 A 
HETATM   42  C   UNK N   1      22.678  12.054  11.489  0.00  0.00     0.001 A 
HETATM   43  C   UNK N   1      21.836  12.504  10.469  0.00  0.00     0.017 A 
ENDBRANCH  35  38
ENDBRANCH  27  34
ENDBRANCH  26  27
BRANCH  26  44
HETATM   44  O   UNK N   1      20.646  12.261   4.280  0.00  0.00    -0.383 OA
HETATM   45  H   UNK N   1      20.100  11.927   5.009  0.00  0.00     0.210 HD
ENDBRANCH  26  44
ENDBRANCH  24  26
ENDBRANCH  23  24
ENDBRANCH   8  23
BRANCH  16  46
HETATM   46  O   UNK N   1      26.268  13.524   6.122  0.00  0.00    -0.386 OA
HETATM   47  H   UNK N   1      26.124  13.233   7.035  0.00  0.00     0.210 HD
ENDBRANCH  16  46
BRANCH   5  48
HETATM   48  O   UNK N   1      27.571  10.795   1.959  0.00  0.00    -0.304 OA
BRANCH  48  49
HETATM   49  C   UNK N   1      27.430  10.010   0.864  0.00  0.00     0.255 C 
HETATM   50  O   UNK N   1      26.326   9.580   0.575  0.00  0.00    -0.266 OA
HETATM   51  C   UNK N   1      28.604   9.642   0.010  0.00  0.00     0.126 C 
ENDBRANCH  48  49
ENDBRANCH   5  48
BRANCH   1  52
HETATM   52  O   UNK N   1      28.217  16.197   5.024  0.00  0.00    -0.308 OA
BRANCH  52  53
HETATM   53  C   UNK N   1      27.612  17.181   5.750  0.00  0.00     0.293 C 
HETATM   54  O   UNK N   1      27.558  17.063   6.965  0.00  0.00    -0.259 OA
BRANCH  53  55
HETATM   55  C   UNK N   1      27.023  18.393   5.114  0.00  0.00     0.039 A 
HETATM   56  C   UNK N   1      27.063  19.628   5.780  0.00  0.00     0.017 A 
HETATM   57  C   UNK N   1      26.476  20.762   5.208  0.00  0.00     0.001 A 
HETATM   58  C   UNK N   1      25.826  20.667   3.976  0.00  0.00     0.000 A 
HETATM   59  C   UNK N   1      25.774  19.439   3.309  0.00  0.00     0.001 A 
HETATM   60  C   UNK N   1      26.376  18.311   3.873  0.00  0.00     0.017 A 
ENDBRANCH  53  55
ENDBRANCH  52  53
ENDBRANCH   1  52
BRANCH   2  61
HETATM   61  O   UNK N   1      30.609  16.089   6.030  0.00  0.00    -0.305 OA
BRANCH  61  62
HETATM   62  C   UNK N   1      31.130  16.602   7.177  0.00  0.00     0.255 C 
HETATM   63  C   UNK N   1      32.366  17.431   7.102  0.00  0.00     0.126 C 
HETATM   64  O   UNK N   1      30.611  16.393   8.263  0.00  0.00    -0.266 OA
ENDBRANCH  61  62
ENDBRANCH   2  61
BRANCH  19  65
HETATM   65  O   UNK N   1      32.036  12.129   2.429  0.00  0.00    -0.394 OA
HETATM   66  H   UNK N   1      31.490  11.853   1.675  0.00  0.00     0.210 HD
ENDBRANCH  19  65
TORSDOF 17
ENDMDL
MODEL 4
REMARK VINA RESULT:      -7.8      2.344      8.088
REMARK  17 active torsions:
REMARK  status: ('A' for Active; 'I' for Inactive)
REMARK    1  A    between atoms: C_1  and  O_17 
REMARK    2  A    between atoms: C_2  and  O_12 
REMARK    3  A    between atoms: C_5  and  O_26 
REMARK    4  A    between atoms: C_8  and  O_42 
REMARK    5  A    between atoms: C_13  and  O_12 
REMARK    6  A    between atoms: C_24  and  O_17 
REMARK    7  A    between atoms: C_23  and  C_24 
REMARK    8  A    between atoms: O_26  and  C_28 
REMARK    9  A    between atoms: C_33  and  O_34 
REMARK   10  A    between atoms: C_37  and  O_38 
REMARK   11  A    between atoms: C_51  and  O_42 
REMARK   12  A    between atoms: C_50  and  C_47 
REMARK   13  A    between atoms: C_50  and  C_49 
REMARK   14  A    between atoms: C_51  and  C_49 
REMARK   15  A    between atoms: C_49  and  O_53 
REMARK   16  A    between atoms: C_50  and  N_54 
REMARK       I    between atoms: C_61  and  N_54 
REMARK   17  A    between atoms: C_60  and  C_61 
ROOT
HETATM    1  C   UNK N   1      23.428  14.625   4.045  0.00  0.00     0.176 C 
HETATM    2  C   UNK N   1      21.190  13.475   3.100  0.00  0.00     0.125 C 
HETATM    3  C   UNK N   1      21.462  10.936   2.789  0.00  0.00     0.068 C 
HETATM    4  C   UNK N   1      24.687  11.262   2.200  0.00  0.00     0.171 C 
HETATM    5  C   UNK N   1      26.274  11.600   2.369  0.00  0.00     0.232 C 
HETATM    6  C   UNK N   1      26.571  12.853   3.269  0.00  0.00    -0.028 C 
HETATM    7  C   UNK N   1      27.640  13.268   3.977  0.00  0.00    -0.048 C 
HETATM    8  C   UNK N   1      27.521  14.615   4.742  0.00  0.00     0.164 C 
HETATM    9  C   UNK N   1      26.031  14.894   5.263  0.00  0.00     0.078 C 
HETATM   10  C   UNK N   1      28.901  12.479   3.987  0.00  0.00     0.046 C 
HETATM   11  C   UNK N   1      20.328  13.629   1.858  0.00  0.00     0.210 C 
HETATM   12  O   UNK N   1      24.417  10.098   2.456  0.00  0.00    -0.294 OA
HETATM   13  C   UNK N   1      22.760  13.589   2.849  0.00  0.00     0.076 C 
HETATM   14  C   UNK N   1      23.398  12.265   1.859  0.00  0.00     0.055 C 
HETATM   15  C   UNK N   1      23.616  12.769   0.421  0.00  0.00     0.027 C 
HETATM   16  C   UNK N   1      25.034  14.885   4.057  0.00  0.00     0.098 C 
HETATM   17  C   UNK N   1      24.823  12.523   4.447  0.00  0.00     0.023 C 
HETATM   18  C   UNK N   1      25.385  14.088   1.911  0.00  0.00     0.023 C 
HETATM   19  C   UNK N   1      22.203  11.337   1.551  0.00  0.00     0.137 C 
HETATM   20  C   UNK N   1      20.548  12.096   3.150  0.00  0.00     0.161 C 
HETATM   21  O   UNK N   1      19.702  12.386   2.057  0.00  0.00    -0.380 OA
HETATM   22  C   UNK N   1      25.410  13.621   3.403  0.00  0.00     0.013 C 
ENDROOT
BRANCH   8  23
HETATM   23  O   UNK N   1      27.858  15.565   3.800  0.00  0.00    -0.309 OA
BRANCH  23  24
HETATM   24  C   UNK N   1      29.051  16.185   3.676  0.00  0.00     0.290 C 
HETATM   25  O   UNK N   1      29.469  16.441   2.560  0.00  0.00    -0.262 OA
BRANCH  24  26
HETATM   26  C   UNK N   1      29.851  16.645   4.858  0.00  0.00     0.244 C 
BRANCH  26  27
HETATM   27  C   UNK N   1      29.341  17.904   5.561  0.00  0.00     0.156 C 
BRANCH  27  28
HETATM   28  C   UNK N   1      29.288  17.599   7.034  0.00  0.00    -0.033 A 
HETATM   29  C   UNK N   1      30.459  17.562   7.810  0.00  0.00     0.009 A 
HETATM   30  C   UNK N   1      30.381  17.400   9.195  0.00  0.00     0.001 A 
HETATM   31  C   UNK N   1      29.134  17.305   9.817  0.00  0.00     0.000 A 
HETATM   32  C   UNK N   1      27.964  17.360   9.053  0.00  0.00     0.001 A 
HETATM   33  C   UNK N   1      28.041  17.508   7.665  0.00  0.00     0.009 A 
ENDBRANCH  27  28
BRANCH  27  34
HETATM   34  N   UNK N   1      28.118  18.365   4.914  0.00  0.00    -0.345 N 
HETATM   35  C   UNK N   1      27.553  19.601   4.850  0.00  0.00     0.252 C 
HETATM   36  O   UNK N   1      28.102  20.575   5.329  0.00  0.00    -0.268 OA
HETATM   37  H   UNK N   1      27.617  17.661   4.441  0.00  0.00     0.163 HD
BRANCH  35  38
HETATM   38  C   UNK N   1      26.218  19.727   4.219  0.00  0.00     0.032 A 
HETATM   39  C   UNK N   1      26.039  20.501   3.062  0.00  0.00     0.017 A 
HETATM   40  C   UNK N   1      24.761  20.647   2.507  0.00  0.00     0.001 A 
HETATM   41  C   UNK N   1      23.660  20.018   3.098  0.00  0.00     0.000 A 
HETATM   42  C   UNK N   1      23.833  19.243   4.246  0.00  0.00     0.001 A 
HETATM   43  C   UNK N   1      25.105  19.107   4.806  0.00  0.00     0.017 A 
ENDBRANCH  35  38
ENDBRANCH  27  34
ENDBRANCH  26  27
BRANCH  26  44
HETATM   44  O   UNK N   1      31.189  16.802   4.494  0.00  0.00    -0.383 OA
HETATM   45  H   UNK N   1      31.509  17.657   4.167  0.00  0.00     0.210 HD
ENDBRANCH  26  44
ENDBRANCH  24  26
ENDBRANCH  23  24
ENDBRANCH   8  23
BRANCH  16  46
HETATM   46  O   UNK N   1      25.282  16.087   3.362  0.00  0.00    -0.386 OA
HETATM   47  H   UNK N   1      25.197  17.000   3.047  0.00  0.00     0.210 HD
ENDBRANCH  16  46
BRANCH   5  48
HETATM   48  O   UNK N   1      26.917  11.734   1.160  0.00  0.00    -0.304 OA
BRANCH  48  49
HETATM   49  C   UNK N   1      27.902  10.891   0.766  0.00  0.00     0.255 C 
HETATM   50  O   UNK N   1      27.683   9.692   0.725  0.00  0.00    -0.266 OA
HETATM   51  C   UNK N   1      29.263  11.397   0.400  0.00  0.00     0.126 C 
ENDBRANCH  48  49
ENDBRANCH   5  48
BRANCH   1  52
HETATM   52  O   UNK N   1      23.041  14.289   5.335  0.00  0.00    -0.308 OA
BRANCH  52  53
HETATM   53  C   UNK N   1      22.654  15.220   6.254  0.00  0.00     0.293 C 
HETATM   54  O   UNK N   1      22.899  16.397   6.033  0.00  0.00    -0.259 OA
BRANCH  53  55
HETATM   55  C   UNK N   1      21.940  14.852   7.509  0.00  0.00     0.039 A 
HETATM   56  C   UNK N   1      22.365  13.745   8.261  0.00  0.00     0.017 A 
HETATM   57  C   UNK N   1      21.676  13.368   9.419  0.00  0.00     0.001 A 
HETATM   58  C   UNK N   1      20.545  14.081   9.823  0.00  0.00     0.000 A 
HETATM   59  C   UNK N   1      20.110  15.179   9.076  0.00  0.00     0.001 A 
HETATM   60  C   UNK N   1      20.809  15.566   7.929  0.00  0.00     0.017 A 
ENDBRANCH  53  55
ENDBRANCH  52  53
ENDBRANCH   1  52
BRANCH   2  61
HETATM   61  O   UNK N   1      20.701  14.156   4.213  0.00  0.00    -0.305 OA
BRANCH  61  62
HETATM   62  C   UNK N   1      19.631  14.992   4.286  0.00  0.00     0.255 C 
HETATM   63  C   UNK N   1      19.830  16.446   4.029  0.00  0.00     0.126 C 
HETATM   64  O   UNK N   1      18.516  14.578   4.562  0.00  0.00    -0.266 OA
ENDBRANCH  61  62
ENDBRANCH   2  61
BRANCH  19  65
HETATM   65  O   UNK N   1      22.499  10.237   0.735  0.00  0.00    -0.394 OA
HETATM   66  H   UNK N   1      21.801   9.830   0.196  0.00  0.00     0.210 HD
ENDBRANCH  19  65
TORSDOF 17
ENDMDL
MODEL 5
REMARK VINA RESULT:      -7.8      3.127      5.398
REMARK  17 active torsions:
REMARK  status: ('A' for Active; 'I' for Inactive)
REMARK    1  A    between atoms: C_1  and  O_17 
REMARK    2  A    between atoms: C_2  and  O_12 
REMARK    3  A    between atoms: C_5  and  O_26 
REMARK    4  A    between atoms: C_8  and  O_42 
REMARK    5  A    between atoms: C_13  and  O_12 
REMARK    6  A    between atoms: C_24  and  O_17 
REMARK    7  A    between atoms: C_23  and  C_24 
REMARK    8  A    between atoms: O_26  and  C_28 
REMARK    9  A    between atoms: C_33  and  O_34 
REMARK   10  A    between atoms: C_37  and  O_38 
REMARK   11  A    between atoms: C_51  and  O_42 
REMARK   12  A    between atoms: C_50  and  C_47 
REMARK   13  A    between atoms: C_50  and  C_49 
REMARK   14  A    between atoms: C_51  and  C_49 
REMARK   15  A    between atoms: C_49  and  O_53 
REMARK   16  A    between atoms: C_50  and  N_54 
REMARK       I    between atoms: C_61  and  N_54 
REMARK   17  A    between atoms: C_60  and  C_61 
ROOT
HETATM    1  C   UNK N   1      27.436  15.811   5.135  0.00  0.00     0.176 C 
HETATM    2  C   UNK N   1      29.404  14.257   4.166  0.00  0.00     0.125 C 
HETATM    3  C   UNK N   1      28.955  13.525   1.741  0.00  0.00     0.068 C 
HETATM    4  C   UNK N   1      25.697  13.632   2.215  0.00  0.00     0.171 C 
HETATM    5  C   UNK N   1      24.187  14.161   2.533  0.00  0.00     0.232 C 
HETATM    6  C   UNK N   1      24.122  15.324   3.588  0.00  0.00    -0.028 C 
HETATM    7  C   UNK N   1      23.223  16.288   3.869  0.00  0.00    -0.048 C 
HETATM    8  C   UNK N   1      23.546  17.258   5.037  0.00  0.00     0.164 C 
HETATM    9  C   UNK N   1      25.118  17.530   5.190  0.00  0.00     0.078 C 
HETATM   10  C   UNK N   1      21.948  16.386   3.108  0.00  0.00     0.046 C 
HETATM   11  C   UNK N   1      30.029  12.926   4.551  0.00  0.00     0.210 C 
HETATM   12  O   UNK N   1      25.952  13.606   1.021  0.00  0.00    -0.294 OA
HETATM   13  C   UNK N   1      27.822  14.335   4.346  0.00  0.00     0.076 C 
HETATM   14  C   UNK N   1      26.949  13.250   3.250  0.00  0.00     0.055 C 
HETATM   15  C   UNK N   1      26.495  12.003   4.030  0.00  0.00     0.027 C 
HETATM   16  C   UNK N   1      25.875  16.178   5.406  0.00  0.00     0.098 C 
HETATM   17  C   UNK N   1      26.038  16.063   3.011  0.00  0.00     0.023 C 
HETATM   18  C   UNK N   1      25.097  14.026   5.051  0.00  0.00     0.023 C 
HETATM   19  C   UNK N   1      28.020  12.550   2.387  0.00  0.00     0.137 C 
HETATM   20  C   UNK N   1      29.976  13.919   2.797  0.00  0.00     0.161 C 
HETATM   21  O   UNK N   1      30.619  12.762   3.286  0.00  0.00    -0.380 OA
HETATM   22  C   UNK N   1      25.323  15.378   4.300  0.00  0.00     0.013 C 
ENDROOT
BRANCH   8  23
HETATM   23  O   UNK N   1      23.088  16.597   6.158  0.00  0.00    -0.309 OA
BRANCH  23  24
HETATM   24  C   UNK N   1      21.900  15.970   6.291  0.00  0.00     0.290 C 
HETATM   25  O   UNK N   1      21.839  14.772   6.072  0.00  0.00    -0.262 OA
BRANCH  24  26
HETATM   26  C   UNK N   1      20.666  16.669   6.774  0.00  0.00     0.244 C 
BRANCH  26  27
HETATM   27  C   UNK N   1      19.905  15.978   7.906  0.00  0.00     0.156 C 
BRANCH  27  28
HETATM   28  C   UNK N   1      19.272  17.059   8.741  0.00  0.00    -0.033 A 
HETATM   29  C   UNK N   1      18.000  16.882   9.313  0.00  0.00     0.009 A 
HETATM   30  C   UNK N   1      17.481  17.842  10.184  0.00  0.00     0.001 A 
HETATM   31  C   UNK N   1      18.239  18.968  10.514  0.00  0.00     0.000 A 
HETATM   32  C   UNK N   1      19.512  19.141   9.962  0.00  0.00     0.001 A 
HETATM   33  C   UNK N   1      20.028  18.188   9.079  0.00  0.00     0.009 A 
ENDBRANCH  27  28
BRANCH  27  34
HETATM   34  N   UNK N   1      20.784  15.025   8.575  0.00  0.00    -0.345 N 
HETATM   35  C   UNK N   1      20.519  14.064   9.503  0.00  0.00     0.252 C 
HETATM   36  O   UNK N   1      19.383  13.833   9.868  0.00  0.00    -0.268 OA
HETATM   37  H   UNK N   1      21.730  15.086   8.308  0.00  0.00     0.163 HD
BRANCH  35  38
HETATM   38  C   UNK N   1      21.662  13.333  10.097  0.00  0.00     0.032 A 
HETATM   39  C   UNK N   1      21.496  12.551  11.250  0.00  0.00     0.017 A 
HETATM   40  C   UNK N   1      22.598  11.904  11.825  0.00  0.00     0.001 A 
HETATM   41  C   UNK N   1      23.867  12.030  11.249  0.00  0.00     0.000 A 
HETATM   42  C   UNK N   1      24.037  12.803  10.100  0.00  0.00     0.001 A 
HETATM   43  C   UNK N   1      22.941  13.456   9.533  0.00  0.00     0.017 A 
ENDBRANCH  35  38
ENDBRANCH  27  34
ENDBRANCH  26  27
BRANCH  26  44
HETATM   44  O   UNK N   1      19.811  16.920   5.699  0.00  0.00    -0.383 OA
HETATM   45  H   UNK N   1      19.888  17.746   5.196  0.00  0.00     0.210 HD
ENDBRANCH  26  44
ENDBRANCH  24  26
ENDBRANCH  23  24
ENDBRANCH   8  23
BRANCH  16  46
HETATM   46  O   UNK N   1      25.563  15.785   6.724  0.00  0.00    -0.386 OA
HETATM   47  H   UNK N   1      25.617  15.356   7.592  0.00  0.00     0.210 HD
ENDBRANCH  16  46
BRANCH   5  48
HETATM   48  O   UNK N   1      23.340  13.144   2.909  0.00  0.00    -0.304 OA
BRANCH  48  49
HETATM   49  C   UNK N   1      22.341  12.699   2.109  0.00  0.00     0.255 C 
HETATM   50  O   UNK N   1      21.544  11.885   2.544  0.00  0.00    -0.266 OA
HETATM   51  C   UNK N   1      22.204  13.170   0.695  0.00  0.00     0.126 C 
ENDBRANCH  48  49
ENDBRANCH   5  48
BRANCH   1  52
HETATM   52  O   UNK N   1      28.038  16.916   4.547  0.00  0.00    -0.308 OA
BRANCH  52  53
HETATM   53  C   UNK N   1      28.387  18.029   5.255  0.00  0.00     0.293 C 
HETATM   54  O   UNK N   1      28.371  19.111   4.689  0.00  0.00    -0.259 OA
BRANCH  53  55
HETATM   55  C   UNK N   1      28.781  17.969   6.691  0.00  0.00     0.039 A 
HETATM   56  C   UNK N   1      30.031  17.443   7.057  0.00  0.00     0.017 A 
HETATM   57  C   UNK N   1      30.392  17.346   8.405  0.00  0.00     0.001 A 
HETATM   58  C   UNK N   1      29.499  17.751   9.399  0.00  0.00     0.000 A 
HETATM   59  C   UNK N   1      28.249  18.268   9.045  0.00  0.00     0.001 A 
HETATM   60  C   UNK N   1      27.897  18.382   7.697  0.00  0.00     0.017 A 
ENDBRANCH  53  55
ENDBRANCH  52  53
ENDBRANCH   1  52
BRANCH   2  61
HETATM   61  O   UNK N   1      30.122  15.366   4.609  0.00  0.00    -0.305 OA
BRANCH  61  62
HETATM   62  C   UNK N   1      31.242  15.915   4.068  0.00  0.00     0.255 C 
HETATM   63  C   UNK N   1      32.569  15.575   4.654  0.00  0.00     0.126 C 
HETATM   64  O   UNK N   1      31.182  16.682   3.120  0.00  0.00    -0.266 OA
ENDBRANCH  61  62
ENDBRANCH   2  61
BRANCH  19  65
HETATM   65  O   UNK N   1      27.526  11.609   1.473  0.00  0.00    -0.394 OA
HETATM   66  H   UNK N   1      28.094  11.281   0.757  0.00  0.00     0.210 HD
ENDBRANCH  19  65
TORSDOF 17
ENDMDL
MODEL 6
REMARK VINA RESULT:      -7.7      2.249      4.518
REMARK  17 active torsions:
REMARK  status: ('A' for Active; 'I' for Inactive)
REMARK    1  A    between atoms: C_1  and  O_17 
REMARK    2  A    between atoms: C_2  and  O_12 
REMARK    3  A    between atoms: C_5  and  O_26 
REMARK    4  A    between atoms: C_8  and  O_42 
REMARK    5  A    between atoms: C_13  and  O_12 
REMARK    6  A    between atoms: C_24  and  O_17 
REMARK    7  A    between atoms: C_23  and  C_24 
REMARK    8  A    between atoms: O_26  and  C_28 
REMARK    9  A    between atoms: C_33  and  O_34 
REMARK   10  A    between atoms: C_37  and  O_38 
REMARK   11  A    between atoms: C_51  and  O_42 
REMARK   12  A    between atoms: C_50  and  C_47 
REMARK   13  A    between atoms: C_50  and  C_49 
REMARK   14  A    between atoms: C_51  and  C_49 
REMARK   15  A    between atoms: C_49  and  O_53 
REMARK   16  A    between atoms: C_50  and  N_54 
REMARK       I    between atoms: C_61  and  N_54 
REMARK   17  A    between atoms: C_60  and  C_61 
ROOT
HETATM    1  C   UNK N   1      28.416  15.642   5.944  0.00  0.00     0.176 C 
HETATM    2  C   UNK N   1      30.997  15.015   5.529  0.00  0.00     0.125 C 
HETATM    3  C   UNK N   1      31.503  14.589   3.043  0.00  0.00     0.068 C 
HETATM    4  C   UNK N   1      28.432  13.524   2.506  0.00  0.00     0.171 C 
HETATM    5  C   UNK N   1      26.807  13.460   2.379  0.00  0.00     0.232 C 
HETATM    6  C   UNK N   1      26.044  14.342   3.433  0.00  0.00    -0.028 C 
HETATM    7  C   UNK N   1      24.815  14.891   3.484  0.00  0.00    -0.048 C 
HETATM    8  C   UNK N   1      24.440  15.706   4.752  0.00  0.00     0.164 C 
HETATM    9  C   UNK N   1      25.702  16.456   5.394  0.00  0.00     0.078 C 
HETATM   10  C   UNK N   1      23.841  14.684   2.378  0.00  0.00     0.046 C 
HETATM   11  C   UNK N   1      31.942  13.924   6.004  0.00  0.00     0.210 C 
HETATM   12  O   UNK N   1      28.983  13.784   1.448  0.00  0.00    -0.294 OA
HETATM   13  C   UNK N   1      29.509  14.531   5.223  0.00  0.00     0.076 C 
HETATM   14  C   UNK N   1      29.417  13.415   3.849  0.00  0.00     0.055 C 
HETATM   15  C   UNK N   1      29.265  11.977   4.375  0.00  0.00     0.027 C 
HETATM   16  C   UNK N   1      26.817  15.417   5.748  0.00  0.00     0.098 C 
HETATM   17  C   UNK N   1      27.634  15.762   3.515  0.00  0.00     0.023 C 
HETATM   18  C   UNK N   1      27.006  13.219   5.043  0.00  0.00     0.023 C 
HETATM   19  C   UNK N   1      30.856  13.265   3.313  0.00  0.00     0.137 C 
HETATM   20  C   UNK N   1      31.991  15.120   4.382  0.00  0.00     0.161 C 
HETATM   21  O   UNK N   1      32.861  14.179   4.973  0.00  0.00    -0.380 OA
HETATM   22  C   UNK N   1      26.909  14.675   4.480  0.00  0.00     0.013 C 
ENDROOT
BRANCH   8  23
HETATM   23  O   UNK N   1      23.979  14.753   5.638  0.00  0.00    -0.309 OA
BRANCH  23  24
HETATM   24  C   UNK N   1      22.734  14.670   6.153  0.00  0.00     0.290 C 
HETATM   25  O   UNK N   1      21.779  14.814   5.409  0.00  0.00    -0.262 OA
BRANCH  24  26
HETATM   26  C   UNK N   1      22.473  14.332   7.589  0.00  0.00     0.244 C 
BRANCH  26  27
HETATM   27  C   UNK N   1      22.277  12.848   7.902  0.00  0.00     0.156 C 
BRANCH  27  28
HETATM   28  C   UNK N   1      22.722  12.630   9.323  0.00  0.00    -0.033 A 
HETATM   29  C   UNK N   1      21.790  12.372  10.343  0.00  0.00     0.009 A 
HETATM   30  C   UNK N   1      22.227  12.050  11.630  0.00  0.00     0.001 A 
HETATM   31  C   UNK N   1      23.594  11.955  11.900  0.00  0.00     0.000 A 
HETATM   32  C   UNK N   1      24.526  12.193  10.885  0.00  0.00     0.001 A 
HETATM   33  C   UNK N   1      24.091  12.528   9.599  0.00  0.00     0.009 A 
ENDBRANCH  27  28
BRANCH  27  34
HETATM   34  N   UNK N   1      22.903  12.042   6.859  0.00  0.00    -0.345 N 
HETATM   35  C   UNK N   1      22.386  11.089   6.035  0.00  0.00     0.252 C 
HETATM   36  O   UNK N   1      21.199  10.821   6.042  0.00  0.00    -0.268 OA
HETATM   37  H   UNK N   1      23.863  12.219   6.727  0.00  0.00     0.163 HD
BRANCH  35  38
HETATM   38  C   UNK N   1      23.318  10.344   5.157  0.00  0.00     0.032 A 
HETATM   39  C   UNK N   1      22.840   9.591   4.074  0.00  0.00     0.017 A 
HETATM   40  C   UNK N   1      23.732   8.855   3.282  0.00  0.00     0.001 A 
HETATM   41  C   UNK N   1      25.102   8.873   3.564  0.00  0.00     0.000 A 
HETATM   42  C   UNK N   1      25.584   9.624   4.637  0.00  0.00     0.001 A 
HETATM   43  C   UNK N   1      24.693  10.348   5.433  0.00  0.00     0.017 A 
ENDBRANCH  35  38
ENDBRANCH  27  34
ENDBRANCH  26  27
BRANCH  26  44
HETATM   44  O   UNK N   1      21.389  15.073   8.063  0.00  0.00    -0.383 OA
HETATM   45  H   UNK N   1      20.486  14.729   7.975  0.00  0.00     0.210 HD
ENDBRANCH  26  44
ENDBRANCH  24  26
ENDBRANCH  23  24
ENDBRANCH   8  23
BRANCH  16  46
HETATM   46  O   UNK N   1      26.336  14.729   6.882  0.00  0.00    -0.386 OA
HETATM   47  H   UNK N   1      26.279  14.360   7.776  0.00  0.00     0.210 HD
ENDBRANCH  16  46
BRANCH   5  48
HETATM   48  O   UNK N   1      26.325  12.171   2.417  0.00  0.00    -0.304 OA
BRANCH  48  49
HETATM   49  C   UNK N   1      26.061  11.464   1.293  0.00  0.00     0.255 C 
HETATM   50  O   UNK N   1      26.950  10.808   0.775  0.00  0.00    -0.266 OA
HETATM   51  C   UNK N   1      24.705  11.483   0.657  0.00  0.00     0.126 C 
ENDBRANCH  48  49
ENDBRANCH   5  48
BRANCH   1  52
HETATM   52  O   UNK N   1      28.701  16.965   5.636  0.00  0.00    -0.308 OA
BRANCH  52  53
HETATM   53  C   UNK N   1      28.428  17.995   6.488  0.00  0.00     0.293 C 
HETATM   54  O   UNK N   1      28.729  17.876   7.666  0.00  0.00    -0.259 OA
BRANCH  53  55
HETATM   55  C   UNK N   1      27.782  19.257   6.030  0.00  0.00     0.039 A 
HETATM   56  C   UNK N   1      27.386  20.226   6.966  0.00  0.00     0.017 A 
HETATM   57  C   UNK N   1      26.742  21.396   6.548  0.00  0.00     0.001 A 
HETATM   58  C   UNK N   1      26.469  21.597   5.193  0.00  0.00     0.000 A 
HETATM   59  C   UNK N   1      26.852  20.635   4.254  0.00  0.00     0.001 A 
HETATM   60  C   UNK N   1      27.511  19.475   4.672  0.00  0.00     0.017 A 
ENDBRANCH  53  55
ENDBRANCH  52  53
ENDBRANCH   1  52
BRANCH   2  61
HETATM   61  O   UNK N   1      31.113  16.210   6.237  0.00  0.00    -0.305 OA
BRANCH  61  62
HETATM   62  C   UNK N   1      31.838  16.456   7.361  0.00  0.00     0.255 C 
HETATM   63  C   UNK N   1      33.134  17.181   7.241  0.00  0.00     0.126 C 
HETATM   64  O   UNK N   1      31.454  16.090   8.461  0.00  0.00    -0.266 OA
ENDBRANCH  61  62
ENDBRANCH   2  61
BRANCH  19  65
HETATM   65  O   UNK N   1      31.001  12.380   2.236  0.00  0.00    -0.394 OA
HETATM   66  H   UNK N   1      30.429  12.465   1.456  0.00  0.00     0.210 HD
ENDBRANCH  19  65
TORSDOF 17
ENDMDL
MODEL 7
REMARK VINA RESULT:      -7.7      1.624      2.669
REMARK  17 active torsions:
REMARK  status: ('A' for Active; 'I' for Inactive)
REMARK    1  A    between atoms: C_1  and  O_17 
REMARK    2  A    between atoms: C_2  and  O_12 
REMARK    3  A    between atoms: C_5  and  O_26 
REMARK    4  A    between atoms: C_8  and  O_42 
REMARK    5  A    between atoms: C_13  and  O_12 
REMARK    6  A    between atoms: C_24  and  O_17 
REMARK    7  A    between atoms: C_23  and  C_24 
REMARK    8  A    between atoms: O_26  and  C_28 
REMARK    9  A    between atoms: C_33  and  O_34 
REMARK   10  A    between atoms: C_37  and  O_38 
REMARK   11  A    between atoms: C_51  and  O_42 
REMARK   12  A    between atoms: C_50  and  C_47 
REMARK   13  A    between atoms: C_50  and  C_49 
REMARK   14  A    between atoms: C_51  and  C_49 
REMARK   15  A    between atoms: C_49  and  O_53 
REMARK   16  A    between atoms: C_50  and  N_54 
REMARK       I    between atoms: C_61  and  N_54 
REMARK   17  A    between atoms: C_60  and  C_61 
ROOT
HETATM    1  C   UNK N   1      29.259  15.162   5.118  0.00  0.00     0.176 C 
HETATM    2  C   UNK N   1      31.759  14.178   5.019  0.00  0.00     0.125 C 
HETATM    3  C   UNK N   1      32.349  13.265   2.687  0.00  0.00     0.068 C 
HETATM    4  C   UNK N   1      29.203  12.484   2.097  0.00  0.00     0.171 C 
HETATM    5  C   UNK N   1      27.593  12.587   1.855  0.00  0.00     0.232 C 
HETATM    6  C   UNK N   1      26.890  13.723   2.683  0.00  0.00    -0.028 C 
HETATM    7  C   UNK N   1      25.740  14.411   2.544  0.00  0.00    -0.048 C 
HETATM    8  C   UNK N   1      25.399  15.474   3.623  0.00  0.00     0.164 C 
HETATM    9  C   UNK N   1      26.708  16.175   4.227  0.00  0.00     0.078 C 
HETATM   10  C   UNK N   1      24.813  14.126   1.415  0.00  0.00     0.046 C 
HETATM   11  C   UNK N   1      32.528  13.086   5.744  0.00  0.00     0.210 C 
HETATM   12  O   UNK N   1      29.843  12.487   1.057  0.00  0.00    -0.294 OA
HETATM   13  C   UNK N   1      30.242  13.822   4.682  0.00  0.00     0.076 C 
HETATM   14  C   UNK N   1      30.087  12.500   3.512  0.00  0.00     0.055 C 
HETATM   15  C   UNK N   1      29.723  11.205   4.259  0.00  0.00     0.027 C 
HETATM   16  C   UNK N   1      27.659  15.093   4.838  0.00  0.00     0.098 C 
HETATM   17  C   UNK N   1      28.641  14.942   2.649  0.00  0.00     0.023 C 
HETATM   18  C   UNK N   1      27.606  12.798   4.529  0.00  0.00     0.023 C 
HETATM   19  C   UNK N   1      31.525  12.093   3.124  0.00  0.00     0.137 C 
HETATM   20  C   UNK N   1      32.822  13.963   3.952  0.00  0.00     0.161 C 
HETATM   21  O   UNK N   1      33.531  13.047   4.759  0.00  0.00    -0.380 OA
HETATM   22  C   UNK N   1      27.728  14.133   3.724  0.00  0.00     0.013 C 
ENDROOT
BRANCH   8  23
HETATM   23  O   UNK N   1      24.771  14.752   4.618  0.00  0.00    -0.309 OA
BRANCH  23  24
HETATM   24  C   UNK N   1      23.764  15.182   5.408  0.00  0.00     0.290 C 
HETATM   25  O   UNK N   1      24.030  15.625   6.512  0.00  0.00    -0.262 OA
BRANCH  24  26
HETATM   26  C   UNK N   1      22.335  15.209   4.956  0.00  0.00     0.244 C 
BRANCH  26  27
HETATM   27  C   UNK N   1      21.895  16.469   4.208  0.00  0.00     0.156 C 
BRANCH  27  28
HETATM   28  C   UNK N   1      21.326  16.026   2.887  0.00  0.00    -0.033 A 
HETATM   29  C   UNK N   1      21.386  14.680   2.486  0.00  0.00     0.009 A 
HETATM   30  C   UNK N   1      20.745  14.265   1.316  0.00  0.00     0.001 A 
HETATM   31  C   UNK N   1      20.016  15.183   0.557  0.00  0.00     0.000 A 
HETATM   32  C   UNK N   1      19.937  16.520   0.960  0.00  0.00     0.001 A 
HETATM   33  C   UNK N   1      20.589  16.939   2.123  0.00  0.00     0.009 A 
ENDBRANCH  27  28
BRANCH  27  34
HETATM   34  N   UNK N   1      22.988  17.435   4.192  0.00  0.00    -0.345 N 
HETATM   35  C   UNK N   1      22.978  18.795   4.125  0.00  0.00     0.252 C 
HETATM   36  O   UNK N   1      21.936  19.421   4.134  0.00  0.00    -0.268 OA
HETATM   37  H   UNK N   1      23.887  17.035   4.238  0.00  0.00     0.163 HD
BRANCH  35  38
HETATM   38  C   UNK N   1      24.275  19.497   3.991  0.00  0.00     0.032 A 
HETATM   39  C   UNK N   1      24.602  20.188   2.814  0.00  0.00     0.017 A 
HETATM   40  C   UNK N   1      25.853  20.806   2.688  0.00  0.00     0.001 A 
HETATM   41  C   UNK N   1      26.778  20.744   3.735  0.00  0.00     0.000 A 
HETATM   42  C   UNK N   1      26.456  20.064   4.910  0.00  0.00     0.001 A 
HETATM   43  C   UNK N   1      25.214  19.437   5.032  0.00  0.00     0.017 A 
ENDBRANCH  35  38
ENDBRANCH  27  34
ENDBRANCH  26  27
BRANCH  26  44
HETATM   44  O   UNK N   1      21.489  14.969   6.039  0.00  0.00    -0.383 OA
HETATM   45  H   UNK N   1      21.562  15.505   6.844  0.00  0.00     0.210 HD
ENDBRANCH  26  44
ENDBRANCH  24  26
ENDBRANCH  23  24
ENDBRANCH   8  23
BRANCH  16  46
HETATM   46  O   UNK N   1      27.030  14.676   6.029  0.00  0.00    -0.386 OA
HETATM   47  H   UNK N   1      26.614  14.699   6.905  0.00  0.00     0.210 HD
ENDBRANCH  16  46
BRANCH   5  48
HETATM   48  O   UNK N   1      26.950  11.389   2.072  0.00  0.00    -0.304 OA
BRANCH  48  49
HETATM   49  C   UNK N   1      26.540  10.594   1.054  0.00  0.00     0.255 C 
HETATM   50  O   UNK N   1      27.364   9.940   0.437  0.00  0.00    -0.266 OA
HETATM   51  C   UNK N   1      25.099  10.514   0.656  0.00  0.00     0.126 C 
ENDBRANCH  48  49
ENDBRANCH   5  48
BRANCH   1  52
HETATM   52  O   UNK N   1      29.729  16.368   4.616  0.00  0.00    -0.308 OA
BRANCH  52  53
HETATM   53  C   UNK N   1      29.517  17.561   5.244  0.00  0.00     0.293 C 
HETATM   54  O   UNK N   1      29.394  18.567   4.562  0.00  0.00    -0.259 OA
BRANCH  53  55
HETATM   55  C   UNK N   1      29.427  17.675   6.727  0.00  0.00     0.039 A 
HETATM   56  C   UNK N   1      30.584  17.562   7.514  0.00  0.00     0.017 A 
HETATM   57  C   UNK N   1      30.503  17.628   8.909  0.00  0.00     0.001 A 
HETATM   58  C   UNK N   1      29.262  17.784   9.530  0.00  0.00     0.000 A 
HETATM   59  C   UNK N   1      28.103  17.889   8.756  0.00  0.00     0.001 A 
HETATM   60  C   UNK N   1      28.188  17.841   7.361  0.00  0.00     0.017 A 
ENDBRANCH  53  55
ENDBRANCH  52  53
ENDBRANCH   1  52
BRANCH   2  61
HETATM   61  O   UNK N   1      31.986  15.458   5.523  0.00  0.00    -0.305 OA
BRANCH  61  62
HETATM   62  C   UNK N   1      33.011  16.305   5.238  0.00  0.00     0.255 C 
HETATM   63  C   UNK N   1      34.185  16.352   6.155  0.00  0.00     0.126 C 
HETATM   64  O   UNK N   1      32.987  17.028   4.255  0.00  0.00    -0.266 OA
ENDBRANCH  61  62
ENDBRANCH   2  61
BRANCH  19  65
HETATM   65  O   UNK N   1      31.617  11.021   2.226  0.00  0.00    -0.394 OA
HETATM   66  H   UNK N   1      31.402  10.120   2.520  0.00  0.00     0.210 HD
ENDBRANCH  19  65
TORSDOF 17
ENDMDL
MODEL 8
REMARK VINA RESULT:      -7.5      2.291      8.418
REMARK  17 active torsions:
REMARK  status: ('A' for Active; 'I' for Inactive)
REMARK    1  A    between atoms: C_1  and  O_17 
REMARK    2  A    between atoms: C_2  and  O_12 
REMARK    3  A    between atoms: C_5  and  O_26 
REMARK    4  A    between atoms: C_8  and  O_42 
REMARK    5  A    between atoms: C_13  and  O_12 
REMARK    6  A    between atoms: C_24  and  O_17 
REMARK    7  A    between atoms: C_23  and  C_24 
REMARK    8  A    between atoms: O_26  and  C_28 
REMARK    9  A    between atoms: C_33  and  O_34 
REMARK   10  A    between atoms: C_37  and  O_38 
REMARK   11  A    between atoms: C_51  and  O_42 
REMARK   12  A    between atoms: C_50  and  C_47 
REMARK   13  A    between atoms: C_50  and  C_49 
REMARK   14  A    between atoms: C_51  and  C_49 
REMARK   15  A    between atoms: C_49  and  O_53 
REMARK   16  A    between atoms: C_50  and  N_54 
REMARK       I    between atoms: C_61  and  N_54 
REMARK   17  A    between atoms: C_60  and  C_61 
ROOT
HETATM    1  C   UNK N   1      23.374  14.997   4.414  0.00  0.00     0.176 C 
HETATM    2  C   UNK N   1      21.212  14.770   2.833  0.00  0.00     0.125 C 
HETATM    3  C   UNK N   1      21.016  12.425   1.791  0.00  0.00     0.068 C 
HETATM    4  C   UNK N   1      24.287  12.036   1.826  0.00  0.00     0.171 C 
HETATM    5  C   UNK N   1      25.831  11.887   2.329  0.00  0.00     0.232 C 
HETATM    6  C   UNK N   1      26.174  12.733   3.609  0.00  0.00    -0.028 C 
HETATM    7  C   UNK N   1      27.121  12.648   4.564  0.00  0.00    -0.048 C 
HETATM    8  C   UNK N   1      27.117  13.725   5.682  0.00  0.00     0.164 C 
HETATM    9  C   UNK N   1      25.640  14.238   6.034  0.00  0.00     0.078 C 
HETATM   10  C   UNK N   1      28.158  11.582   4.517  0.00  0.00     0.046 C 
HETATM   11  C   UNK N   1      20.698  15.469   1.585  0.00  0.00     0.210 C 
HETATM   12  O   UNK N   1      23.732  10.960   1.664  0.00  0.00    -0.294 OA
HETATM   13  C   UNK N   1      22.788  14.529   2.869  0.00  0.00     0.076 C 
HETATM   14  C   UNK N   1      23.341  13.396   1.624  0.00  0.00     0.055 C 
HETATM   15  C   UNK N   1      23.972  14.188   0.464  0.00  0.00     0.027 C 
HETATM   16  C   UNK N   1      24.955  14.812   4.749  0.00  0.00     0.098 C 
HETATM   17  C   UNK N   1      24.179  12.573   4.348  0.00  0.00     0.023 C 
HETATM   18  C   UNK N   1      25.600  14.550   2.541  0.00  0.00     0.023 C 
HETATM   19  C   UNK N   1      22.079  12.932   0.866  0.00  0.00     0.137 C 
HETATM   20  C   UNK N   1      20.305  13.646   2.353  0.00  0.00     0.161 C 
HETATM   21  O   UNK N   1      19.801  14.428   1.291  0.00  0.00    -0.380 OA
HETATM   22  C   UNK N   1      25.197  13.714   3.798  0.00  0.00     0.013 C 
ENDROOT
BRANCH   8  23
HETATM   23  O   UNK N   1      27.844  14.768   5.145  0.00  0.00    -0.309 OA
BRANCH  23  24
HETATM   24  C   UNK N   1      29.189  14.860   5.081  0.00  0.00     0.290 C 
HETATM   25  O   UNK N   1      29.847  14.562   6.063  0.00  0.00    -0.262 OA
BRANCH  24  26
HETATM   26  C   UNK N   1      29.916  15.238   3.826  0.00  0.00     0.244 C 
BRANCH  26  27
HETATM   27  C   UNK N   1      30.540  16.635   3.810  0.00  0.00     0.156 C 
BRANCH  27  28
HETATM   28  C   UNK N   1      31.954  16.495   4.307  0.00  0.00    -0.033 A 
HETATM   29  C   UNK N   1      32.449  17.325   5.328  0.00  0.00     0.009 A 
HETATM   30  C   UNK N   1      33.721  17.101   5.862  0.00  0.00     0.001 A 
HETATM   31  C   UNK N   1      34.492  16.031   5.402  0.00  0.00     0.000 A 
HETATM   32  C   UNK N   1      33.997  15.191   4.400  0.00  0.00     0.001 A 
HETATM   33  C   UNK N   1      32.731  15.421   3.855  0.00  0.00     0.009 A 
ENDBRANCH  27  28
BRANCH  27  34
HETATM   34  N   UNK N   1      29.662  17.571   4.502  0.00  0.00    -0.345 N 
HETATM   35  C   UNK N   1      28.418  18.028   4.190  0.00  0.00     0.252 C 
HETATM   36  O   UNK N   1      27.815  17.609   3.220  0.00  0.00    -0.268 OA
HETATM   37  H   UNK N   1      30.032  17.934   5.340  0.00  0.00     0.163 HD
BRANCH  35  38
HETATM   38  C   UNK N   1      27.831  19.092   5.037  0.00  0.00     0.032 A 
HETATM   39  C   UNK N   1      27.194  20.202   4.461  0.00  0.00     0.017 A 
HETATM   40  C   UNK N   1      26.686  21.221   5.277  0.00  0.00     0.001 A 
HETATM   41  C   UNK N   1      26.806  21.135   6.668  0.00  0.00     0.000 A 
HETATM   42  C   UNK N   1      27.435  20.031   7.247  0.00  0.00     0.001 A 
HETATM   43  C   UNK N   1      27.951  19.020   6.433  0.00  0.00     0.017 A 
ENDBRANCH  35  38
ENDBRANCH  27  34
ENDBRANCH  26  27
BRANCH  26  44
HETATM   44  O   UNK N   1      29.077  15.071   2.723  0.00  0.00    -0.383 OA
HETATM   45  H   UNK N   1      29.277  14.396   2.055  0.00  0.00     0.210 HD
ENDBRANCH  26  44
ENDBRANCH  24  26
ENDBRANCH  23  24
ENDBRANCH   8  23
BRANCH  16  46
HETATM   46  O   UNK N   1      25.594  16.046   4.508  0.00  0.00    -0.386 OA
HETATM   47  H   UNK N   1      25.733  16.985   4.309  0.00  0.00     0.210 HD
ENDBRANCH  16  46
BRANCH   5  48
HETATM   48  O   UNK N   1      26.740  12.164   1.333  0.00  0.00    -0.304 OA
BRANCH  48  49
HETATM   49  C   UNK N   1      27.717  11.293   0.982  0.00  0.00     0.255 C 
HETATM   50  O   UNK N   1      27.439  10.118   0.814  0.00  0.00    -0.266 OA
HETATM   51  C   UNK N   1      29.137  11.737   0.816  0.00  0.00     0.126 C 
ENDBRANCH  48  49
ENDBRANCH   5  48
BRANCH   1  52
HETATM   52  O   UNK N   1      22.649  14.445   5.462  0.00  0.00    -0.308 OA
BRANCH  52  53
HETATM   53  C   UNK N   1      22.469  15.086   6.652  0.00  0.00     0.293 C 
HETATM   54  O   UNK N   1      22.560  16.305   6.680  0.00  0.00    -0.259 OA
BRANCH  53  55
HETATM   55  C   UNK N   1      22.160  14.355   7.913  0.00  0.00     0.039 A 
HETATM   56  C   UNK N   1      20.967  14.619   8.606  0.00  0.00     0.017 A 
HETATM   57  C   UNK N   1      20.688  13.966   9.811  0.00  0.00     0.001 A 
HETATM   58  C   UNK N   1      21.608  13.061  10.346  0.00  0.00     0.000 A 
HETATM   59  C   UNK N   1      22.801  12.798   9.667  0.00  0.00     0.001 A 
HETATM   60  C   UNK N   1      23.071  13.437   8.454  0.00  0.00     0.017 A 
ENDBRANCH  53  55
ENDBRANCH  52  53
ENDBRANCH   1  52
BRANCH   2  61
HETATM   61  O   UNK N   1      20.641  15.234   4.016  0.00  0.00    -0.305 OA
BRANCH  61  62
HETATM   62  C   UNK N   1      19.991  16.409   4.232  0.00  0.00     0.255 C 
HETATM   63  C   UNK N   1      20.740  17.688   4.080  0.00  0.00     0.126 C 
HETATM   64  O   UNK N   1      18.813  16.437   4.551  0.00  0.00    -0.266 OA
ENDBRANCH  61  62
ENDBRANCH   2  61
BRANCH  19  65
HETATM   65  O   UNK N   1      22.315  12.051  -0.198  0.00  0.00    -0.394 OA
HETATM   66  H   UNK N   1      22.857  12.333  -0.952  0.00  0.00     0.210 HD
ENDBRANCH  19  65
TORSDOF 17
ENDMDL
MODEL 9
REMARK VINA RESULT:      -7.3      1.447      2.072
REMARK  17 active torsions:
REMARK  status: ('A' for Active; 'I' for Inactive)
REMARK    1  A    between atoms: C_1  and  O_17 
REMARK    2  A    between atoms: C_2  and  O_12 
REMARK    3  A    between atoms: C_5  and  O_26 
REMARK    4  A    between atoms: C_8  and  O_42 
REMARK    5  A    between atoms: C_13  and  O_12 
REMARK    6  A    between atoms: C_24  and  O_17 
REMARK    7  A    between atoms: C_23  and  C_24 
REMARK    8  A    between atoms: O_26  and  C_28 
REMARK    9  A    between atoms: C_33  and  O_34 
REMARK   10  A    between atoms: C_37  and  O_38 
REMARK   11  A    between atoms: C_51  and  O_42 
REMARK   12  A    between atoms: C_50  and  C_47 
REMARK   13  A    between atoms: C_50  and  C_49 
REMARK   14  A    between atoms: C_51  and  C_49 
REMARK   15  A    between atoms: C_49  and  O_53 
REMARK   16  A    between atoms: C_50  and  N_54 
REMARK       I    between atoms: C_61  and  N_54 
REMARK   17  A    between atoms: C_60  and  C_61 
ROOT
HETATM    1  C   UNK N   1      28.114  15.434   5.841  0.00  0.00     0.176 C 
HETATM    2  C   UNK N   1      30.639  14.732   5.244  0.00  0.00     0.125 C 
HETATM    3  C   UNK N   1      30.973  14.372   2.718  0.00  0.00     0.068 C 
HETATM    4  C   UNK N   1      27.837  13.433   2.345  0.00  0.00     0.171 C 
HETATM    5  C   UNK N   1      26.207  13.430   2.319  0.00  0.00     0.232 C 
HETATM    6  C   UNK N   1      25.545  14.303   3.447  0.00  0.00    -0.028 C 
HETATM    7  C   UNK N   1      24.342  14.892   3.593  0.00  0.00    -0.048 C 
HETATM    8  C   UNK N   1      24.076  15.676   4.906  0.00  0.00     0.164 C 
HETATM    9  C   UNK N   1      25.403  16.360   5.490  0.00  0.00     0.078 C 
HETATM   10  C   UNK N   1      23.294  14.756   2.544  0.00  0.00     0.046 C 
HETATM   11  C   UNK N   1      31.571  13.593   5.624  0.00  0.00     0.210 C 
HETATM   12  O   UNK N   1      28.331  13.708   1.262  0.00  0.00    -0.294 OA
HETATM   13  C   UNK N   1      29.119  14.310   5.017  0.00  0.00     0.076 C 
HETATM   14  C   UNK N   1      28.900  13.245   3.618  0.00  0.00     0.055 C 
HETATM   15  C   UNK N   1      28.728  11.796   4.108  0.00  0.00     0.027 C 
HETATM   16  C   UNK N   1      26.499  15.271   5.740  0.00  0.00     0.098 C 
HETATM   17  C   UNK N   1      27.187  15.663   3.471  0.00  0.00     0.023 C 
HETATM   18  C   UNK N   1      26.562  13.094   4.956  0.00  0.00     0.023 C 
HETATM   19  C   UNK N   1      30.297  13.063   2.987  0.00  0.00     0.137 C 
HETATM   20  C   UNK N   1      31.563  14.840   4.040  0.00  0.00     0.161 C 
HETATM   21  O   UNK N   1      32.433  13.850   4.544  0.00  0.00    -0.380 OA
HETATM   22  C   UNK N   1      26.484  14.569   4.446  0.00  0.00     0.013 C 
ENDROOT
BRANCH   8  23
HETATM   23  O   UNK N   1      23.637  14.711   5.789  0.00  0.00    -0.309 OA
BRANCH  23  24
HETATM   24  C   UNK N   1      22.530  14.771   6.559  0.00  0.00     0.290 C 
HETATM   25  O   UNK N   1      22.137  15.861   6.940  0.00  0.00    -0.262 OA
BRANCH  24  26
HETATM   26  C   UNK N   1      21.716  13.561   6.904  0.00  0.00     0.244 C 
BRANCH  26  27
HETATM   27  C   UNK N   1      20.871  12.978   5.770  0.00  0.00     0.156 C 
BRANCH  27  28
HETATM   28  C   UNK N   1      21.488  11.659   5.388  0.00  0.00    -0.033 A 
HETATM   29  C   UNK N   1      20.845  10.445   5.686  0.00  0.00     0.009 A 
HETATM   30  C   UNK N   1      21.368   9.238   5.218  0.00  0.00     0.001 A 
HETATM   31  C   UNK N   1      22.518   9.237   4.424  0.00  0.00     0.000 A 
HETATM   32  C   UNK N   1      23.152  10.443   4.109  0.00  0.00     0.001 A 
HETATM   33  C   UNK N   1      22.637  11.651   4.589  0.00  0.00     0.009 A 
ENDBRANCH  27  28
BRANCH  27  34
HETATM   34  N   UNK N   1      20.700  13.980   4.723  0.00  0.00    -0.345 N 
HETATM   35  C   UNK N   1      19.586  14.621   4.274  0.00  0.00     0.252 C 
HETATM   36  O   UNK N   1      18.502  14.451   4.798  0.00  0.00    -0.268 OA
HETATM   37  H   UNK N   1      21.533  14.238   4.265  0.00  0.00     0.163 HD
BRANCH  35  38
HETATM   38  C   UNK N   1      19.717  15.502   3.090  0.00  0.00     0.032 A 
HETATM   39  C   UNK N   1      19.670  14.974   1.791  0.00  0.00     0.017 A 
HETATM   40  C   UNK N   1      19.843  15.816   0.684  0.00  0.00     0.001 A 
HETATM   41  C   UNK N   1      20.056  17.186   0.869  0.00  0.00     0.000 A 
HETATM   42  C   UNK N   1      20.098  17.718   2.159  0.00  0.00     0.001 A 
HETATM   43  C   UNK N   1      19.937  16.877   3.262  0.00  0.00     0.017 A 
ENDBRANCH  35  38
ENDBRANCH  27  34
ENDBRANCH  26  27
BRANCH  26  44
HETATM   44  O   UNK N   1      20.916  13.826   8.016  0.00  0.00    -0.383 OA
HETATM   45  H   UNK N   1      20.132  14.390   7.930  0.00  0.00     0.210 HD
ENDBRANCH  26  44
ENDBRANCH  24  26
ENDBRANCH  23  24
ENDBRANCH   8  23
BRANCH  16  46
HETATM   46  O   UNK N   1      26.064  14.563   6.880  0.00  0.00    -0.386 OA
HETATM   47  H   UNK N   1      25.552  14.308   7.662  0.00  0.00     0.210 HD
ENDBRANCH  16  46
BRANCH   5  48
HETATM   48  O   UNK N   1      25.681  12.158   2.348  0.00  0.00    -0.304 OA
BRANCH  48  49
HETATM   49  C   UNK N   1      25.397  11.467   1.218  0.00  0.00     0.255 C 
HETATM   50  O   UNK N   1      26.187  10.631   0.813  0.00  0.00    -0.266 OA
HETATM   51  C   UNK N   1      24.142  11.719   0.441  0.00  0.00     0.126 C 
ENDBRANCH  48  49
ENDBRANCH   5  48
BRANCH   1  52
HETATM   52  O   UNK N   1      28.429  16.756   5.557  0.00  0.00    -0.308 OA
BRANCH  52  53
HETATM   53  C   UNK N   1      28.232  17.768   6.450  0.00  0.00     0.293 C 
HETATM   54  O   UNK N   1      28.525  17.580   7.621  0.00  0.00    -0.259 OA
BRANCH  53  55
HETATM   55  C   UNK N   1      27.681  19.092   6.045  0.00  0.00     0.039 A 
HETATM   56  C   UNK N   1      27.437  20.079   7.014  0.00  0.00     0.017 A 
HETATM   57  C   UNK N   1      26.882  21.310   6.648  0.00  0.00     0.001 A 
HETATM   58  C   UNK N   1      26.545  21.556   5.316  0.00  0.00     0.000 A 
HETATM   59  C   UNK N   1      26.777  20.577   4.346  0.00  0.00     0.001 A 
HETATM   60  C   UNK N   1      27.348  19.355   4.710  0.00  0.00     0.017 A 
ENDBRANCH  53  55
ENDBRANCH  52  53
ENDBRANCH   1  52
BRANCH   2  61
HETATM   61  O   UNK N   1      30.843  15.898   5.979  0.00  0.00    -0.305 OA
BRANCH  61  62
HETATM   62  C   UNK N   1      31.724  16.905   5.734  0.00  0.00     0.255 C 
HETATM   63  C   UNK N   1      32.949  17.015   6.574  0.00  0.00     0.126 C 
HETATM   64  O   UNK N   1      31.529  17.720   4.846  0.00  0.00    -0.266 OA
ENDBRANCH  61  62
ENDBRANCH   2  61
BRANCH  19  65
HETATM   65  O   UNK N   1      30.341  12.209   1.876  0.00  0.00    -0.394 OA
HETATM   66  H   UNK N   1      31.191  11.854   1.569  0.00  0.00     0.210 HD
ENDBRANCH  19  65
TORSDOF 17
ENDMDL
