MODEL 1
REMARK VINA RESULT:      -6.7      0.000      0.000
REMARK  3 active torsions:
REMARK  status: ('A' for Active; 'I' for Inactive)
REMARK    1  A    between atoms: C_16  and  C_17 
REMARK    2  A    between atoms: C_17  and  C_18 
REMARK    3  A    between atoms: C_18  and  N_19 
ROOT
HETATM    1  C   UNK N   1      21.123  13.326  10.168  0.00  0.00     0.013 A 
HETATM    2  C   UNK N   1      21.514  12.253  10.963  0.00  0.00     0.001 A 
HETATM    3  C   UNK N   1      22.758  11.668  10.767  0.00  0.00     0.001 A 
HETATM    4  C   UNK N   1      23.608  12.166   9.782  0.00  0.00     0.020 A 
HETATM    5  C   UNK N   1      23.223  13.242   8.972  0.00  0.00     0.016 A 
HETATM    6  C   UNK N   1      21.961  13.845   9.155  0.00  0.00    -0.008 A 
HETATM    7  C   UNK N   1      21.477  15.000   8.319  0.00  0.00    -0.017 C 
HETATM    8  S   UNK N   1      24.451  13.830   7.818  0.00  0.00    -0.089 SA
HETATM    9  C   UNK N   1      23.474  14.843   6.720  0.00  0.00     0.017 A 
HETATM   10  C   UNK N   1      22.198  15.365   7.043  0.00  0.00    -0.007 A 
HETATM   11  C   UNK N   1      21.572  16.196   6.091  0.00  0.00     0.037 A 
HETATM   12  C   UNK N   1      24.076  15.166   5.496  0.00  0.00     0.021 A 
HETATM   13  C   UNK N   1      23.432  15.984   4.574  0.00  0.00     0.025 A 
HETATM   14  C   UNK N   1      22.180  16.504   4.873  0.00  0.00     0.035 A 
HETATM   15 Cl   UNK N   1      21.359  17.524   3.712  0.00  0.00    -0.084 Cl
HETATM   16  C   UNK N   1      20.354  15.661   8.742  0.00  0.00    -0.012 C 
ENDROOT
BRANCH  16  17
HETATM   17  C   UNK N   1      19.740  16.861   8.090  0.00  0.00     0.058 C 
BRANCH  17  18
HETATM   18  C   UNK N   1      19.243  17.874   9.139  0.00  0.00     0.275 C 
BRANCH  18  19
HETATM   19  N   UNK N   1      17.995  17.515   9.831  0.00  0.00     0.080 N 
HETATM   20  C   UNK N   1      17.541  18.569  10.727  0.00  0.00     0.309 C 
HETATM   21  C   UNK N   1      16.938  17.205   8.881  0.00  0.00     0.309 C 
ENDBRANCH  18  19
ENDBRANCH  17  18
ENDBRANCH  16  17
TORSDOF 3
ENDMDL
MODEL 2
REMARK VINA RESULT:      -6.3      7.922      9.168
REMARK  3 active torsions:
REMARK  status: ('A' for Active; 'I' for Inactive)
REMARK    1  A    between atoms: C_16  and  C_17 
REMARK    2  A    between atoms: C_17  and  C_18 
REMARK    3  A    between atoms: C_18  and  N_19 
ROOT
HETATM    1  C   UNK N   1      31.085  16.159   6.368  0.00  0.00     0.013 A 
HETATM    2  C   UNK N   1      31.981  15.880   7.396  0.00  0.00     0.001 A 
HETATM    3  C   UNK N   1      31.837  16.510   8.625  0.00  0.00     0.001 A 
HETATM    4  C   UNK N   1      30.792  17.410   8.822  0.00  0.00     0.020 A 
HETATM    5  C   UNK N   1      29.887  17.704   7.793  0.00  0.00     0.016 A 
HETATM    6  C   UNK N   1      30.022  17.075   6.536  0.00  0.00    -0.008 A 
HETATM    7  C   UNK N   1      29.092  17.345   5.384  0.00  0.00    -0.017 C 
HETATM    8  S   UNK N   1      28.548  18.803   8.220  0.00  0.00    -0.089 SA
HETATM    9  C   UNK N   1      27.920  19.264   6.614  0.00  0.00     0.017 A 
HETATM   10  C   UNK N   1      28.159  18.533   5.425  0.00  0.00    -0.007 A 
HETATM   11  C   UNK N   1      27.549  18.993   4.240  0.00  0.00     0.037 A 
HETATM   12  C   UNK N   1      27.092  20.394   6.588  0.00  0.00     0.021 A 
HETATM   13  C   UNK N   1      26.506  20.828   5.403  0.00  0.00     0.025 A 
HETATM   14  C   UNK N   1      26.732  20.125   4.228  0.00  0.00     0.035 A 
HETATM   15 Cl   UNK N   1      26.009  20.672   2.731  0.00  0.00    -0.084 Cl
HETATM   16  C   UNK N   1      29.162  16.505   4.303  0.00  0.00    -0.012 C 
ENDROOT
BRANCH  16  17
HETATM   17  C   UNK N   1      28.297  16.565   3.083  0.00  0.00     0.058 C 
BRANCH  17  18
HETATM   18  C   UNK N   1      28.297  15.220   2.332  0.00  0.00     0.275 C 
BRANCH  18  19
HETATM   19  N   UNK N   1      26.973  14.698   1.956  0.00  0.00     0.080 N 
HETATM   20  C   UNK N   1      26.621  13.500   2.704  0.00  0.00     0.309 C 
HETATM   21  C   UNK N   1      25.938  15.703   2.148  0.00  0.00     0.309 C 
ENDBRANCH  18  19
ENDBRANCH  17  18
ENDBRANCH  16  17
TORSDOF 3
ENDMDL
MODEL 3
REMARK VINA RESULT:      -6.3     14.766     16.321
REMARK  3 active torsions:
REMARK  status: ('A' for Active; 'I' for Inactive)
REMARK    1  A    between atoms: C_16  and  C_17 
REMARK    2  A    between atoms: C_17  and  C_18 
REMARK    3  A    between atoms: C_18  and  N_19 
ROOT
HETATM    1  C   UNK N   1      35.443  13.737  17.043  0.00  0.00     0.013 A 
HETATM    2  C   UNK N   1      35.230  13.777  18.418  0.00  0.00     0.001 A 
HETATM    3  C   UNK N   1      35.169  12.592  19.139  0.00  0.00     0.001 A 
HETATM    4  C   UNK N   1      35.329  11.375  18.484  0.00  0.00     0.020 A 
HETATM    5  C   UNK N   1      35.538  11.321  17.099  0.00  0.00     0.016 A 
HETATM    6  C   UNK N   1      35.599  12.515  16.350  0.00  0.00    -0.008 A 
HETATM    7  C   UNK N   1      35.815  12.536  14.860  0.00  0.00    -0.017 C 
HETATM    8  S   UNK N   1      35.818   9.698  16.413  0.00  0.00    -0.089 SA
HETATM    9  C   UNK N   1      35.594   9.989  14.666  0.00  0.00     0.017 A 
HETATM   10  C   UNK N   1      35.667  11.265  14.056  0.00  0.00    -0.007 A 
HETATM   11  C   UNK N   1      35.523  11.329  12.655  0.00  0.00     0.037 A 
HETATM   12  C   UNK N   1      35.397   8.846  13.880  0.00  0.00     0.021 A 
HETATM   13  C   UNK N   1      35.254   8.940  12.500  0.00  0.00     0.025 A 
HETATM   14  C   UNK N   1      35.321  10.182  11.885  0.00  0.00     0.035 A 
HETATM   15 Cl   UNK N   1      35.128  10.309  10.150  0.00  0.00    -0.084 Cl
HETATM   16  C   UNK N   1      36.104  13.742  14.279  0.00  0.00    -0.012 C 
ENDROOT
BRANCH  16  17
HETATM   17  C   UNK N   1      36.403  13.972  12.829  0.00  0.00     0.058 C 
BRANCH  17  18
HETATM   18  C   UNK N   1      35.764  15.281  12.328  0.00  0.00     0.275 C 
BRANCH  18  19
HETATM   19  N   UNK N   1      36.294  15.806  11.060  0.00  0.00     0.080 N 
HETATM   20  C   UNK N   1      36.720  14.744  10.160  0.00  0.00     0.309 C 
HETATM   21  C   UNK N   1      35.312  16.641  10.385  0.00  0.00     0.309 C 
ENDBRANCH  18  19
ENDBRANCH  17  18
ENDBRANCH  16  17
TORSDOF 3
ENDMDL
MODEL 4
REMARK VINA RESULT:      -6.3     16.291     18.089
REMARK  3 active torsions:
REMARK  status: ('A' for Active; 'I' for Inactive)
REMARK    1  A    between atoms: C_16  and  C_17 
REMARK    2  A    between atoms: C_17  and  C_18 
REMARK    3  A    between atoms: C_18  and  N_19 
ROOT
HETATM    1  C   UNK N   1      26.850  26.370  -3.687  0.00  0.00     0.013 A 
HETATM    2  C   UNK N   1      26.046  27.505  -3.759  0.00  0.00     0.001 A 
HETATM    3  C   UNK N   1      25.188  27.673  -4.837  0.00  0.00     0.001 A 
HETATM    4  C   UNK N   1      25.131  26.703  -5.834  0.00  0.00     0.020 A 
HETATM    5  C   UNK N   1      25.939  25.559  -5.776  0.00  0.00     0.016 A 
HETATM    6  C   UNK N   1      26.820  25.374  -4.690  0.00  0.00    -0.008 A 
HETATM    7  C   UNK N   1      27.722  24.175  -4.563  0.00  0.00    -0.017 C 
HETATM    8  S   UNK N   1      25.691  24.360  -7.074  0.00  0.00    -0.089 SA
HETATM    9  C   UNK N   1      27.142  23.333  -6.913  0.00  0.00     0.017 A 
HETATM   10  C   UNK N   1      27.947  23.268  -5.750  0.00  0.00    -0.007 A 
HETATM   11  C   UNK N   1      29.031  22.367  -5.755  0.00  0.00     0.037 A 
HETATM   12  C   UNK N   1      27.428  22.510  -8.011  0.00  0.00     0.021 A 
HETATM   13  C   UNK N   1      28.507  21.634  -7.989  0.00  0.00     0.025 A 
HETATM   14  C   UNK N   1      29.308  21.559  -6.858  0.00  0.00     0.035 A 
HETATM   15 Cl   UNK N   1      30.676  20.467  -6.828  0.00  0.00    -0.084 Cl
HETATM   16  C   UNK N   1      28.346  23.977  -3.359  0.00  0.00    -0.012 C 
ENDROOT
BRANCH  16  17
HETATM   17  C   UNK N   1      29.236  22.825  -3.008  0.00  0.00     0.058 C 
BRANCH  17  18
HETATM   18  C   UNK N   1      30.657  23.304  -2.658  0.00  0.00     0.275 C 
BRANCH  18  19
HETATM   19  N   UNK N   1      31.755  22.438  -3.116  0.00  0.00     0.080 N 
HETATM   20  C   UNK N   1      31.324  21.061  -3.313  0.00  0.00     0.309 C 
HETATM   21  C   UNK N   1      32.339  22.938  -4.351  0.00  0.00     0.309 C 
ENDBRANCH  18  19
ENDBRANCH  17  18
ENDBRANCH  16  17
TORSDOF 3
ENDMDL
MODEL 5
REMARK VINA RESULT:      -6.2      7.961      9.690
REMARK  3 active torsions:
REMARK  status: ('A' for Active; 'I' for Inactive)
REMARK    1  A    between atoms: C_16  and  C_17 
REMARK    2  A    between atoms: C_17  and  C_18 
REMARK    3  A    between atoms: C_18  and  N_19 
ROOT
HETATM    1  C   UNK N   1      32.145  17.433   8.288  0.00  0.00     0.013 A 
HETATM    2  C   UNK N   1      33.457  17.334   8.742  0.00  0.00     0.001 A 
HETATM    3  C   UNK N   1      34.484  17.112   7.833  0.00  0.00     0.001 A 
HETATM    4  C   UNK N   1      34.194  17.000   6.476  0.00  0.00     0.020 A 
HETATM    5  C   UNK N   1      32.876  17.092   6.008  0.00  0.00     0.016 A 
HETATM    6  C   UNK N   1      31.820  17.313   6.918  0.00  0.00    -0.008 A 
HETATM    7  C   UNK N   1      30.381  17.417   6.490  0.00  0.00    -0.017 C 
HETATM    8  S   UNK N   1      32.669  17.021   4.237  0.00  0.00    -0.089 SA
HETATM    9  C   UNK N   1      30.916  16.725   4.080  0.00  0.00     0.017 A 
HETATM   10  C   UNK N   1      29.970  16.981   5.102  0.00  0.00    -0.007 A 
HETATM   11  C   UNK N   1      28.611  16.748   4.809  0.00  0.00     0.037 A 
HETATM   12  C   UNK N   1      30.487  16.266   2.827  0.00  0.00     0.021 A 
HETATM   13  C   UNK N   1      29.140  16.040   2.568  0.00  0.00     0.025 A 
HETATM   14  C   UNK N   1      28.199  16.284   3.559  0.00  0.00     0.035 A 
HETATM   15 Cl   UNK N   1      26.503  15.989   3.244  0.00  0.00    -0.084 Cl
HETATM   16  C   UNK N   1      29.478  17.875   7.412  0.00  0.00    -0.012 C 
ENDROOT
BRANCH  16  17
HETATM   17  C   UNK N   1      28.016  18.103   7.177  0.00  0.00     0.058 C 
BRANCH  17  18
HETATM   18  C   UNK N   1      27.655  19.594   7.310  0.00  0.00     0.275 C 
BRANCH  18  19
HETATM   19  N   UNK N   1      26.943  20.184   6.165  0.00  0.00     0.080 N 
HETATM   20  C   UNK N   1      26.469  21.531   6.446  0.00  0.00     0.309 C 
HETATM   21  C   UNK N   1      27.787  20.211   4.980  0.00  0.00     0.309 C 
ENDBRANCH  18  19
ENDBRANCH  17  18
ENDBRANCH  16  17
TORSDOF 3
ENDMDL
MODEL 6
REMARK VINA RESULT:      -5.9      3.783      6.925
REMARK  3 active torsions:
REMARK  status: ('A' for Active; 'I' for Inactive)
REMARK    1  A    between atoms: C_16  and  C_17 
REMARK    2  A    between atoms: C_17  and  C_18 
REMARK    3  A    between atoms: C_18  and  N_19 
ROOT
HETATM    1  C   UNK N   1      25.026  20.102   3.579  0.00  0.00     0.013 A 
HETATM    2  C   UNK N   1      26.318  20.576   3.367  0.00  0.00     0.001 A 
HETATM    3  C   UNK N   1      27.406  19.791   3.725  0.00  0.00     0.001 A 
HETATM    4  C   UNK N   1      27.196  18.533   4.286  0.00  0.00     0.020 A 
HETATM    5  C   UNK N   1      25.901  18.048   4.509  0.00  0.00     0.016 A 
HETATM    6  C   UNK N   1      24.784  18.834   4.155  0.00  0.00    -0.008 A 
HETATM    7  C   UNK N   1      23.364  18.382   4.371  0.00  0.00    -0.017 C 
HETATM    8  S   UNK N   1      25.788  16.385   5.147  0.00  0.00    -0.089 SA
HETATM    9  C   UNK N   1      24.091  16.312   5.697  0.00  0.00     0.017 A 
HETATM   10  C   UNK N   1      23.075  17.195   5.260  0.00  0.00    -0.007 A 
HETATM   11  C   UNK N   1      21.768  16.977   5.742  0.00  0.00     0.037 A 
HETATM   12  C   UNK N   1      23.781  15.260   6.569  0.00  0.00     0.021 A 
HETATM   13  C   UNK N   1      22.483  15.072   7.032  0.00  0.00     0.025 A 
HETATM   14  C   UNK N   1      21.474  15.929   6.616  0.00  0.00     0.035 A 
HETATM   15 Cl   UNK N   1      19.841  15.706   7.206  0.00  0.00    -0.084 Cl
HETATM   16  C   UNK N   1      22.370  19.108   3.769  0.00  0.00    -0.012 C 
ENDROOT
BRANCH  16  17
HETATM   17  C   UNK N   1      20.905  18.800   3.812  0.00  0.00     0.058 C 
BRANCH  17  18
HETATM   18  C   UNK N   1      20.354  18.513   2.402  0.00  0.00     0.275 C 
BRANCH  18  19
HETATM   19  N   UNK N   1      20.595  17.156   1.886  0.00  0.00     0.080 N 
HETATM   20  C   UNK N   1      20.087  16.128   2.782  0.00  0.00     0.309 C 
HETATM   21  C   UNK N   1      19.999  16.981   0.570  0.00  0.00     0.309 C 
ENDBRANCH  18  19
ENDBRANCH  17  18
ENDBRANCH  16  17
TORSDOF 3
ENDMDL
MODEL 7
REMARK VINA RESULT:      -5.9     16.316     17.497
REMARK  3 active torsions:
REMARK  status: ('A' for Active; 'I' for Inactive)
REMARK    1  A    between atoms: C_16  and  C_17 
REMARK    2  A    between atoms: C_17  and  C_18 
REMARK    3  A    between atoms: C_18  and  N_19 
ROOT
HETATM    1  C   UNK N   1      31.255  21.361  -5.596  0.00  0.00     0.013 A 
HETATM    2  C   UNK N   1      32.370  20.870  -4.923  0.00  0.00     0.001 A 
HETATM    3  C   UNK N   1      32.491  21.070  -3.554  0.00  0.00     0.001 A 
HETATM    4  C   UNK N   1      31.493  21.753  -2.865  0.00  0.00     0.020 A 
HETATM    5  C   UNK N   1      30.369  22.257  -3.532  0.00  0.00     0.016 A 
HETATM    6  C   UNK N   1      30.231  22.067  -4.923  0.00  0.00    -0.008 A 
HETATM    7  C   UNK N   1      29.056  22.584  -5.708  0.00  0.00    -0.017 C 
HETATM    8  S   UNK N   1      29.130  23.027  -2.504  0.00  0.00    -0.089 SA
HETATM    9  C   UNK N   1      28.138  23.897  -3.706  0.00  0.00     0.017 A 
HETATM   10  C   UNK N   1      28.122  23.599  -5.090  0.00  0.00    -0.007 A 
HETATM   11  C   UNK N   1      27.243  24.339  -5.908  0.00  0.00     0.037 A 
HETATM   12  C   UNK N   1      27.292  24.889  -3.192  0.00  0.00     0.021 A 
HETATM   13  C   UNK N   1      26.439  25.607  -4.024  0.00  0.00     0.025 A 
HETATM   14  C   UNK N   1      26.411  25.329  -5.383  0.00  0.00     0.035 A 
HETATM   15 Cl   UNK N   1      25.350  26.237  -6.438  0.00  0.00    -0.084 Cl
HETATM   16  C   UNK N   1      28.902  22.132  -6.992  0.00  0.00    -0.012 C 
ENDROOT
BRANCH  16  17
HETATM   17  C   UNK N   1      27.780  22.479  -7.920  0.00  0.00     0.058 C 
BRANCH  17  18
HETATM   18  C   UNK N   1      26.807  21.296  -8.086  0.00  0.00     0.275 C 
BRANCH  18  19
HETATM   19  N   UNK N   1      25.388  21.653  -8.245  0.00  0.00     0.080 N 
HETATM   20  C   UNK N   1      24.617  21.393  -7.037  0.00  0.00     0.309 C 
HETATM   21  C   UNK N   1      25.236  23.051  -8.619  0.00  0.00     0.309 C 
ENDBRANCH  18  19
ENDBRANCH  17  18
ENDBRANCH  16  17
TORSDOF 3
ENDMDL
MODEL 8
REMARK VINA RESULT:      -5.9     17.399     18.667
REMARK  3 active torsions:
REMARK  status: ('A' for Active; 'I' for Inactive)
REMARK    1  A    between atoms: C_16  and  C_17 
REMARK    2  A    between atoms: C_17  and  C_18 
REMARK    3  A    between atoms: C_18  and  N_19 
ROOT
HETATM    1  C   UNK N   1      25.508  25.859  -5.841  0.00  0.00     0.013 A 
HETATM    2  C   UNK N   1      24.788  27.018  -5.563  0.00  0.00     0.001 A 
HETATM    3  C   UNK N   1      25.375  28.028  -4.813  0.00  0.00     0.001 A 
HETATM    4  C   UNK N   1      26.681  27.878  -4.353  0.00  0.00     0.020 A 
HETATM    5  C   UNK N   1      27.413  26.714  -4.622  0.00  0.00     0.016 A 
HETATM    6  C   UNK N   1      26.831  25.676  -5.379  0.00  0.00    -0.008 A 
HETATM    7  C   UNK N   1      27.553  24.396  -5.702  0.00  0.00    -0.017 C 
HETATM    8  S   UNK N   1      29.103  26.704  -4.048  0.00  0.00    -0.089 SA
HETATM    9  C   UNK N   1      29.525  24.974  -4.170  0.00  0.00     0.017 A 
HETATM   10  C   UNK N   1      28.824  24.037  -4.968  0.00  0.00    -0.007 A 
HETATM   11  C   UNK N   1      29.313  22.715  -5.005  0.00  0.00     0.037 A 
HETATM   12  C   UNK N   1      30.668  24.576  -3.462  0.00  0.00     0.021 A 
HETATM   13  C   UNK N   1      31.123  23.263  -3.513  0.00  0.00     0.025 A 
HETATM   14  C   UNK N   1      30.447  22.332  -4.289  0.00  0.00     0.035 A 
HETATM   15 Cl   UNK N   1      31.008  20.675  -4.348  0.00  0.00    -0.084 Cl
HETATM   16  C   UNK N   1      26.992  23.572  -6.642  0.00  0.00    -0.012 C 
ENDROOT
BRANCH  16  17
HETATM   17  C   UNK N   1      27.572  22.286  -7.145  0.00  0.00     0.058 C 
BRANCH  17  18
HETATM   18  C   UNK N   1      26.549  21.506  -7.993  0.00  0.00     0.275 C 
BRANCH  18  19
HETATM   19  N   UNK N   1      26.871  21.376  -9.423  0.00  0.00     0.080 N 
HETATM   20  C   UNK N   1      26.408  22.519 -10.197  0.00  0.00     0.309 C 
HETATM   21  C   UNK N   1      28.301  21.207  -9.626  0.00  0.00     0.309 C 
ENDBRANCH  18  19
ENDBRANCH  17  18
ENDBRANCH  16  17
TORSDOF 3
ENDMDL
MODEL 9
REMARK VINA RESULT:      -5.8     15.655     18.833
REMARK  3 active torsions:
REMARK  status: ('A' for Active; 'I' for Inactive)
REMARK    1  A    between atoms: C_16  and  C_17 
REMARK    2  A    between atoms: C_17  and  C_18 
REMARK    3  A    between atoms: C_18  and  N_19 
ROOT
HETATM    1  C   UNK N   1      31.009  27.864  -3.101  0.00  0.00     0.013 A 
HETATM    2  C   UNK N   1      31.555  28.888  -2.330  0.00  0.00     0.001 A 
HETATM    3  C   UNK N   1      30.726  29.874  -1.812  0.00  0.00     0.001 A 
HETATM    4  C   UNK N   1      29.357  29.828  -2.059  0.00  0.00     0.020 A 
HETATM    5  C   UNK N   1      28.797  28.806  -2.838  0.00  0.00     0.016 A 
HETATM    6  C   UNK N   1      29.625  27.797  -3.376  0.00  0.00    -0.008 A 
HETATM    7  C   UNK N   1      29.096  26.673  -4.225  0.00  0.00    -0.017 C 
HETATM    8  S   UNK N   1      27.019  28.824  -2.991  0.00  0.00    -0.089 SA
HETATM    9  C   UNK N   1      26.753  27.703  -4.354  0.00  0.00     0.017 A 
HETATM   10  C   UNK N   1      27.699  26.747  -4.795  0.00  0.00    -0.007 A 
HETATM   11  C   UNK N   1      27.321  25.893  -5.852  0.00  0.00     0.037 A 
HETATM   12  C   UNK N   1      25.489  27.769  -4.956  0.00  0.00     0.021 A 
HETATM   13  C   UNK N   1      25.146  26.917  -6.000  0.00  0.00     0.025 A 
HETATM   14  C   UNK N   1      26.062  25.974  -6.447  0.00  0.00     0.035 A 
HETATM   15 Cl   UNK N   1      25.641  24.907  -7.769  0.00  0.00    -0.084 Cl
HETATM   16  C   UNK N   1      29.939  25.624  -4.484  0.00  0.00    -0.012 C 
ENDROOT
BRANCH  16  17
HETATM   17  C   UNK N   1      29.598  24.389  -5.258  0.00  0.00     0.058 C 
BRANCH  17  18
HETATM   18  C   UNK N   1      29.436  23.173  -4.326  0.00  0.00     0.275 C 
BRANCH  18  19
HETATM   19  N   UNK N   1      30.051  23.302  -2.995  0.00  0.00     0.080 N 
HETATM   20  C   UNK N   1      29.109  23.011  -1.924  0.00  0.00     0.309 C 
HETATM   21  C   UNK N   1      31.209  22.432  -2.864  0.00  0.00     0.309 C 
ENDBRANCH  18  19
ENDBRANCH  17  18
ENDBRANCH  16  17
TORSDOF 3
ENDMDL
