REMARK  18 active torsions:
REMARK  status: ('A' for Active; 'I' for Inactive)
REMARK       I    between atoms: C_2  and  N_1 
REMARK    1  A    between atoms: C_3  and  C_2 
REMARK    2  A    between atoms: N_4  and  C_3 
REMARK       I    between atoms: C_5  and  N_4 
REMARK    3  A    between atoms: C_6  and  C_5 
REMARK    4  A    between atoms: N_7  and  C_6 
REMARK    5  A    between atoms: C_6  and  C_12 
REMARK       I    between atoms: C_8  and  N_7 
REMARK    6  A    between atoms: C_15  and  C_8 
REMARK    7  A    between atoms: C_13  and  C_12 
REMARK       I    between atoms: C_20  and  N_17 
REMARK    8  A    between atoms: C_21  and  C_20 
REMARK    9  A    between atoms: C_24  and  C_31 
REMARK   10  A    between atoms: C_32  and  C_31 
REMARK       I    between atoms: N_34  and  C_32 
REMARK   11  A    between atoms: C_36  and  C_38 
REMARK   12  A    between atoms: C_39  and  C_38 
REMARK   13  A    between atoms: C_40  and  C_39 
REMARK       I    between atoms: N_41  and  C_40 
REMARK   14  A    between atoms: C_45  and  C_44 
REMARK   15  A    between atoms: C_46  and  C_45 
REMARK   16  A    between atoms: C_55  and  C_58 
REMARK   17  A    between atoms: C_60  and  C_58 
REMARK   18  A    between atoms: O_66  and  C_62 
ROOT
HETATM    1  C   UNK N   1       8.724  -8.491   0.783  0.00  0.00     0.186 C 
HETATM    2  N   UNK N   1       8.297  -8.374  -0.594  0.00  0.00    -0.345 N 
HETATM    3  C   UNK N   1       7.795  -9.350  -1.397  0.00  0.00     0.241 C 
HETATM    4  C   UNK N   1       6.972 -10.504  -0.888  0.00  0.00     0.185 C 
HETATM    5  N   UNK N   1       5.646  -9.989  -0.655  0.00  0.00    -0.346 N 
HETATM    6  C   UNK N   1       8.893  -7.079   1.361  0.00  0.00     0.108 C 
HETATM    7  S   UNK N   1       9.916  -6.990   2.881  0.00  0.00    -0.167 SA
HETATM    8  C   UNK N   1      11.049  -5.736   2.190  0.00  0.00     0.074 C 
HETATM    9  O   UNK N   1       7.831  -9.178  -2.604  0.00  0.00    -0.271 OA
HETATM   10  C   UNK N   1       5.336  -9.176   0.381  0.00  0.00     0.241 C 
HETATM   11  C   UNK N   1       4.182  -8.267   0.247  0.00  0.00     0.177 C 
HETATM   12  O   UNK N   1       6.079  -9.062   1.342  0.00  0.00    -0.271 OA
HETATM   13  N   UNK N   1       4.298  -7.596  -1.032  0.00  0.00    -0.346 N 
HETATM   14  C   UNK N   1       5.332  -5.528  -0.028  0.00  0.00     0.180 C 
HETATM   15  C   UNK N   1       4.826  -6.355  -1.203  0.00  0.00     0.241 C 
HETATM   16  N   UNK N   1      10.145  -5.218  -0.587  0.00  0.00    -0.347 N 
HETATM   17  C   UNK N   1      11.422  -4.758  -0.477  0.00  0.00     0.218 C 
HETATM   18  C   UNK N   1      12.500  -5.663   0.049  0.00  0.00     0.103 C 
HETATM   19  C   UNK N   1      12.135  -6.404   1.349  0.00  0.00     0.019 C 
HETATM   20  C   UNK N   1       7.670  -5.175  -1.073  0.00  0.00     0.241 C 
HETATM   21  O   UNK N   1       7.513  -5.900  -2.041  0.00  0.00    -0.271 OA
HETATM   22  C   UNK N   1       8.972  -4.420  -0.896  0.00  0.00     0.180 C 
HETATM   23  N   UNK N   1       6.703  -5.039  -0.126  0.00  0.00    -0.346 N 
HETATM   24  O   UNK N   1       4.834  -5.872  -2.325  0.00  0.00    -0.271 OA
HETATM   25  O   UNK N   1      11.708  -3.607  -0.764  0.00  0.00    -0.274 OA
HETATM   26  H   UNK N   1       8.381  -7.480  -0.999  0.00  0.00     0.163 HD
HETATM   27  H   UNK N   1       4.930 -10.242  -1.282  0.00  0.00     0.163 HD
HETATM   28  H   UNK N   1       3.973  -8.070  -1.831  0.00  0.00     0.163 HD
HETATM   29  H   UNK N   1      10.003  -6.182  -0.443  0.00  0.00     0.163 HD
HETATM   30  H   UNK N   1       6.985  -4.502   0.650  0.00  0.00     0.163 HD
ENDROOT
BRANCH   1  31
HETATM   31  C   UNK N   1      10.050  -9.217   0.773  0.00  0.00     0.244 C 
HETATM   32  N   UNK N   1      10.990  -8.958  -0.196  0.00  0.00    -0.337 N 
HETATM   33  C   UNK N   1      12.245  -9.654  -0.253  0.00  0.00     0.179 C 
HETATM   34  C   UNK N   1      10.805  -7.998  -1.247  0.00  0.00     0.127 C 
HETATM   35  C   UNK N   1      12.940  -9.057  -1.478  0.00  0.00     0.037 C 
HETATM   36  C   UNK N   1      11.935  -8.203  -2.217  0.00  0.00     0.022 C 
HETATM   37  O   UNK N   1      10.254 -10.063   1.624  0.00  0.00    -0.271 OA
BRANCH  33  38
HETATM   38  C   UNK N   1      12.078 -11.143  -0.429  0.00  0.00     0.241 C 
HETATM   39  N   UNK N   1      13.108 -12.014  -0.258  0.00  0.00    -0.346 N 
HETATM   40  H   UNK N   1      12.915 -12.952  -0.487  0.00  0.00     0.163 HD
HETATM   41  O   UNK N   1      10.986 -11.590  -0.747  0.00  0.00    -0.271 OA
BRANCH  39  42
HETATM   42  C   UNK N   1      14.462 -11.749   0.221  0.00  0.00     0.177 C 
BRANCH  42  43
HETATM   43  C   UNK N   1      15.327 -12.942  -0.162  0.00  0.00     0.240 C 
HETATM   44  N   UNK N   1      16.643 -13.014   0.162  0.00  0.00    -0.351 N 
HETATM   45  H   UNK N   1      17.157 -13.802  -0.128  0.00  0.00     0.163 HD
HETATM   46  O   UNK N   1      14.833 -13.859  -0.802  0.00  0.00    -0.271 OA
BRANCH  44  47
HETATM   47  C   UNK N   1      17.320 -11.987   0.912  0.00  0.00     0.225 C 
BRANCH  47  48
HETATM   48  C   UNK N   1      18.208 -11.162   0.025  0.00  0.00     0.233 C 
HETATM   49  N   UNK N   1      18.506 -11.562  -1.228  0.00  0.00    -0.369 N 
HETATM   50  H   UNK N   1      18.361 -11.897  -2.143  0.00  0.00     0.159 HD
HETATM   51  H   UNK N   1      19.484 -11.449  -1.228  0.00  0.00     0.159 HD
HETATM   52  O   UNK N   1      18.633 -10.095   0.434  0.00  0.00    -0.272 OA
ENDBRANCH  47  48
ENDBRANCH  44  47
ENDBRANCH  42  43
BRANCH  42  53
HETATM   53  C   UNK N   1      15.061 -10.480  -0.387  0.00  0.00     0.038 C 
BRANCH  53  54
HETATM   54  C   UNK N   1      15.538  -9.450   0.647  0.00  0.00    -0.020 C 
HETATM   55  C   UNK N   1      15.993  -8.203  -0.083  0.00  0.00     0.009 C 
HETATM   56  C   UNK N   1      14.474  -9.062   1.660  0.00  0.00     0.009 C 
ENDBRANCH  53  54
ENDBRANCH  42  53
ENDBRANCH  39  42
ENDBRANCH  33  38
ENDBRANCH   1  31
BRANCH   4  57
HETATM   57  C   UNK N   1       7.527 -11.361   0.249  0.00  0.00     0.137 C 
BRANCH  57  58
HETATM   58  C   UNK N   1       6.627 -12.521   0.604  0.00  0.00     0.217 C 
HETATM   59  O   UNK N   1       6.942 -13.261   1.519  0.00  0.00    -0.274 OA
HETATM   60  N   UNK N   1       5.475 -12.747  -0.064  0.00  0.00    -0.370 N 
HETATM   61  H   UNK N   1       4.912 -12.103  -0.550  0.00  0.00     0.159 HD
HETATM   62  H   UNK N   1       5.156 -13.679  -0.064  0.00  0.00     0.159 HD
ENDBRANCH  57  58
ENDBRANCH   4  57
BRANCH  11  63
HETATM   63  C   UNK N   1       2.873  -9.013   0.327  0.00  0.00     0.044 C 
BRANCH  63  64
HETATM   64  C   UNK N   1       1.944  -8.211   1.213  0.00  0.00     0.105 C 
BRANCH  64  65
HETATM   65  C   UNK N   1       0.524  -8.549   0.929  0.00  0.00     0.215 C 
HETATM   66  N   UNK N   1      -0.311  -7.594   0.479  0.00  0.00    -0.370 N 
HETATM   67  H   UNK N   1      -0.011  -6.715   0.151  0.00  0.00     0.159 HD
HETATM   68  H   UNK N   1      -1.277  -7.784   0.479  0.00  0.00     0.159 HD
HETATM   69  O   UNK N   1       0.111  -9.682   1.113  0.00  0.00    -0.274 OA
ENDBRANCH  64  65
ENDBRANCH  63  64
ENDBRANCH  11  63
BRANCH  22  70
HETATM   70  C   UNK N   1       9.110  -2.883  -0.975  0.00  0.00     0.073 C 
BRANCH  70  71
HETATM   71  C   UNK N   1       8.179  -2.017  -0.168  0.00  0.00    -0.056 A 
HETATM   72  C   UNK N   1       7.222  -2.548   0.699  0.00  0.00     0.010 A 
HETATM   73  C   UNK N   1       6.266  -1.731   1.298  0.00  0.00     0.037 A 
HETATM   74  C   UNK N   1       6.268  -0.352   1.052  0.00  0.00     0.068 A 
HETATM   75  C   UNK N   1       7.275   0.198   0.252  0.00  0.00     0.037 A 
HETATM   76  C   UNK N   1       8.221  -0.632  -0.362  0.00  0.00     0.010 A 
BRANCH  74  77
HETATM   77  O   UNK N   1       5.296   0.454   1.539  0.00  0.00    -0.356 OA
HETATM   78  C   UNK N   1       4.148  -0.030   2.126  0.00  0.00     0.210 C 
ENDBRANCH  74  77
ENDBRANCH  70  71
ENDBRANCH  22  70
BRANCH  14  79
HETATM   79  C   UNK N   1       4.427  -4.303   0.209  0.00  0.00     0.013 C 
HETATM   80  C   UNK N   1       4.412  -3.308  -0.949  0.00  0.00     0.012 C 
BRANCH  79  81
HETATM   81  C   UNK N   1       3.016  -4.625   0.711  0.00  0.00     0.002 C 
HETATM   82  C   UNK N   1       2.106  -5.182  -0.371  0.00  0.00     0.005 C 
ENDBRANCH  79  81
ENDBRANCH  14  79
TORSDOF 18
