MODEL 1
REMARK VINA RESULT:      -6.5      0.000      0.000
REMARK  13 active torsions:
REMARK  status: ('A' for Active; 'I' for Inactive)
REMARK    1  A    between atoms: C_9  and  O_2 
REMARK    2  A    between atoms: C_16  and  O_3 
REMARK    3  A    between atoms: O_4  and  C_24 
REMARK    4  A    between atoms: C_8  and  C_13 
REMARK    5  A    between atoms: C_14  and  C_17 
REMARK    6  A    between atoms: C_15  and  C_16 
REMARK    7  A    between atoms: C_16  and  C_18 
REMARK    8  A    between atoms: C_17  and  C_19 
REMARK    9  A    between atoms: C_18  and  C_20 
REMARK   10  A    between atoms: C_19  and  C_21 
REMARK   11  A    between atoms: C_20  and  C_22 
REMARK   12  A    between atoms: C_21  and  C_24 
REMARK   13  A    between atoms: C_22  and  C_23 
ROOT
HETATM    1  O   UNK N   1      27.958  18.650   6.735  0.00  0.00    -0.350 OA
HETATM    2  C   UNK N   1      29.845  17.677   7.373  0.00  0.00     0.031 C 
HETATM    3  C   UNK N   1      28.438  17.948   7.807  0.00  0.00     0.136 C 
HETATM    4  C   UNK N   1      30.365  16.871   8.524  0.00  0.00     0.043 C 
HETATM    5  C   UNK N   1      29.872  17.743   9.703  0.00  0.00     0.128 C 
HETATM    6  C   UNK N   1      28.684  18.588   9.157  0.00  0.00     0.065 C 
HETATM    7  C   UNK N   1      29.686  17.228   5.934  0.00  0.00     0.072 C 
HETATM    8  C   UNK N   1      28.611  18.225   5.625  0.00  0.00     0.043 C 
HETATM    9  C   UNK N   1      28.386  18.697   4.401  0.00  0.00     0.005 C 
ENDROOT
BRANCH   4  10
HETATM   10  C   UNK N   1      31.856  16.755   8.479  0.00  0.00    -0.021 C 
HETATM   11  C   UNK N   1      32.598  17.813   8.143  0.00  0.00     0.001 C 
BRANCH  11  12
HETATM   12  C   UNK N   1      34.084  17.738   8.129  0.00  0.00     0.140 C 
BRANCH  12  13
HETATM   13  O   UNK N   1      34.610  19.025   8.254  0.00  0.00    -0.392 OA
HETATM   14  H   UNK N   1      34.074  19.827   8.345  0.00  0.00     0.210 HD
ENDBRANCH  12  13
BRANCH  12  15
HETATM   15  C   UNK N   1      34.543  17.114   6.826  0.00  0.00     0.036 C 
BRANCH  15  16
HETATM   16  C   UNK N   1      33.603  17.469   5.696  0.00  0.00     0.003 C 
BRANCH  16  17
HETATM   17  C   UNK N   1      33.500  16.271   4.781  0.00  0.00    -0.000 C 
BRANCH  17  18
HETATM   18  C   UNK N   1      33.532  14.999   5.594  0.00  0.00    -0.005 C 
HETATM   19  C   UNK N   1      32.133  14.423   5.657  0.00  0.00     0.005 C 
ENDBRANCH  17  18
ENDBRANCH  16  17
ENDBRANCH  15  16
ENDBRANCH  12  15
ENDBRANCH  11  12
ENDBRANCH   4  10
BRANCH   5  20
HETATM   20  O   UNK N   1      29.457  16.929  10.758  0.00  0.00    -0.395 OA
HETATM   21  H   UNK N   1      28.768  16.247  10.776  0.00  0.00     0.210 HD
ENDBRANCH   5  20
BRANCH   9  22
HETATM   22  C   UNK N   1      27.338  19.723   4.155  0.00  0.00     0.030 C 
BRANCH  22  23
HETATM   23  C   UNK N   1      26.073  19.037   3.701  0.00  0.00     0.014 C 
BRANCH  23  24
HETATM   24  C   UNK N   1      24.887  19.911   4.061  0.00  0.00     0.110 C 
BRANCH  24  25
HETATM   25  C   UNK N   1      24.295  20.604   2.871  0.00  0.00     0.139 C 
HETATM   26  O   UNK N   1      24.953  20.787   1.856  0.00  0.00    -0.650 OA
BRANCH  25  27
HETATM   27  O   UNK N   1      23.028  21.045   2.930  0.00  0.00    -0.776 OA
HETATM   28  H   UNK N   1      22.803  21.784   3.460  0.00  0.00     0.167 HD
ENDBRANCH  25  27
ENDBRANCH  24  25
ENDBRANCH  23  24
ENDBRANCH  22  23
ENDBRANCH   9  22
TORSDOF 13
ENDMDL
MODEL 2
REMARK VINA RESULT:      -6.1      1.744      2.031
REMARK  13 active torsions:
REMARK  status: ('A' for Active; 'I' for Inactive)
REMARK    1  A    between atoms: C_9  and  O_2 
REMARK    2  A    between atoms: C_16  and  O_3 
REMARK    3  A    between atoms: O_4  and  C_24 
REMARK    4  A    between atoms: C_8  and  C_13 
REMARK    5  A    between atoms: C_14  and  C_17 
REMARK    6  A    between atoms: C_15  and  C_16 
REMARK    7  A    between atoms: C_16  and  C_18 
REMARK    8  A    between atoms: C_17  and  C_19 
REMARK    9  A    between atoms: C_18  and  C_20 
REMARK   10  A    between atoms: C_19  and  C_21 
REMARK   11  A    between atoms: C_20  and  C_22 
REMARK   12  A    between atoms: C_21  and  C_24 
REMARK   13  A    between atoms: C_22  and  C_23 
ROOT
HETATM    1  O   UNK N   1      27.571  17.992   6.480  0.00  0.00    -0.350 OA
HETATM    2  C   UNK N   1      29.699  17.673   7.015  0.00  0.00     0.031 C 
HETATM    3  C   UNK N   1      28.315  17.683   7.586  0.00  0.00     0.136 C 
HETATM    4  C   UNK N   1      30.516  17.293   8.212  0.00  0.00     0.043 C 
HETATM    5  C   UNK N   1      29.914  18.258   9.261  0.00  0.00     0.128 C 
HETATM    6  C   UNK N   1      28.499  18.646   8.740  0.00  0.00     0.065 C 
HETATM    7  C   UNK N   1      29.539  16.892   5.726  0.00  0.00     0.072 C 
HETATM    8  C   UNK N   1      28.213  17.503   5.390  0.00  0.00     0.043 C 
HETATM    9  C   UNK N   1      27.761  17.624   4.144  0.00  0.00     0.005 C 
ENDROOT
BRANCH   4  10
HETATM   10  C   UNK N   1      31.973  17.536   7.977  0.00  0.00    -0.021 C 
HETATM   11  C   UNK N   1      32.856  16.555   8.182  0.00  0.00     0.001 C 
BRANCH  11  12
HETATM   12  C   UNK N   1      34.306  16.757   7.918  0.00  0.00     0.140 C 
BRANCH  12  13
HETATM   13  O   UNK N   1      34.495  18.004   7.320  0.00  0.00    -0.392 OA
HETATM   14  H   UNK N   1      33.810  18.482   6.828  0.00  0.00     0.210 HD
ENDBRANCH  12  13
BRANCH  12  15
HETATM   15  C   UNK N   1      34.807  15.660   7.000  0.00  0.00     0.036 C 
BRANCH  15  16
HETATM   16  C   UNK N   1      34.600  16.033   5.550  0.00  0.00     0.003 C 
BRANCH  16  17
HETATM   17  C   UNK N   1      33.413  15.255   5.032  0.00  0.00    -0.000 C 
BRANCH  17  18
HETATM   18  C   UNK N   1      32.694  16.055   3.972  0.00  0.00    -0.005 C 
HETATM   19  C   UNK N   1      32.845  17.528   4.285  0.00  0.00     0.005 C 
ENDBRANCH  17  18
ENDBRANCH  16  17
ENDBRANCH  15  16
ENDBRANCH  12  15
ENDBRANCH  11  12
ENDBRANCH   4  10
BRANCH   5  20
HETATM   20  O   UNK N   1      29.828  17.622  10.500  0.00  0.00    -0.395 OA
HETATM   21  H   UNK N   1      30.522  17.446  11.154  0.00  0.00     0.210 HD
ENDBRANCH   5  20
BRANCH   9  22
HETATM   22  C   UNK N   1      26.460  18.283   3.859  0.00  0.00     0.030 C 
BRANCH  22  23
HETATM   23  C   UNK N   1      26.684  19.764   3.682  0.00  0.00     0.014 C 
BRANCH  23  24
HETATM   24  C   UNK N   1      25.796  20.513   4.656  0.00  0.00     0.110 C 
BRANCH  24  25
HETATM   25  C   UNK N   1      26.513  20.905   5.912  0.00  0.00     0.139 C 
HETATM   26  O   UNK N   1      27.556  21.543   5.870  0.00  0.00    -0.650 OA
BRANCH  25  27
HETATM   27  O   UNK N   1      26.009  20.535   7.101  0.00  0.00    -0.776 OA
HETATM   28  H   UNK N   1      25.170  20.121   7.156  0.00  0.00     0.167 HD
ENDBRANCH  25  27
ENDBRANCH  24  25
ENDBRANCH  23  24
ENDBRANCH  22  23
ENDBRANCH   9  22
TORSDOF 13
ENDMDL
MODEL 3
REMARK VINA RESULT:      -6.1      1.804      2.639
REMARK  13 active torsions:
REMARK  status: ('A' for Active; 'I' for Inactive)
REMARK    1  A    between atoms: C_9  and  O_2 
REMARK    2  A    between atoms: C_16  and  O_3 
REMARK    3  A    between atoms: O_4  and  C_24 
REMARK    4  A    between atoms: C_8  and  C_13 
REMARK    5  A    between atoms: C_14  and  C_17 
REMARK    6  A    between atoms: C_15  and  C_16 
REMARK    7  A    between atoms: C_16  and  C_18 
REMARK    8  A    between atoms: C_17  and  C_19 
REMARK    9  A    between atoms: C_18  and  C_20 
REMARK   10  A    between atoms: C_19  and  C_21 
REMARK   11  A    between atoms: C_20  and  C_22 
REMARK   12  A    between atoms: C_21  and  C_24 
REMARK   13  A    between atoms: C_22  and  C_23 
ROOT
HETATM    1  O   UNK N   1      27.787  18.900   6.624  0.00  0.00    -0.350 OA
HETATM    2  C   UNK N   1      29.741  17.916   6.982  0.00  0.00     0.031 C 
HETATM    3  C   UNK N   1      28.377  18.103   7.568  0.00  0.00     0.136 C 
HETATM    4  C   UNK N   1      30.380  17.009   7.989  0.00  0.00     0.043 C 
HETATM    5  C   UNK N   1      29.984  17.741   9.293  0.00  0.00     0.128 C 
HETATM    6  C   UNK N   1      28.736  18.605   8.950  0.00  0.00     0.065 C 
HETATM    7  C   UNK N   1      29.458  17.616   5.524  0.00  0.00     0.072 C 
HETATM    8  C   UNK N   1      28.342  18.610   5.421  0.00  0.00     0.043 C 
HETATM    9  C   UNK N   1      27.995  19.201   4.280  0.00  0.00     0.005 C 
ENDROOT
BRANCH   4  10
HETATM   10  C   UNK N   1      31.862  16.939   7.797  0.00  0.00    -0.021 C 
HETATM   11  C   UNK N   1      32.640  17.932   8.235  0.00  0.00     0.001 C 
BRANCH  11  12
HETATM   12  C   UNK N   1      34.120  17.870   8.094  0.00  0.00     0.140 C 
BRANCH  12  13
HETATM   13  O   UNK N   1      34.460  18.024   6.748  0.00  0.00    -0.392 OA
HETATM   14  H   UNK N   1      33.823  17.999   6.018  0.00  0.00     0.210 HD
ENDBRANCH  12  13
BRANCH  12  15
HETATM   15  C   UNK N   1      34.618  16.532   8.604  0.00  0.00     0.036 C 
BRANCH  15  16
HETATM   16  C   UNK N   1      34.594  16.489  10.115  0.00  0.00     0.003 C 
BRANCH  16  17
HETATM   17  C   UNK N   1      35.973  16.093  10.592  0.00  0.00    -0.000 C 
BRANCH  17  18
HETATM   18  C   UNK N   1      35.872  15.364  11.910  0.00  0.00    -0.005 C 
HETATM   19  C   UNK N   1      34.929  14.191  11.750  0.00  0.00     0.005 C 
ENDBRANCH  17  18
ENDBRANCH  16  17
ENDBRANCH  15  16
ENDBRANCH  12  15
ENDBRANCH  11  12
ENDBRANCH   4  10
BRANCH   5  20
HETATM   20  O   UNK N   1      29.682  16.810  10.289  0.00  0.00    -0.395 OA
HETATM   21  H   UNK N   1      29.313  16.952  11.175  0.00  0.00     0.210 HD
ENDBRANCH   5  20
BRANCH   9  22
HETATM   22  C   UNK N   1      26.912  20.218   4.239  0.00  0.00     0.030 C 
BRANCH  22  23
HETATM   23  C   UNK N   1      25.627  19.555   3.810  0.00  0.00     0.014 C 
BRANCH  23  24
HETATM   24  C   UNK N   1      24.885  20.487   2.872  0.00  0.00     0.110 C 
BRANCH  24  25
HETATM   25  C   UNK N   1      23.396  20.394   3.020  0.00  0.00     0.139 C 
HETATM   26  O   UNK N   1      22.862  19.353   3.376  0.00  0.00    -0.650 OA
BRANCH  25  27
HETATM   27  O   UNK N   1      22.639  21.468   2.742  0.00  0.00    -0.776 OA
HETATM   28  H   UNK N   1      21.836  21.618   3.201  0.00  0.00     0.167 HD
ENDBRANCH  25  27
ENDBRANCH  24  25
ENDBRANCH  23  24
ENDBRANCH  22  23
ENDBRANCH   9  22
TORSDOF 13
ENDMDL
MODEL 4
REMARK VINA RESULT:      -6.0      6.268      9.422
REMARK  13 active torsions:
REMARK  status: ('A' for Active; 'I' for Inactive)
REMARK    1  A    between atoms: C_9  and  O_2 
REMARK    2  A    between atoms: C_16  and  O_3 
REMARK    3  A    between atoms: O_4  and  C_24 
REMARK    4  A    between atoms: C_8  and  C_13 
REMARK    5  A    between atoms: C_14  and  C_17 
REMARK    6  A    between atoms: C_15  and  C_16 
REMARK    7  A    between atoms: C_16  and  C_18 
REMARK    8  A    between atoms: C_17  and  C_19 
REMARK    9  A    between atoms: C_18  and  C_20 
REMARK   10  A    between atoms: C_19  and  C_21 
REMARK   11  A    between atoms: C_20  and  C_22 
REMARK   12  A    between atoms: C_21  and  C_24 
REMARK   13  A    between atoms: C_22  and  C_23 
ROOT
HETATM    1  O   UNK N   1      35.017  14.623   8.946  0.00  0.00    -0.350 OA
HETATM    2  C   UNK N   1      35.517  14.065  11.032  0.00  0.00     0.031 C 
HETATM    3  C   UNK N   1      36.130  14.370   9.701  0.00  0.00     0.136 C 
HETATM    4  C   UNK N   1      36.731  13.828  11.877  0.00  0.00     0.043 C 
HETATM    5  C   UNK N   1      37.524  12.884  10.943  0.00  0.00     0.128 C 
HETATM    6  C   UNK N   1      36.988  13.139   9.503  0.00  0.00     0.065 C 
HETATM    7  C   UNK N   1      34.480  15.158  11.198  0.00  0.00     0.072 C 
HETATM    8  C   UNK N   1      34.060  15.132   9.760  0.00  0.00     0.043 C 
HETATM    9  C   UNK N   1      32.848  15.495   9.348  0.00  0.00     0.005 C 
ENDROOT
BRANCH   4  10
HETATM   10  C   UNK N   1      36.373  13.182  13.177  0.00  0.00    -0.021 C 
HETATM   11  C   UNK N   1      36.136  13.935  14.254  0.00  0.00     0.001 C 
BRANCH  11  12
HETATM   12  C   UNK N   1      35.739  13.321  15.551  0.00  0.00     0.140 C 
BRANCH  12  13
HETATM   13  O   UNK N   1      36.273  14.075  16.598  0.00  0.00    -0.392 OA
HETATM   14  H   UNK N   1      35.786  14.313  17.402  0.00  0.00     0.210 HD
ENDBRANCH  12  13
BRANCH  12  15
HETATM   15  C   UNK N   1      36.263  11.900  15.615  0.00  0.00     0.036 C 
BRANCH  15  16
HETATM   16  C   UNK N   1      35.269  10.988  16.297  0.00  0.00     0.003 C 
BRANCH  16  17
HETATM   17  C   UNK N   1      34.746  10.015  15.267  0.00  0.00    -0.000 C 
BRANCH  17  18
HETATM   18  C   UNK N   1      33.660  10.668  14.447  0.00  0.00    -0.005 C 
HETATM   19  C   UNK N   1      33.931  10.410  12.980  0.00  0.00     0.005 C 
ENDBRANCH  17  18
ENDBRANCH  16  17
ENDBRANCH  15  16
ENDBRANCH  12  15
ENDBRANCH  11  12
ENDBRANCH   4  10
BRANCH   5  20
HETATM   20  O   UNK N   1      38.888  13.171  11.020  0.00  0.00    -0.395 OA
HETATM   21  H   UNK N   1      39.521  12.971  11.726  0.00  0.00     0.210 HD
ENDBRANCH   5  20
BRANCH   9  22
HETATM   22  C   UNK N   1      32.464  15.405   7.915  0.00  0.00     0.030 C 
BRANCH  22  23
HETATM   23  C   UNK N   1      32.126  16.784   7.407  0.00  0.00     0.014 C 
BRANCH  23  24
HETATM   24  C   UNK N   1      32.831  17.811   8.272  0.00  0.00     0.110 C 
BRANCH  24  25
HETATM   25  C   UNK N   1      34.132  18.269   7.687  0.00  0.00     0.139 C 
HETATM   26  O   UNK N   1      34.874  19.017   8.308  0.00  0.00    -0.650 OA
BRANCH  25  27
HETATM   27  O   UNK N   1      34.479  17.863   6.454  0.00  0.00    -0.776 OA
HETATM   28  H   UNK N   1      35.199  17.276   6.330  0.00  0.00     0.167 HD
ENDBRANCH  25  27
ENDBRANCH  24  25
ENDBRANCH  23  24
ENDBRANCH  22  23
ENDBRANCH   9  22
TORSDOF 13
ENDMDL
MODEL 5
REMARK VINA RESULT:      -6.0      8.583     11.575
REMARK  13 active torsions:
REMARK  status: ('A' for Active; 'I' for Inactive)
REMARK    1  A    between atoms: C_9  and  O_2 
REMARK    2  A    between atoms: C_16  and  O_3 
REMARK    3  A    between atoms: O_4  and  C_24 
REMARK    4  A    between atoms: C_8  and  C_13 
REMARK    5  A    between atoms: C_14  and  C_17 
REMARK    6  A    between atoms: C_15  and  C_16 
REMARK    7  A    between atoms: C_16  and  C_18 
REMARK    8  A    between atoms: C_17  and  C_19 
REMARK    9  A    between atoms: C_18  and  C_20 
REMARK   10  A    between atoms: C_19  and  C_21 
REMARK   11  A    between atoms: C_20  and  C_22 
REMARK   12  A    between atoms: C_21  and  C_24 
REMARK   13  A    between atoms: C_22  and  C_23 
ROOT
HETATM    1  O   UNK N   1      35.560  13.084  11.441  0.00  0.00    -0.350 OA
HETATM    2  C   UNK N   1      35.888  13.422  13.607  0.00  0.00     0.031 C 
HETATM    3  C   UNK N   1      36.288  12.542  12.465  0.00  0.00     0.136 C 
HETATM    4  C   UNK N   1      36.714  12.861  14.724  0.00  0.00     0.043 C 
HETATM    5  C   UNK N   1      36.436  11.352  14.528  0.00  0.00     0.128 C 
HETATM    6  C   UNK N   1      35.985  11.177  13.048  0.00  0.00     0.065 C 
HETATM    7  C   UNK N   1      35.965  14.816  13.018  0.00  0.00     0.072 C 
HETATM    8  C   UNK N   1      35.399  14.407  11.692  0.00  0.00     0.043 C 
HETATM    9  C   UNK N   1      34.739  15.242  10.892  0.00  0.00     0.005 C 
ENDROOT
BRANCH   4  10
HETATM   10  C   UNK N   1      36.248  13.363  16.053  0.00  0.00    -0.021 C 
HETATM   11  C   UNK N   1      35.438  12.612  16.804  0.00  0.00     0.001 C 
BRANCH  11  12
HETATM   12  C   UNK N   1      34.990  13.069  18.148  0.00  0.00     0.140 C 
BRANCH  12  13
HETATM   13  O   UNK N   1      35.636  14.266  18.465  0.00  0.00    -0.392 OA
HETATM   14  H   UNK N   1      35.710  15.022  17.863  0.00  0.00     0.210 HD
ENDBRANCH  12  13
BRANCH  12  15
HETATM   15  C   UNK N   1      35.328  12.009  19.177  0.00  0.00     0.036 C 
BRANCH  15  16
HETATM   16  C   UNK N   1      36.112  10.878  18.550  0.00  0.00     0.003 C 
BRANCH  16  17
HETATM   17  C   UNK N   1      35.573   9.577  19.098  0.00  0.00    -0.000 C 
BRANCH  17  18
HETATM   18  C   UNK N   1      34.187   9.325  18.556  0.00  0.00    -0.005 C 
HETATM   19  C   UNK N   1      33.517   8.261  19.398  0.00  0.00     0.005 C 
ENDBRANCH  17  18
ENDBRANCH  16  17
ENDBRANCH  15  16
ENDBRANCH  12  15
ENDBRANCH  11  12
ENDBRANCH   4  10
BRANCH   5  20
HETATM   20  O   UNK N   1      37.594  10.616  14.782  0.00  0.00    -0.395 OA
HETATM   21  H   UNK N   1      38.180  10.155  14.162  0.00  0.00     0.210 HD
ENDBRANCH   5  20
BRANCH   9  22
HETATM   22  C   UNK N   1      34.154  14.774   9.608  0.00  0.00     0.030 C 
BRANCH  22  23
HETATM   23  C   UNK N   1      34.490  15.766   8.522  0.00  0.00     0.014 C 
BRANCH  23  24
HETATM   24  C   UNK N   1      34.145  17.160   9.009  0.00  0.00     0.110 C 
BRANCH  24  25
HETATM   25  C   UNK N   1      34.627  18.235   8.083  0.00  0.00     0.139 C 
HETATM   26  O   UNK N   1      34.411  18.175   6.881  0.00  0.00    -0.650 OA
BRANCH  25  27
HETATM   27  O   UNK N   1      35.322  19.271   8.582  0.00  0.00    -0.776 OA
HETATM   28  H   UNK N   1      35.845  19.810   8.022  0.00  0.00     0.167 HD
ENDBRANCH  25  27
ENDBRANCH  24  25
ENDBRANCH  23  24
ENDBRANCH  22  23
ENDBRANCH   9  22
TORSDOF 13
ENDMDL
MODEL 6
REMARK VINA RESULT:      -5.8     11.284     15.192
REMARK  13 active torsions:
REMARK  status: ('A' for Active; 'I' for Inactive)
REMARK    1  A    between atoms: C_9  and  O_2 
REMARK    2  A    between atoms: C_16  and  O_3 
REMARK    3  A    between atoms: O_4  and  C_24 
REMARK    4  A    between atoms: C_8  and  C_13 
REMARK    5  A    between atoms: C_14  and  C_17 
REMARK    6  A    between atoms: C_15  and  C_16 
REMARK    7  A    between atoms: C_16  and  C_18 
REMARK    8  A    between atoms: C_17  and  C_19 
REMARK    9  A    between atoms: C_18  and  C_20 
REMARK   10  A    between atoms: C_19  and  C_21 
REMARK   11  A    between atoms: C_20  and  C_22 
REMARK   12  A    between atoms: C_21  and  C_24 
REMARK   13  A    between atoms: C_22  and  C_23 
ROOT
HETATM    1  O   UNK N   1      34.932  11.109  19.768  0.00  0.00    -0.350 OA
HETATM    2  C   UNK N   1      35.146  11.970  17.737  0.00  0.00     0.031 C 
HETATM    3  C   UNK N   1      35.474  12.217  19.176  0.00  0.00     0.136 C 
HETATM    4  C   UNK N   1      35.774  13.158  17.076  0.00  0.00     0.043 C 
HETATM    5  C   UNK N   1      35.254  14.283  18.003  0.00  0.00     0.128 C 
HETATM    6  C   UNK N   1      34.896  13.604  19.357  0.00  0.00     0.065 C 
HETATM    7  C   UNK N   1      35.508  10.511  17.541  0.00  0.00     0.072 C 
HETATM    8  C   UNK N   1      34.984  10.086  18.879  0.00  0.00     0.043 C 
HETATM    9  C   UNK N   1      34.542   8.856  19.132  0.00  0.00     0.005 C 
ENDROOT
BRANCH   4  10
HETATM   10  C   UNK N   1      35.300  13.312  15.665  0.00  0.00    -0.021 C 
HETATM   11  C   UNK N   1      36.171  13.604  14.696  0.00  0.00     0.001 C 
BRANCH  11  12
HETATM   12  C   UNK N   1      35.734  13.723  13.278  0.00  0.00     0.140 C 
BRANCH  12  13
HETATM   13  O   UNK N   1      34.437  13.221  13.154  0.00  0.00    -0.392 OA
HETATM   14  H   UNK N   1      33.677  13.543  13.660  0.00  0.00     0.210 HD
ENDBRANCH  12  13
BRANCH  12  15
HETATM   15  C   UNK N   1      36.682  12.937  12.393  0.00  0.00     0.036 C 
BRANCH  15  16
HETATM   16  C   UNK N   1      37.310  11.793  13.156  0.00  0.00     0.003 C 
BRANCH  16  17
HETATM   17  C   UNK N   1      36.597  10.521  12.760  0.00  0.00    -0.000 C 
BRANCH  17  18
HETATM   18  C   UNK N   1      36.049   9.835  13.988  0.00  0.00    -0.005 C 
HETATM   19  C   UNK N   1      34.540   9.937  13.975  0.00  0.00     0.005 C 
ENDBRANCH  17  18
ENDBRANCH  16  17
ENDBRANCH  15  16
ENDBRANCH  12  15
ENDBRANCH  11  12
ENDBRANCH   4  10
BRANCH   5  20
HETATM   20  O   UNK N   1      36.245  15.250  18.181  0.00  0.00    -0.395 OA
HETATM   21  H   UNK N   1      36.378  15.868  18.917  0.00  0.00     0.210 HD
ENDBRANCH   5  20
BRANCH   9  22
HETATM   22  C   UNK N   1      33.987   8.498  20.463  0.00  0.00     0.030 C 
BRANCH  22  23
HETATM   23  C   UNK N   1      32.489   8.356  20.351  0.00  0.00     0.014 C 
BRANCH  23  24
HETATM   24  C   UNK N   1      31.836   9.616  20.883  0.00  0.00     0.110 C 
BRANCH  24  25
HETATM   25  C   UNK N   1      32.479  10.116  22.141  0.00  0.00     0.139 C 
HETATM   26  O   UNK N   1      32.382   9.493  23.190  0.00  0.00    -0.650 OA
BRANCH  25  27
HETATM   27  O   UNK N   1      33.158  11.275  22.118  0.00  0.00    -0.776 OA
HETATM   28  H   UNK N   1      32.772  12.048  21.756  0.00  0.00     0.167 HD
ENDBRANCH  25  27
ENDBRANCH  24  25
ENDBRANCH  23  24
ENDBRANCH  22  23
ENDBRANCH   9  22
TORSDOF 13
ENDMDL
MODEL 7
REMARK VINA RESULT:      -5.8      2.271      3.335
REMARK  13 active torsions:
REMARK  status: ('A' for Active; 'I' for Inactive)
REMARK    1  A    between atoms: C_9  and  O_2 
REMARK    2  A    between atoms: C_16  and  O_3 
REMARK    3  A    between atoms: O_4  and  C_24 
REMARK    4  A    between atoms: C_8  and  C_13 
REMARK    5  A    between atoms: C_14  and  C_17 
REMARK    6  A    between atoms: C_15  and  C_16 
REMARK    7  A    between atoms: C_16  and  C_18 
REMARK    8  A    between atoms: C_17  and  C_19 
REMARK    9  A    between atoms: C_18  and  C_20 
REMARK   10  A    between atoms: C_19  and  C_21 
REMARK   11  A    between atoms: C_20  and  C_22 
REMARK   12  A    between atoms: C_21  and  C_24 
REMARK   13  A    between atoms: C_22  and  C_23 
ROOT
HETATM    1  O   UNK N   1      27.540  17.546   6.594  0.00  0.00    -0.350 OA
HETATM    2  C   UNK N   1      29.614  17.593   7.374  0.00  0.00     0.031 C 
HETATM    3  C   UNK N   1      28.224  17.156   7.713  0.00  0.00     0.136 C 
HETATM    4  C   UNK N   1      30.378  17.130   8.577  0.00  0.00     0.043 C 
HETATM    5  C   UNK N   1      29.450  17.655   9.698  0.00  0.00     0.128 C 
HETATM    6  C   UNK N   1      28.042  17.829   9.057  0.00  0.00     0.065 C 
HETATM    7  C   UNK N   1      29.787  17.130   5.942  0.00  0.00     0.072 C 
HETATM    8  C   UNK N   1      28.390  17.491   5.539  0.00  0.00     0.043 C 
HETATM    9  C   UNK N   1      28.048  17.803   4.291  0.00  0.00     0.005 C 
ENDROOT
BRANCH   4  10
HETATM   10  C   UNK N   1      31.742  17.743   8.626  0.00  0.00    -0.021 C 
HETATM   11  C   UNK N   1      32.821  16.989   8.400  0.00  0.00     0.001 C 
BRANCH  11  12
HETATM   12  C   UNK N   1      34.187  17.580   8.403  0.00  0.00     0.140 C 
BRANCH  12  13
HETATM   13  O   UNK N   1      34.569  17.861   7.090  0.00  0.00    -0.392 OA
HETATM   14  H   UNK N   1      34.933  18.710   6.798  0.00  0.00     0.210 HD
ENDBRANCH  12  13
BRANCH  12  15
HETATM   15  C   UNK N   1      35.158  16.597   9.027  0.00  0.00     0.036 C 
BRANCH  15  16
HETATM   16  C   UNK N   1      35.172  16.732  10.532  0.00  0.00     0.003 C 
BRANCH  16  17
HETATM   17  C   UNK N   1      34.903  15.369  11.126  0.00  0.00    -0.000 C 
BRANCH  17  18
HETATM   18  C   UNK N   1      35.955  15.040  12.158  0.00  0.00    -0.005 C 
HETATM   19  C   UNK N   1      35.488  13.855  12.974  0.00  0.00     0.005 C 
ENDBRANCH  17  18
ENDBRANCH  16  17
ENDBRANCH  15  16
ENDBRANCH  12  15
ENDBRANCH  11  12
ENDBRANCH   4  10
BRANCH   5  20
HETATM   20  O   UNK N   1      29.404  16.737  10.748  0.00  0.00    -0.395 OA
HETATM   21  H   UNK N   1      30.112  16.444  11.343  0.00  0.00     0.210 HD
ENDBRANCH   5  20
BRANCH   9  22
HETATM   22  C   UNK N   1      26.658  18.202   3.951  0.00  0.00     0.030 C 
BRANCH  22  23
HETATM   23  C   UNK N   1      26.606  19.698   3.761  0.00  0.00     0.014 C 
BRANCH  23  24
HETATM   24  C   UNK N   1      27.623  20.344   4.681  0.00  0.00     0.110 C 
BRANCH  24  25
HETATM   25  C   UNK N   1      27.001  20.944   5.905  0.00  0.00     0.139 C 
HETATM   26  O   UNK N   1      27.105  22.139   6.144  0.00  0.00    -0.650 OA
BRANCH  25  27
HETATM   27  O   UNK N   1      26.333  20.151   6.759  0.00  0.00    -0.776 OA
HETATM   28  H   UNK N   1      25.511  20.422   7.119  0.00  0.00     0.167 HD
ENDBRANCH  25  27
ENDBRANCH  24  25
ENDBRANCH  23  24
ENDBRANCH  22  23
ENDBRANCH   9  22
TORSDOF 13
ENDMDL
MODEL 8
REMARK VINA RESULT:      -5.8      6.678      9.922
REMARK  13 active torsions:
REMARK  status: ('A' for Active; 'I' for Inactive)
REMARK    1  A    between atoms: C_9  and  O_2 
REMARK    2  A    between atoms: C_16  and  O_3 
REMARK    3  A    between atoms: O_4  and  C_24 
REMARK    4  A    between atoms: C_8  and  C_13 
REMARK    5  A    between atoms: C_14  and  C_17 
REMARK    6  A    between atoms: C_15  and  C_16 
REMARK    7  A    between atoms: C_16  and  C_18 
REMARK    8  A    between atoms: C_17  and  C_19 
REMARK    9  A    between atoms: C_18  and  C_20 
REMARK   10  A    between atoms: C_19  and  C_21 
REMARK   11  A    between atoms: C_20  and  C_22 
REMARK   12  A    between atoms: C_21  and  C_24 
REMARK   13  A    between atoms: C_22  and  C_23 
ROOT
HETATM    1  O   UNK N   1      35.081  14.718   8.985  0.00  0.00    -0.350 OA
HETATM    2  C   UNK N   1      35.517  13.887  10.993  0.00  0.00     0.031 C 
HETATM    3  C   UNK N   1      36.171  14.429   9.761  0.00  0.00     0.136 C 
HETATM    4  C   UNK N   1      36.703  13.608  11.866  0.00  0.00     0.043 C 
HETATM    5  C   UNK N   1      37.609  12.870  10.852  0.00  0.00     0.128 C 
HETATM    6  C   UNK N   1      37.127  13.301   9.436  0.00  0.00     0.065 C 
HETATM    7  C   UNK N   1      34.396  14.872  11.256  0.00  0.00     0.072 C 
HETATM    8  C   UNK N   1      34.050  15.035   9.807  0.00  0.00     0.043 C 
HETATM    9  C   UNK N   1      32.835  15.373   9.381  0.00  0.00     0.005 C 
ENDROOT
BRANCH   4  10
HETATM   10  C   UNK N   1      36.332  12.751  13.034  0.00  0.00    -0.021 C 
HETATM   11  C   UNK N   1      36.458  11.424  12.956  0.00  0.00     0.001 C 
BRANCH  11  12
HETATM   12  C   UNK N   1      36.133  10.550  14.116  0.00  0.00     0.140 C 
BRANCH  12  13
HETATM   13  O   UNK N   1      34.780  10.209  14.070  0.00  0.00    -0.392 OA
HETATM   14  H   UNK N   1      34.347   9.612  14.698  0.00  0.00     0.210 HD
ENDBRANCH  12  13
BRANCH  12  15
HETATM   15  C   UNK N   1      36.438  11.291  15.403  0.00  0.00     0.036 C 
BRANCH  15  16
HETATM   16  C   UNK N   1      35.862  10.562  16.595  0.00  0.00     0.003 C 
BRANCH  16  17
HETATM   17  C   UNK N   1      35.385  11.596  17.589  0.00  0.00    -0.000 C 
BRANCH  17  18
HETATM   18  C   UNK N   1      35.271  12.943  16.916  0.00  0.00    -0.005 C 
HETATM   19  C   UNK N   1      35.245  14.021  17.978  0.00  0.00     0.005 C 
ENDBRANCH  17  18
ENDBRANCH  16  17
ENDBRANCH  15  16
ENDBRANCH  12  15
ENDBRANCH  11  12
ENDBRANCH   4  10
BRANCH   5  20
HETATM   20  O   UNK N   1      38.943  13.232  11.051  0.00  0.00    -0.395 OA
HETATM   21  H   UNK N   1      39.373  13.590  11.843  0.00  0.00     0.210 HD
ENDBRANCH   5  20
BRANCH   9  22
HETATM   22  C   UNK N   1      32.530  15.474   7.930  0.00  0.00     0.030 C 
BRANCH  22  23
HETATM   23  C   UNK N   1      32.082  16.880   7.616  0.00  0.00     0.014 C 
BRANCH  23  24
HETATM   24  C   UNK N   1      32.895  17.851   8.450  0.00  0.00     0.110 C 
BRANCH  24  25
HETATM   25  C   UNK N   1      34.159  18.283   7.771  0.00  0.00     0.139 C 
HETATM   26  O   UNK N   1      34.982  18.976   8.353  0.00  0.00    -0.650 OA
BRANCH  25  27
HETATM   27  O   UNK N   1      34.381  17.915   6.499  0.00  0.00    -0.776 OA
HETATM   28  H   UNK N   1      35.246  17.699   6.208  0.00  0.00     0.167 HD
ENDBRANCH  25  27
ENDBRANCH  24  25
ENDBRANCH  23  24
ENDBRANCH  22  23
ENDBRANCH   9  22
TORSDOF 13
ENDMDL
MODEL 9
REMARK VINA RESULT:      -5.7      2.859      8.825
REMARK  13 active torsions:
REMARK  status: ('A' for Active; 'I' for Inactive)
REMARK    1  A    between atoms: C_9  and  O_2 
REMARK    2  A    between atoms: C_16  and  O_3 
REMARK    3  A    between atoms: O_4  and  C_24 
REMARK    4  A    between atoms: C_8  and  C_13 
REMARK    5  A    between atoms: C_14  and  C_17 
REMARK    6  A    between atoms: C_15  and  C_16 
REMARK    7  A    between atoms: C_16  and  C_18 
REMARK    8  A    between atoms: C_17  and  C_19 
REMARK    9  A    between atoms: C_18  and  C_20 
REMARK   10  A    between atoms: C_19  and  C_21 
REMARK   11  A    between atoms: C_20  and  C_22 
REMARK   12  A    between atoms: C_21  and  C_24 
REMARK   13  A    between atoms: C_22  and  C_23 
ROOT
HETATM    1  O   UNK N   1      28.193  18.654   4.624  0.00  0.00    -0.350 OA
HETATM    2  C   UNK N   1      25.986  18.500   4.486  0.00  0.00     0.031 C 
HETATM    3  C   UNK N   1      27.186  19.071   3.797  0.00  0.00     0.136 C 
HETATM    4  C   UNK N   1      24.882  18.916   3.563  0.00  0.00     0.043 C 
HETATM    5  C   UNK N   1      25.256  20.402   3.354  0.00  0.00     0.128 C 
HETATM    6  C   UNK N   1      26.774  20.523   3.681  0.00  0.00     0.065 C 
HETATM    7  C   UNK N   1      26.417  17.088   4.826  0.00  0.00     0.072 C 
HETATM    8  C   UNK N   1      27.815  17.484   5.194  0.00  0.00     0.043 C 
HETATM    9  C   UNK N   1      28.564  16.797   6.054  0.00  0.00     0.005 C 
ENDROOT
BRANCH   4  10
HETATM   10  C   UNK N   1      23.542  18.746   4.205  0.00  0.00    -0.021 C 
HETATM   11  C   UNK N   1      22.443  19.182   3.583  0.00  0.00     0.001 C 
BRANCH  11  12
HETATM   12  C   UNK N   1      21.093  18.991   4.179  0.00  0.00     0.140 C 
BRANCH  12  13
HETATM   13  O   UNK N   1      21.158  19.238   5.552  0.00  0.00    -0.392 OA
HETATM   14  H   UNK N   1      21.543  20.036   5.944  0.00  0.00     0.210 HD
ENDBRANCH  12  13
BRANCH  12  15
HETATM   15  C   UNK N   1      20.631  17.569   3.930  0.00  0.00     0.036 C 
BRANCH  15  16
HETATM   16  C   UNK N   1      20.510  16.805   5.229  0.00  0.00     0.003 C 
BRANCH  16  17
HETATM   17  C   UNK N   1      21.634  15.795   5.283  0.00  0.00    -0.000 C 
BRANCH  17  18
HETATM   18  C   UNK N   1      22.436  15.986   6.548  0.00  0.00    -0.005 C 
HETATM   19  C   UNK N   1      23.704  15.164   6.452  0.00  0.00     0.005 C 
ENDBRANCH  17  18
ENDBRANCH  16  17
ENDBRANCH  15  16
ENDBRANCH  12  15
ENDBRANCH  11  12
ENDBRANCH   4  10
BRANCH   5  20
HETATM   20  O   UNK N   1      25.004  20.777   2.034  0.00  0.00    -0.395 OA
HETATM   21  H   UNK N   1      25.275  20.348   1.208  0.00  0.00     0.210 HD
ENDBRANCH   5  20
BRANCH   9  22
HETATM   22  C   UNK N   1      29.928  17.259   6.424  0.00  0.00     0.030 C 
BRANCH  22  23
HETATM   23  C   UNK N   1      30.146  17.026   7.898  0.00  0.00     0.014 C 
BRANCH  23  24
HETATM   24  C   UNK N   1      29.664  18.244   8.663  0.00  0.00     0.110 C 
BRANCH  24  25
HETATM   25  C   UNK N   1      28.219  18.154   9.048  0.00  0.00     0.139 C 
HETATM   26  O   UNK N   1      27.788  17.186   9.659  0.00  0.00    -0.650 OA
BRANCH  25  27
HETATM   27  O   UNK N   1      27.383  19.146   8.701  0.00  0.00    -0.776 OA
HETATM   28  H   UNK N   1      27.714  19.949   8.348  0.00  0.00     0.167 HD
ENDBRANCH  25  27
ENDBRANCH  24  25
ENDBRANCH  23  24
ENDBRANCH  22  23
ENDBRANCH   9  22
TORSDOF 13
ENDMDL
