REMARK  13 active torsions:
REMARK  status: ('A' for Active; 'I' for Inactive)
REMARK    1  A    between atoms: C_9  and  O_2 
REMARK    2  A    between atoms: C_16  and  O_3 
REMARK    3  A    between atoms: O_4  and  C_24 
REMARK    4  A    between atoms: C_8  and  C_13 
REMARK    5  A    between atoms: C_14  and  C_17 
REMARK    6  A    between atoms: C_15  and  C_16 
REMARK    7  A    between atoms: C_16  and  C_18 
REMARK    8  A    between atoms: C_17  and  C_19 
REMARK    9  A    between atoms: C_18  and  C_20 
REMARK   10  A    between atoms: C_19  and  C_21 
REMARK   11  A    between atoms: C_20  and  C_22 
REMARK   12  A    between atoms: C_21  and  C_24 
REMARK   13  A    between atoms: C_22  and  C_23 
ROOT
HETATM    1  O   UNK N   1       7.788  -2.776  -0.212  0.00  0.00    -0.350 OA
HETATM    2  C   UNK N   1       6.232  -1.202  -0.092  0.00  0.00     0.031 C 
HETATM    3  C   UNK N   1       6.458  -2.670   0.092  0.00  0.00     0.136 C 
HETATM    4  C   UNK N   1       4.787  -1.070   0.281  0.00  0.00     0.043 C 
HETATM    5  C   UNK N   1       4.195  -2.245  -0.533  0.00  0.00     0.128 C 
HETATM    6  C   UNK N   1       5.370  -3.231  -0.799  0.00  0.00     0.065 C 
HETATM    7  C   UNK N   1       7.422  -0.575   0.606  0.00  0.00     0.072 C 
HETATM    8  C   UNK N   1       8.392  -1.609   0.122  0.00  0.00     0.043 C 
HETATM    9  C   UNK N   1       9.692  -1.371  -0.038  0.00  0.00     0.005 C 
ENDROOT
BRANCH   4  10
HETATM   10  C   UNK N   1       4.234   0.255  -0.138  0.00  0.00    -0.021 C 
HETATM   11  C   UNK N   1       4.792   1.383   0.309  0.00  0.00     0.001 C 
BRANCH  11  12
HETATM   12  C   UNK N   1       4.288   2.715  -0.123  0.00  0.00     0.140 C 
BRANCH  12  13
HETATM   13  O   UNK N   1       5.134   3.709   0.373  0.00  0.00    -0.392 OA
HETATM   14  H   UNK N   1       6.025   3.545   0.717  0.00  0.00     0.210 HD
ENDBRANCH  12  13
BRANCH  12  15
HETATM   15  C   UNK N   1       2.883   2.917   0.409  0.00  0.00     0.036 C 
BRANCH  15  16
HETATM   16  C   UNK N   1       2.256   4.160  -0.180  0.00  0.00     0.003 C 
BRANCH  16  17
HETATM   17  C   UNK N   1       0.789   4.159   0.182  0.00  0.00    -0.000 C 
BRANCH  17  18
HETATM   18  C   UNK N   1       0.140   5.436  -0.296  0.00  0.00    -0.005 C 
HETATM   19  C   UNK N   1      -1.333   5.396   0.049  0.00  0.00     0.005 C 
ENDBRANCH  17  18
ENDBRANCH  16  17
ENDBRANCH  15  16
ENDBRANCH  12  15
ENDBRANCH  11  12
ENDBRANCH   4  10
BRANCH   5  20
HETATM   20  O   UNK N   1       3.182  -2.869   0.197  0.00  0.00    -0.395 OA
HETATM   21  H   UNK N   1       2.455  -2.476   0.704  0.00  0.00     0.210 HD
ENDBRANCH   5  20
BRANCH   9  22
HETATM   22  C   UNK N   1      10.605  -2.417  -0.568  0.00  0.00     0.030 C 
BRANCH  22  23
HETATM   23  C   UNK N   1      11.830  -2.494   0.309  0.00  0.00     0.014 C 
BRANCH  23  24
HETATM   24  C   UNK N   1      12.571  -3.781   0.003  0.00  0.00     0.110 C 
BRANCH  24  25
HETATM   25  C   UNK N   1      14.060  -3.614   0.029  0.00  0.00     0.139 C 
HETATM   26  O   UNK N   1      14.568  -2.514   0.198  0.00  0.00    -0.650 OA
BRANCH  25  27
HETATM   27  O   UNK N   1      14.846  -4.688  -0.152  0.00  0.00    -0.776 OA
HETATM   28  H   UNK N   1      14.472  -5.538  -0.278  0.00  0.00     0.167 HD
ENDBRANCH  25  27
ENDBRANCH  24  25
ENDBRANCH  23  24
ENDBRANCH  22  23
ENDBRANCH   9  22
TORSDOF 13
