MODEL 1
REMARK VINA RESULT:      -8.3      0.000      0.000
REMARK  6 active torsions:
REMARK  status: ('A' for Active; 'I' for Inactive)
REMARK    1  A    between atoms: C_3  and  O_9 
REMARK    2  A    between atoms: C_8  and  N_13 
REMARK    3  A    between atoms: O_9  and  C_14 
REMARK    4  A    between atoms: C_28  and  N_31 
REMARK    5  A    between atoms: C_30  and  O_32 
REMARK    6  A    between atoms: O_32  and  C_35 
ROOT
HETATM    1  C   UNK N   1      35.089  14.268   9.710  0.00  0.00    -0.011 C 
HETATM    2  C   UNK N   1      34.135  13.096   9.986  0.00  0.00     0.003 C 
HETATM    3  C   UNK N   1      34.362  15.126   8.684  0.00  0.00     0.171 C 
HETATM    4  C   UNK N   1      35.454  14.915  11.044  0.00  0.00     0.012 C 
HETATM    5  C   UNK N   1      36.372  13.837   8.987  0.00  0.00     0.018 C 
HETATM    6  C   UNK N   1      34.888  11.984  10.757  0.00  0.00    -0.005 C 
HETATM    7  C   UNK N   1      33.592  12.791   8.599  0.00  0.00     0.042 C 
HETATM    8  C   UNK N   1      33.271  14.215   8.082  0.00  0.00     0.220 C 
HETATM    9  C   UNK N   1      36.217  13.894  11.889  0.00  0.00     0.007 C 
HETATM   10  C   UNK N   1      35.438  12.572  12.091  0.00  0.00    -0.002 C 
HETATM   11  C   UNK N   1      34.031  10.757  11.091  0.00  0.00     0.006 C 
HETATM   12  C   UNK N   1      36.360  11.528  12.783  0.00  0.00    -0.034 C 
HETATM   13  C   UNK N   1      34.889   9.688  11.795  0.00  0.00     0.006 C 
HETATM   14  C   UNK N   1      35.587  10.207  13.070  0.00  0.00    -0.004 C 
HETATM   15  C   UNK N   1      36.927  12.106  14.078  0.00  0.00     0.048 C 
HETATM   16  C   UNK N   1      37.568  11.218  11.895  0.00  0.00     0.016 C 
HETATM   17  C   UNK N   1      34.566  10.375  14.212  0.00  0.00     0.040 C 
HETATM   18  C   UNK N   1      35.818  12.307  15.121  0.00  0.00     0.253 C 
HETATM   19  C   UNK N   1      35.208  10.954  15.493  0.00  0.00     0.165 C 
ENDROOT
BRANCH   8  20
HETATM   20  N   UNK N   1      33.159  14.337   6.611  0.00  0.00    -0.064 N 
HETATM   21  C   UNK N   1      32.083  15.299   6.296  0.00  0.00     0.237 C 
HETATM   22  C   UNK N   1      32.257  16.059   4.968  0.00  0.00     0.028 C 
HETATM   23  C   UNK N   1      33.103  15.274   3.978  0.00  0.00     0.003 C 
HETATM   24  C   UNK N   1      34.485  14.993   4.561  0.00  0.00     0.028 C 
HETATM   25  C   UNK N   1      34.458  14.808   6.089  0.00  0.00     0.237 C 
HETATM   26  C   UNK N   1      32.824  13.035   6.028  0.00  0.00     0.273 C 
ENDBRANCH   8  20
BRANCH   3  27
HETATM   27  O   UNK N   1      33.867  16.326   9.151  0.00  0.00    -0.313 OA
BRANCH  27  28
HETATM   28  C   UNK N   1      34.404  17.520   8.778  0.00  0.00     0.255 C 
HETATM   29  C   UNK N   1      33.901  18.274   7.582  0.00  0.00     0.126 C 
HETATM   30  O   UNK N   1      35.313  17.999   9.435  0.00  0.00    -0.266 OA
ENDBRANCH  27  28
ENDBRANCH   3  27
BRANCH  18  31
HETATM   31  N   UNK N   1      36.239  13.127  16.267  0.00  0.00     0.095 N 
HETATM   32  C   UNK N   1      35.025  13.363  17.061  0.00  0.00     0.273 C 
HETATM   33  C   UNK N   1      35.314  14.231  18.279  0.00  0.00     0.030 C 
HETATM   34  C   UNK N   1      35.882  15.563  17.815  0.00  0.00     0.003 C 
HETATM   35  C   UNK N   1      37.142  15.313  16.999  0.00  0.00     0.030 C 
HETATM   36  C   UNK N   1      36.813  14.407  15.817  0.00  0.00     0.273 C 
ENDBRANCH  18  31
BRANCH  19  37
HETATM   37  O   UNK N   1      36.201  10.128  15.997  0.00  0.00    -0.314 OA
BRANCH  37  38
HETATM   38  C   UNK N   1      36.204   9.579  17.236  0.00  0.00     0.255 C 
HETATM   39  C   UNK N   1      35.060   9.843  18.152  0.00  0.00     0.126 C 
HETATM   40  O   UNK N   1      37.132   8.879  17.613  0.00  0.00    -0.266 OA
ENDBRANCH  37  38
ENDBRANCH  19  37
TORSDOF 6
ENDMDL
MODEL 2
REMARK VINA RESULT:      -7.7      2.086      2.994
REMARK  6 active torsions:
REMARK  status: ('A' for Active; 'I' for Inactive)
REMARK    1  A    between atoms: C_3  and  O_9 
REMARK    2  A    between atoms: C_8  and  N_13 
REMARK    3  A    between atoms: O_9  and  C_14 
REMARK    4  A    between atoms: C_28  and  N_31 
REMARK    5  A    between atoms: C_30  and  O_32 
REMARK    6  A    between atoms: O_32  and  C_35 
ROOT
HETATM    1  C   UNK N   1      33.747  15.199   8.751  0.00  0.00    -0.011 C 
HETATM    2  C   UNK N   1      33.721  13.730   8.304  0.00  0.00     0.003 C 
HETATM    3  C   UNK N   1      32.522  15.825   8.100  0.00  0.00     0.171 C 
HETATM    4  C   UNK N   1      33.836  15.237  10.275  0.00  0.00     0.012 C 
HETATM    5  C   UNK N   1      34.923  15.985   8.155  0.00  0.00     0.018 C 
HETATM    6  C   UNK N   1      35.082  13.065   8.623  0.00  0.00    -0.005 C 
HETATM    7  C   UNK N   1      33.281  13.845   6.853  0.00  0.00     0.042 C 
HETATM    8  C   UNK N   1      32.112  14.855   6.972  0.00  0.00     0.220 C 
HETATM    9  C   UNK N   1      35.161  14.604  10.702  0.00  0.00     0.007 C 
HETATM   10  C   UNK N   1      35.353  13.170  10.154  0.00  0.00    -0.002 C 
HETATM   11  C   UNK N   1      35.172  11.589   8.219  0.00  0.00     0.006 C 
HETATM   12  C   UNK N   1      36.797  12.684  10.465  0.00  0.00    -0.034 C 
HETATM   13  C   UNK N   1      36.583  11.044   8.518  0.00  0.00     0.006 C 
HETATM   14  C   UNK N   1      37.004  11.215   9.994  0.00  0.00    -0.004 C 
HETATM   15  C   UNK N   1      37.082  12.809  11.961  0.00  0.00     0.048 C 
HETATM   16  C   UNK N   1      37.819  13.583   9.765  0.00  0.00     0.016 C 
HETATM   17  C   UNK N   1      36.249  10.212  10.888  0.00  0.00     0.040 C 
HETATM   18  C   UNK N   1      36.224  11.823  12.766  0.00  0.00     0.253 C 
HETATM   19  C   UNK N   1      36.591  10.388  12.384  0.00  0.00     0.165 C 
ENDROOT
BRANCH   8  20
HETATM   20  N   UNK N   1      31.751  15.547   5.714  0.00  0.00    -0.064 N 
HETATM   21  C   UNK N   1      32.423  16.861   5.686  0.00  0.00     0.237 C 
HETATM   22  C   UNK N   1      32.742  17.400   4.279  0.00  0.00     0.028 C 
HETATM   23  C   UNK N   1      31.797  16.832   3.233  0.00  0.00     0.003 C 
HETATM   24  C   UNK N   1      31.887  15.309   3.201  0.00  0.00     0.028 C 
HETATM   25  C   UNK N   1      32.190  14.704   4.583  0.00  0.00     0.237 C 
HETATM   26  C   UNK N   1      30.300  15.749   5.657  0.00  0.00     0.273 C 
ENDBRANCH   8  20
BRANCH   3  27
HETATM   27  O   UNK N   1      31.482  16.132   8.953  0.00  0.00    -0.313 OA
BRANCH  27  28
HETATM   28  C   UNK N   1      30.898  17.362   8.962  0.00  0.00     0.255 C 
HETATM   29  C   UNK N   1      29.453  17.548   9.322  0.00  0.00     0.126 C 
HETATM   30  O   UNK N   1      31.564  18.344   8.681  0.00  0.00    -0.266 OA
ENDBRANCH  27  28
ENDBRANCH   3  27
BRANCH  18  31
HETATM   31  N   UNK N   1      36.229  12.094  14.211  0.00  0.00     0.095 N 
HETATM   32  C   UNK N   1      35.072  11.375  14.761  0.00  0.00     0.273 C 
HETATM   33  C   UNK N   1      34.941  11.592  16.263  0.00  0.00     0.030 C 
HETATM   34  C   UNK N   1      34.787  13.079  16.538  0.00  0.00     0.003 C 
HETATM   35  C   UNK N   1      35.991  13.818  15.973  0.00  0.00     0.030 C 
HETATM   36  C   UNK N   1      36.107  13.539  14.477  0.00  0.00     0.273 C 
ENDBRANCH  18  31
BRANCH  19  37
HETATM   37  O   UNK N   1      37.938  10.177  12.639  0.00  0.00    -0.314 OA
BRANCH  37  38
HETATM   38  C   UNK N   1      38.438   9.178  13.406  0.00  0.00     0.255 C 
HETATM   39  C   UNK N   1      38.257   9.233  14.883  0.00  0.00     0.126 C 
HETATM   40  O   UNK N   1      39.040   8.240  12.906  0.00  0.00    -0.266 OA
ENDBRANCH  37  38
ENDBRANCH  19  37
TORSDOF 6
ENDMDL
MODEL 3
REMARK VINA RESULT:      -7.3      3.549     10.861
REMARK  6 active torsions:
REMARK  status: ('A' for Active; 'I' for Inactive)
REMARK    1  A    between atoms: C_3  and  O_9 
REMARK    2  A    between atoms: C_8  and  N_13 
REMARK    3  A    between atoms: O_9  and  C_14 
REMARK    4  A    between atoms: C_28  and  N_31 
REMARK    5  A    between atoms: C_30  and  O_32 
REMARK    6  A    between atoms: O_32  and  C_35 
ROOT
HETATM    1  C   UNK N   1      34.076  13.552   8.176  0.00  0.00    -0.011 C 
HETATM    2  C   UNK N   1      33.040  14.324   9.007  0.00  0.00     0.003 C 
HETATM    3  C   UNK N   1      34.659  12.528   9.139  0.00  0.00     0.171 C 
HETATM    4  C   UNK N   1      33.389  13.030   6.916  0.00  0.00     0.012 C 
HETATM    5  C   UNK N   1      35.283  14.413   7.777  0.00  0.00     0.018 C 
HETATM    6  C   UNK N   1      32.612  15.603   8.247  0.00  0.00    -0.005 C 
HETATM    7  C   UNK N   1      33.744  14.466  10.347  0.00  0.00     0.042 C 
HETATM    8  C   UNK N   1      34.293  13.031  10.551  0.00  0.00     0.220 C 
HETATM    9  C   UNK N   1      32.930  14.225   6.080  0.00  0.00     0.007 C 
HETATM   10  C   UNK N   1      32.018  15.199   6.864  0.00  0.00    -0.002 C 
HETATM   11  C   UNK N   1      31.574  16.457   8.985  0.00  0.00     0.006 C 
HETATM   12  C   UNK N   1      31.766  16.474   6.010  0.00  0.00    -0.034 C 
HETATM   13  C   UNK N   1      31.269  17.734   8.176  0.00  0.00     0.006 C 
HETATM   14  C   UNK N   1      30.791  17.447   6.737  0.00  0.00    -0.004 C 
HETATM   15  C   UNK N   1      31.210  16.087   4.641  0.00  0.00     0.048 C 
HETATM   16  C   UNK N   1      33.086  17.199   5.739  0.00  0.00     0.016 C 
HETATM   17  C   UNK N   1      29.346  16.912   6.748  0.00  0.00     0.040 C 
HETATM   18  C   UNK N   1      29.800  15.493   4.771  0.00  0.00     0.253 C 
HETATM   19  C   UNK N   1      28.844  16.549   5.331  0.00  0.00     0.165 C 
ENDROOT
BRANCH   8  20
HETATM   20  N   UNK N   1      35.411  12.919  11.515  0.00  0.00    -0.064 N 
HETATM   21  C   UNK N   1      34.907  12.292  12.753  0.00  0.00     0.237 C 
HETATM   22  C   UNK N   1      35.954  11.491  13.550  0.00  0.00     0.028 C 
HETATM   23  C   UNK N   1      37.365  11.990  13.285  0.00  0.00     0.003 C 
HETATM   24  C   UNK N   1      37.699  11.884  11.799  0.00  0.00     0.028 C 
HETATM   25  C   UNK N   1      36.470  12.095  10.898  0.00  0.00     0.237 C 
HETATM   26  C   UNK N   1      35.931  14.253  11.831  0.00  0.00     0.273 C 
ENDBRANCH   8  20
BRANCH   3  27
HETATM   27  O   UNK N   1      34.284  11.218   8.918  0.00  0.00    -0.313 OA
BRANCH  27  28
HETATM   28  C   UNK N   1      33.273  10.632   9.616  0.00  0.00     0.255 C 
HETATM   29  C   UNK N   1      33.539   9.669  10.736  0.00  0.00     0.126 C 
HETATM   30  O   UNK N   1      32.117  10.900   9.333  0.00  0.00    -0.266 OA
ENDBRANCH  27  28
ENDBRANCH   3  27
BRANCH  18  31
HETATM   31  N   UNK N   1      29.332  14.833   3.543  0.00  0.00     0.095 N 
HETATM   32  C   UNK N   1      28.005  14.287   3.858  0.00  0.00     0.273 C 
HETATM   33  C   UNK N   1      27.408  13.546   2.669  0.00  0.00     0.030 C 
HETATM   34  C   UNK N   1      28.339  12.412   2.274  0.00  0.00     0.003 C 
HETATM   35  C   UNK N   1      29.710  12.983   1.941  0.00  0.00     0.030 C 
HETATM   36  C   UNK N   1      30.249  13.750   3.144  0.00  0.00     0.273 C 
ENDBRANCH  18  31
BRANCH  19  37
HETATM   37  O   UNK N   1      28.831  17.648   4.486  0.00  0.00    -0.314 OA
BRANCH  37  38
HETATM   38  C   UNK N   1      27.721  18.334   4.117  0.00  0.00     0.255 C 
HETATM   39  C   UNK N   1      27.657  19.802   4.360  0.00  0.00     0.126 C 
HETATM   40  O   UNK N   1      26.774  17.765   3.596  0.00  0.00    -0.266 OA
ENDBRANCH  37  38
ENDBRANCH  19  37
TORSDOF 6
ENDMDL
MODEL 4
REMARK VINA RESULT:      -7.2     18.600     22.038
REMARK  6 active torsions:
REMARK  status: ('A' for Active; 'I' for Inactive)
REMARK    1  A    between atoms: C_3  and  O_9 
REMARK    2  A    between atoms: C_8  and  N_13 
REMARK    3  A    between atoms: O_9  and  C_14 
REMARK    4  A    between atoms: C_28  and  N_31 
REMARK    5  A    between atoms: C_30  and  O_32 
REMARK    6  A    between atoms: O_32  and  C_35 
ROOT
HETATM    1  C   UNK N   1      28.407  24.340  -6.089  0.00  0.00    -0.011 C 
HETATM    2  C   UNK N   1      29.853  24.801  -5.855  0.00  0.00     0.003 C 
HETATM    3  C   UNK N   1      27.655  25.604  -6.481  0.00  0.00     0.171 C 
HETATM    4  C   UNK N   1      28.426  23.188  -7.091  0.00  0.00     0.012 C 
HETATM    5  C   UNK N   1      27.710  23.881  -4.801  0.00  0.00     0.018 C 
HETATM    6  C   UNK N   1      30.646  23.683  -5.136  0.00  0.00    -0.005 C 
HETATM    7  C   UNK N   1      29.655  26.133  -5.148  0.00  0.00     0.042 C 
HETATM    8  C   UNK N   1      28.549  26.776  -6.023  0.00  0.00     0.220 C 
HETATM    9  C   UNK N   1      29.186  22.015  -6.471  0.00  0.00     0.007 C 
HETATM   10  C   UNK N   1      30.614  22.393  -6.010  0.00  0.00    -0.002 C 
HETATM   11  C   UNK N   1      32.111  24.032  -4.849  0.00  0.00     0.006 C 
HETATM   12  C   UNK N   1      31.234  21.207  -5.218  0.00  0.00    -0.034 C 
HETATM   13  C   UNK N   1      32.787  22.883  -4.075  0.00  0.00     0.006 C 
HETATM   14  C   UNK N   1      32.701  21.524  -4.801  0.00  0.00    -0.004 C 
HETATM   15  C   UNK N   1      31.182  19.932  -6.057  0.00  0.00     0.048 C 
HETATM   16  C   UNK N   1      30.408  20.920  -3.962  0.00  0.00     0.016 C 
HETATM   17  C   UNK N   1      33.661  21.496  -6.006  0.00  0.00     0.040 C 
HETATM   18  C   UNK N   1      32.113  20.037  -7.273  0.00  0.00     0.253 C 
HETATM   19  C   UNK N   1      33.563  20.175  -6.803  0.00  0.00     0.165 C 
ENDROOT
BRANCH   8  20
HETATM   20  N   UNK N   1      27.789  27.866  -5.371  0.00  0.00    -0.064 N 
HETATM   21  C   UNK N   1      26.411  27.399  -5.122  0.00  0.00     0.237 C 
HETATM   22  C   UNK N   1      25.712  28.049  -3.913  0.00  0.00     0.028 C 
HETATM   23  C   UNK N   1      26.283  29.424  -3.607  0.00  0.00     0.003 C 
HETATM   24  C   UNK N   1      27.777  29.328  -3.310  0.00  0.00     0.028 C 
HETATM   25  C   UNK N   1      28.469  28.208  -4.106  0.00  0.00     0.237 C 
HETATM   26  C   UNK N   1      27.747  29.037  -6.252  0.00  0.00     0.273 C 
ENDBRANCH   8  20
BRANCH   3  27
HETATM   27  O   UNK N   1      27.284  25.693  -7.807  0.00  0.00    -0.313 OA
BRANCH  27  28
HETATM   28  C   UNK N   1      26.017  25.417  -8.220  0.00  0.00     0.255 C 
HETATM   29  C   UNK N   1      25.512  25.850  -9.565  0.00  0.00     0.126 C 
HETATM   30  O   UNK N   1      25.270  24.794  -7.484  0.00  0.00    -0.266 OA
ENDBRANCH  27  28
ENDBRANCH   3  27
BRANCH  18  31
HETATM   31  N   UNK N   1      31.889  18.980  -8.270  0.00  0.00     0.095 N 
HETATM   32  C   UNK N   1      32.871  19.217  -9.337  0.00  0.00     0.273 C 
HETATM   33  C   UNK N   1      32.733  18.197 -10.460  0.00  0.00     0.030 C 
HETATM   34  C   UNK N   1      31.329  18.283 -11.038  0.00  0.00     0.003 C 
HETATM   35  C   UNK N   1      30.316  18.030  -9.930  0.00  0.00     0.030 C 
HETATM   36  C   UNK N   1      30.520  19.046  -8.810  0.00  0.00     0.273 C 
ENDBRANCH  18  31
BRANCH  19  37
HETATM   37  O   UNK N   1      33.900  19.074  -6.030  0.00  0.00    -0.314 OA
BRANCH  37  38
HETATM   38  C   UNK N   1      35.162  18.717  -5.691  0.00  0.00     0.255 C 
HETATM   39  C   UNK N   1      36.120  18.320  -6.761  0.00  0.00     0.126 C 
HETATM   40  O   UNK N   1      35.523  18.710  -4.524  0.00  0.00    -0.266 OA
ENDBRANCH  37  38
ENDBRANCH  19  37
TORSDOF 6
ENDMDL
MODEL 5
REMARK VINA RESULT:      -7.2      3.576      6.241
REMARK  6 active torsions:
REMARK  status: ('A' for Active; 'I' for Inactive)
REMARK    1  A    between atoms: C_3  and  O_9 
REMARK    2  A    between atoms: C_8  and  N_13 
REMARK    3  A    between atoms: O_9  and  C_14 
REMARK    4  A    between atoms: C_28  and  N_31 
REMARK    5  A    between atoms: C_30  and  O_32 
REMARK    6  A    between atoms: O_32  and  C_35 
ROOT
HETATM    1  C   UNK N   1      31.326  16.306   6.879  0.00  0.00    -0.011 C 
HETATM    2  C   UNK N   1      31.246  14.840   6.428  0.00  0.00     0.003 C 
HETATM    3  C   UNK N   1      29.892  16.812   6.811  0.00  0.00     0.171 C 
HETATM    4  C   UNK N   1      32.032  16.356   8.232  0.00  0.00     0.012 C 
HETATM    5  C   UNK N   1      32.079  17.198   5.882  0.00  0.00     0.018 C 
HETATM    6  C   UNK N   1      32.670  14.307   6.137  0.00  0.00    -0.005 C 
HETATM    7  C   UNK N   1      30.239  14.909   5.291  0.00  0.00     0.042 C 
HETATM    8  C   UNK N   1      29.140  15.804   5.916  0.00  0.00     0.220 C 
HETATM    9  C   UNK N   1      33.464  15.852   8.055  0.00  0.00     0.007 C 
HETATM   10  C   UNK N   1      33.537  14.441   7.425  0.00  0.00    -0.002 C 
HETATM   11  C   UNK N   1      32.714  12.845   5.678  0.00  0.00     0.006 C 
HETATM   12  C   UNK N   1      35.018  14.095   7.097  0.00  0.00    -0.034 C 
HETATM   13  C   UNK N   1      34.164  12.437   5.352  0.00  0.00     0.006 C 
HETATM   14  C   UNK N   1      35.139  12.650   6.530  0.00  0.00    -0.004 C 
HETATM   15  C   UNK N   1      35.881  14.250   8.348  0.00  0.00     0.048 C 
HETATM   16  C   UNK N   1      35.578  15.084   6.073  0.00  0.00     0.016 C 
HETATM   17  C   UNK N   1      34.909  11.583   7.618  0.00  0.00     0.040 C 
HETATM   18  C   UNK N   1      35.521  13.190   9.398  0.00  0.00     0.253 C 
HETATM   19  C   UNK N   1      35.821  11.794   8.847  0.00  0.00     0.165 C 
ENDROOT
BRANCH   8  20
HETATM   20  N   UNK N   1      28.234  16.455   4.943  0.00  0.00    -0.064 N 
HETATM   21  C   UNK N   1      28.228  15.662   3.698  0.00  0.00     0.237 C 
HETATM   22  C   UNK N   1      26.925  15.742   2.881  0.00  0.00     0.028 C 
HETATM   23  C   UNK N   1      26.175  17.037   3.145  0.00  0.00     0.003 C 
HETATM   24  C   UNK N   1      25.828  17.161   4.627  0.00  0.00     0.028 C 
HETATM   25  C   UNK N   1      26.884  16.514   5.539  0.00  0.00     0.237 C 
HETATM   26  C   UNK N   1      28.712  17.808   4.647  0.00  0.00     0.273 C 
ENDBRANCH   8  20
BRANCH   3  27
HETATM   27  O   UNK N   1      29.273  17.022   8.026  0.00  0.00    -0.313 OA
BRANCH  27  28
HETATM   28  C   UNK N   1      29.068  18.273   8.522  0.00  0.00     0.255 C 
HETATM   29  C   UNK N   1      29.688  18.724   9.812  0.00  0.00     0.126 C 
HETATM   30  O   UNK N   1      28.369  19.056   7.901  0.00  0.00    -0.266 OA
ENDBRANCH  27  28
ENDBRANCH   3  27
BRANCH  18  31
HETATM   31  N   UNK N   1      36.097  13.464  10.723  0.00  0.00     0.095 N 
HETATM   32  C   UNK N   1      35.718  12.326  11.571  0.00  0.00     0.273 C 
HETATM   33  C   UNK N   1      36.234  12.493  12.994  0.00  0.00     0.030 C 
HETATM   34  C   UNK N   1      35.662  13.773  13.582  0.00  0.00     0.003 C 
HETATM   35  C   UNK N   1      36.063  14.950  12.704  0.00  0.00     0.030 C 
HETATM   36  C   UNK N   1      35.562  14.718  11.281  0.00  0.00     0.273 C 
ENDBRANCH  18  31
BRANCH  19  37
HETATM   37  O   UNK N   1      37.166  11.712   8.519  0.00  0.00    -0.314 OA
BRANCH  37  38
HETATM   38  C   UNK N   1      38.066  10.898   9.122  0.00  0.00     0.255 C 
HETATM   39  C   UNK N   1      37.607   9.607   9.705  0.00  0.00     0.126 C 
HETATM   40  O   UNK N   1      39.245  11.211   9.200  0.00  0.00    -0.266 OA
ENDBRANCH  37  38
ENDBRANCH  19  37
TORSDOF 6
ENDMDL
MODEL 6
REMARK VINA RESULT:      -7.2      1.913      9.872
REMARK  6 active torsions:
REMARK  status: ('A' for Active; 'I' for Inactive)
REMARK    1  A    between atoms: C_3  and  O_9 
REMARK    2  A    between atoms: C_8  and  N_13 
REMARK    3  A    between atoms: O_9  and  C_14 
REMARK    4  A    between atoms: C_28  and  N_31 
REMARK    5  A    between atoms: C_30  and  O_32 
REMARK    6  A    between atoms: O_32  and  C_35 
ROOT
HETATM    1  C   UNK N   1      36.082  11.254  12.312  0.00  0.00    -0.011 C 
HETATM    2  C   UNK N   1      35.080  12.402  12.510  0.00  0.00     0.003 C 
HETATM    3  C   UNK N   1      35.840  10.321  13.490  0.00  0.00     0.171 C 
HETATM    4  C   UNK N   1      35.893  10.687  10.907  0.00  0.00     0.012 C 
HETATM    5  C   UNK N   1      37.541  11.699  12.488  0.00  0.00     0.018 C 
HETATM    6  C   UNK N   1      35.443  13.577  11.571  0.00  0.00    -0.005 C 
HETATM    7  C   UNK N   1      35.133  12.618  14.014  0.00  0.00     0.042 C 
HETATM    8  C   UNK N   1      35.068  11.159  14.531  0.00  0.00     0.220 C 
HETATM    9  C   UNK N   1      36.237  11.775   9.891  0.00  0.00     0.007 C 
HETATM   10  C   UNK N   1      35.422  13.075  10.095  0.00  0.00    -0.002 C 
HETATM   11  C   UNK N   1      34.505  14.785  11.680  0.00  0.00     0.006 C 
HETATM   12  C   UNK N   1      35.974  14.186   9.156  0.00  0.00    -0.034 C 
HETATM   13  C   UNK N   1      34.993  15.919  10.756  0.00  0.00     0.006 C 
HETATM   14  C   UNK N   1      35.130  15.489   9.280  0.00  0.00    -0.004 C 
HETATM   15  C   UNK N   1      35.983  13.693   7.710  0.00  0.00     0.048 C 
HETATM   16  C   UNK N   1      37.431  14.498   9.505  0.00  0.00     0.016 C 
HETATM   17  C   UNK N   1      33.739  15.338   8.633  0.00  0.00     0.040 C 
HETATM   18  C   UNK N   1      34.553  13.501   7.187  0.00  0.00     0.253 C 
HETATM   19  C   UNK N   1      33.824  14.847   7.170  0.00  0.00     0.165 C 
ENDROOT
BRANCH   8  20
HETATM   20  N   UNK N   1      35.556  10.962  15.914  0.00  0.00    -0.064 N 
HETATM   21  C   UNK N   1      35.500  12.255  16.624  0.00  0.00     0.237 C 
HETATM   22  C   UNK N   1      35.297  12.153  18.148  0.00  0.00     0.028 C 
HETATM   23  C   UNK N   1      35.804  10.828  18.694  0.00  0.00     0.003 C 
HETATM   24  C   UNK N   1      35.079   9.662  18.028  0.00  0.00     0.028 C 
HETATM   25  C   UNK N   1      34.691   9.960  16.569  0.00  0.00     0.237 C 
HETATM   26  C   UNK N   1      36.943  10.489  15.888  0.00  0.00     0.273 C 
ENDBRANCH   8  20
BRANCH   3  27
HETATM   27  O   UNK N   1      35.218   9.127  13.189  0.00  0.00    -0.313 OA
BRANCH  27  28
HETATM   28  C   UNK N   1      35.841   7.928  13.358  0.00  0.00     0.255 C 
HETATM   29  C   UNK N   1      36.761   7.361  12.316  0.00  0.00     0.126 C 
HETATM   30  O   UNK N   1      35.658   7.298  14.386  0.00  0.00    -0.266 OA
ENDBRANCH  27  28
ENDBRANCH   3  27
BRANCH  18  31
HETATM   31  N   UNK N   1      34.491  12.754   5.922  0.00  0.00     0.095 N 
HETATM   32  C   UNK N   1      33.131  12.204   5.843  0.00  0.00     0.273 C 
HETATM   33  C   UNK N   1      32.935  11.377   4.580  0.00  0.00     0.030 C 
HETATM   34  C   UNK N   1      33.942  10.238   4.572  0.00  0.00     0.003 C 
HETATM   35  C   UNK N   1      35.349  10.813   4.646  0.00  0.00     0.030 C 
HETATM   36  C   UNK N   1      35.485  11.667   5.903  0.00  0.00     0.273 C 
ENDBRANCH  18  31
BRANCH  19  37
HETATM   37  O   UNK N   1      34.519  15.733   6.362  0.00  0.00    -0.314 OA
BRANCH  37  38
HETATM   38  C   UNK N   1      34.105  16.982   6.039  0.00  0.00     0.255 C 
HETATM   39  C   UNK N   1      33.134  17.163   4.924  0.00  0.00     0.126 C 
HETATM   40  O   UNK N   1      34.520  17.960   6.644  0.00  0.00    -0.266 OA
ENDBRANCH  37  38
ENDBRANCH  19  37
TORSDOF 6
ENDMDL
MODEL 7
REMARK VINA RESULT:      -6.9      8.850     14.756
REMARK  6 active torsions:
REMARK  status: ('A' for Active; 'I' for Inactive)
REMARK    1  A    between atoms: C_3  and  O_9 
REMARK    2  A    between atoms: C_8  and  N_13 
REMARK    3  A    between atoms: O_9  and  C_14 
REMARK    4  A    between atoms: C_28  and  N_31 
REMARK    5  A    between atoms: C_30  and  O_32 
REMARK    6  A    between atoms: O_32  and  C_35 
ROOT
HETATM    1  C   UNK N   1      27.304  16.337   4.806  0.00  0.00    -0.011 C 
HETATM    2  C   UNK N   1      27.529  15.510   3.531  0.00  0.00     0.003 C 
HETATM    3  C   UNK N   1      28.537  17.224   4.915  0.00  0.00     0.171 C 
HETATM    4  C   UNK N   1      25.944  17.024   4.699  0.00  0.00     0.012 C 
HETATM    5  C   UNK N   1      27.346  15.489   6.085  0.00  0.00     0.018 C 
HETATM    6  C   UNK N   1      26.514  14.342   3.484  0.00  0.00    -0.005 C 
HETATM    7  C   UNK N   1      29.014  15.191   3.614  0.00  0.00     0.042 C 
HETATM    8  C   UNK N   1      29.597  16.573   4.002  0.00  0.00     0.220 C 
HETATM    9  C   UNK N   1      24.858  15.950   4.653  0.00  0.00     0.007 C 
HETATM   10  C   UNK N   1      25.068  14.922   3.516  0.00  0.00    -0.002 C 
HETATM   11  C   UNK N   1      26.644  13.443   2.248  0.00  0.00     0.006 C 
HETATM   12  C   UNK N   1      24.042  13.764   3.666  0.00  0.00    -0.034 C 
HETATM   13  C   UNK N   1      25.637  12.279   2.333  0.00  0.00     0.006 C 
HETATM   14  C   UNK N   1      24.175  12.747   2.494  0.00  0.00    -0.004 C 
HETATM   15  C   UNK N   1      22.622  14.325   3.726  0.00  0.00     0.048 C 
HETATM   16  C   UNK N   1      24.262  13.031   4.992  0.00  0.00     0.016 C 
HETATM   17  C   UNK N   1      23.645  13.325   1.168  0.00  0.00     0.040 C 
HETATM   18  C   UNK N   1      22.222  14.946   2.380  0.00  0.00     0.253 C 
HETATM   19  C   UNK N   1      22.203  13.865   1.298  0.00  0.00     0.165 C 
ENDROOT
BRANCH   8  20
HETATM   20  N   UNK N   1      30.945  16.536   4.612  0.00  0.00    -0.064 N 
HETATM   21  C   UNK N   1      31.876  17.291   3.750  0.00  0.00     0.237 C 
HETATM   22  C   UNK N   1      33.065  17.937   4.485  0.00  0.00     0.028 C 
HETATM   23  C   UNK N   1      33.402  17.196   5.769  0.00  0.00     0.003 C 
HETATM   24  C   UNK N   1      32.200  17.181   6.709  0.00  0.00     0.028 C 
HETATM   25  C   UNK N   1      30.858  17.142   5.956  0.00  0.00     0.237 C 
HETATM   26  C   UNK N   1      31.406  15.148   4.715  0.00  0.00     0.273 C 
ENDBRANCH   8  20
BRANCH   3  27
HETATM   27  O   UNK N   1      28.337  18.562   4.643  0.00  0.00    -0.313 OA
BRANCH  27  28
HETATM   28  C   UNK N   1      27.907  19.433   5.596  0.00  0.00     0.255 C 
HETATM   29  C   UNK N   1      27.136  20.672   5.245  0.00  0.00     0.126 C 
HETATM   30  O   UNK N   1      28.144  19.202   6.770  0.00  0.00    -0.266 OA
ENDBRANCH  27  28
ENDBRANCH   3  27
BRANCH  18  31
HETATM   31  N   UNK N   1      20.999  15.759   2.456  0.00  0.00     0.095 N 
HETATM   32  C   UNK N   1      20.795  16.310   1.109  0.00  0.00     0.273 C 
HETATM   33  C   UNK N   1      19.563  17.203   1.051  0.00  0.00     0.030 C 
HETATM   34  C   UNK N   1      19.729  18.343   2.042  0.00  0.00     0.003 C 
HETATM   35  C   UNK N   1      19.932  17.767   3.437  0.00  0.00     0.030 C 
HETATM   36  C   UNK N   1      21.150  16.848   3.437  0.00  0.00     0.273 C 
ENDBRANCH  18  31
BRANCH  19  37
HETATM   37  O   UNK N   1      21.305  12.872   1.658  0.00  0.00    -0.314 OA
BRANCH  37  38
HETATM   38  C   UNK N   1      20.417  12.283   0.821  0.00  0.00     0.255 C 
HETATM   39  C   UNK N   1      19.180  13.019   0.437  0.00  0.00     0.126 C 
HETATM   40  O   UNK N   1      20.612  11.159   0.384  0.00  0.00    -0.266 OA
ENDBRANCH  37  38
ENDBRANCH  19  37
TORSDOF 6
ENDMDL
MODEL 8
REMARK VINA RESULT:      -6.9     17.882     20.380
REMARK  6 active torsions:
REMARK  status: ('A' for Active; 'I' for Inactive)
REMARK    1  A    between atoms: C_3  and  O_9 
REMARK    2  A    between atoms: C_8  and  N_13 
REMARK    3  A    between atoms: O_9  and  C_14 
REMARK    4  A    between atoms: C_28  and  N_31 
REMARK    5  A    between atoms: C_30  and  O_32 
REMARK    6  A    between atoms: O_32  and  C_35 
ROOT
HETATM    1  C   UNK N   1      30.519  25.013  -5.406  0.00  0.00    -0.011 C 
HETATM    2  C   UNK N   1      30.189  23.718  -4.648  0.00  0.00     0.003 C 
HETATM    3  C   UNK N   1      29.527  26.038  -4.874  0.00  0.00     0.171 C 
HETATM    4  C   UNK N   1      32.007  25.307  -5.229  0.00  0.00     0.012 C 
HETATM    5  C   UNK N   1      30.193  24.928  -6.904  0.00  0.00     0.018 C 
HETATM    6  C   UNK N   1      30.898  22.522  -5.328  0.00  0.00    -0.005 C 
HETATM    7  C   UNK N   1      28.669  23.747  -4.611  0.00  0.00     0.042 C 
HETATM    8  C   UNK N   1      28.406  25.218  -4.201  0.00  0.00     0.220 C 
HETATM    9  C   UNK N   1      32.808  24.179  -5.879  0.00  0.00     0.007 C 
HETATM   10  C   UNK N   1      32.436  22.779  -5.335  0.00  0.00    -0.002 C 
HETATM   11  C   UNK N   1      30.641  21.169  -4.653  0.00  0.00     0.006 C 
HETATM   12  C   UNK N   1      33.146  21.687  -6.184  0.00  0.00    -0.034 C 
HETATM   13  C   UNK N   1      31.336  20.043  -5.444  0.00  0.00     0.006 C 
HETATM   14  C   UNK N   1      32.853  20.265  -5.619  0.00  0.00    -0.004 C 
HETATM   15  C   UNK N   1      34.651  21.946  -6.220  0.00  0.00     0.048 C 
HETATM   16  C   UNK N   1      32.671  21.755  -7.638  0.00  0.00     0.016 C 
HETATM   17  C   UNK N   1      33.591  20.011  -4.290  0.00  0.00     0.040 C 
HETATM   18  C   UNK N   1      35.275  21.741  -4.833  0.00  0.00     0.253 C 
HETATM   19  C   UNK N   1      35.108  20.283  -4.401  0.00  0.00     0.165 C 
ENDROOT
BRANCH   8  20
HETATM   20  N   UNK N   1      27.050  25.723  -4.515  0.00  0.00    -0.064 N 
HETATM   21  C   UNK N   1      26.663  26.708  -3.485  0.00  0.00     0.237 C 
HETATM   22  C   UNK N   1      25.683  27.797  -3.962  0.00  0.00     0.028 C 
HETATM   23  C   UNK N   1      24.844  27.321  -5.137  0.00  0.00     0.003 C 
HETATM   24  C   UNK N   1      25.740  26.928  -6.309  0.00  0.00     0.028 C 
HETATM   25  C   UNK N   1      27.089  26.345  -5.854  0.00  0.00     0.237 C 
HETATM   26  C   UNK N   1      26.092  24.614  -4.502  0.00  0.00     0.273 C 
ENDBRANCH   8  20
BRANCH   3  27
HETATM   27  O   UNK N   1      30.056  27.008  -4.048  0.00  0.00    -0.313 OA
BRANCH  27  28
HETATM   28  C   UNK N   1      29.854  28.335  -4.276  0.00  0.00     0.255 C 
HETATM   29  C   UNK N   1      29.446  29.273  -3.178  0.00  0.00     0.126 C 
HETATM   30  O   UNK N   1      30.017  28.781  -5.400  0.00  0.00    -0.266 OA
ENDBRANCH  27  28
ENDBRANCH   3  27
BRANCH  18  31
HETATM   31  N   UNK N   1      36.649  22.258  -4.731  0.00  0.00     0.095 N 
HETATM   32  C   UNK N   1      37.120  21.891  -3.389  0.00  0.00     0.273 C 
HETATM   33  C   UNK N   1      38.536  22.392  -3.137  0.00  0.00     0.030 C 
HETATM   34  C   UNK N   1      38.560  23.905  -3.285  0.00  0.00     0.003 C 
HETATM   35  C   UNK N   1      38.078  24.279  -4.679  0.00  0.00     0.030 C 
HETATM   36  C   UNK N   1      36.675  23.722  -4.901  0.00  0.00     0.273 C 
ENDBRANCH  18  31
BRANCH  19  37
HETATM   37  O   UNK N   1      35.719  19.458  -5.333  0.00  0.00    -0.314 OA
BRANCH  37  38
HETATM   38  C   UNK N   1      35.712  18.103  -5.297  0.00  0.00     0.255 C 
HETATM   39  C   UNK N   1      35.153  17.346  -6.451  0.00  0.00     0.126 C 
HETATM   40  O   UNK N   1      36.151  17.496  -4.332  0.00  0.00    -0.266 OA
ENDBRANCH  37  38
ENDBRANCH  19  37
TORSDOF 6
ENDMDL
MODEL 9
REMARK VINA RESULT:      -6.9      8.495     13.202
REMARK  6 active torsions:
REMARK  status: ('A' for Active; 'I' for Inactive)
REMARK    1  A    between atoms: C_3  and  O_9 
REMARK    2  A    between atoms: C_8  and  N_13 
REMARK    3  A    between atoms: O_9  and  C_14 
REMARK    4  A    between atoms: C_28  and  N_31 
REMARK    5  A    between atoms: C_30  and  O_32 
REMARK    6  A    between atoms: O_32  and  C_35 
ROOT
HETATM    1  C   UNK N   1      23.403  14.332   5.346  0.00  0.00    -0.011 C 
HETATM    2  C   UNK N   1      24.439  13.393   4.709  0.00  0.00     0.003 C 
HETATM    3  C   UNK N   1      22.299  13.410   5.845  0.00  0.00     0.171 C 
HETATM    4  C   UNK N   1      24.115  15.207   6.375  0.00  0.00     0.012 C 
HETATM    5  C   UNK N   1      22.698  15.228   4.318  0.00  0.00     0.018 C 
HETATM    6  C   UNK N   1      25.447  14.220   3.875  0.00  0.00    -0.005 C 
HETATM    7  C   UNK N   1      23.558  12.376   4.001  0.00  0.00     0.042 C 
HETATM    8  C   UNK N   1      22.504  12.075   5.096  0.00  0.00     0.220 C 
HETATM    9  C   UNK N   1      25.138  16.080   5.648  0.00  0.00     0.007 C 
HETATM   10  C   UNK N   1      26.143  15.261   4.804  0.00  0.00    -0.002 C 
HETATM   11  C   UNK N   1      26.535  13.384   3.190  0.00  0.00     0.006 C 
HETATM   12  C   UNK N   1      27.011  16.227   3.949  0.00  0.00    -0.034 C 
HETATM   13  C   UNK N   1      27.441  14.293   2.336  0.00  0.00     0.006 C 
HETATM   14  C   UNK N   1      28.086  15.442   3.140  0.00  0.00    -0.004 C 
HETATM   15  C   UNK N   1      27.676  17.268   4.847  0.00  0.00     0.048 C 
HETATM   16  C   UNK N   1      26.128  17.012   2.977  0.00  0.00     0.016 C 
HETATM   17  C   UNK N   1      29.207  14.900   4.048  0.00  0.00     0.040 C 
HETATM   18  C   UNK N   1      28.719  16.614   5.765  0.00  0.00     0.253 C 
HETATM   19  C   UNK N   1      29.841  16.006   4.920  0.00  0.00     0.165 C 
ENDROOT
BRANCH   8  20
HETATM   20  N   UNK N   1      21.239  11.485   4.604  0.00  0.00    -0.064 N 
HETATM   21  C   UNK N   1      20.344  12.577   4.173  0.00  0.00     0.237 C 
HETATM   22  C   UNK N   1      19.350  12.202   3.057  0.00  0.00     0.028 C 
HETATM   23  C   UNK N   1      19.046  10.713   3.053  0.00  0.00     0.003 C 
HETATM   24  C   UNK N   1      20.327   9.907   2.854  0.00  0.00     0.028 C 
HETATM   25  C   UNK N   1      21.559  10.587   3.477  0.00  0.00     0.237 C 
HETATM   26  C   UNK N   1      20.591  10.731   5.681  0.00  0.00     0.273 C 
ENDBRANCH   8  20
BRANCH   3  27
HETATM   27  O   UNK N   1      22.222  13.255   7.214  0.00  0.00    -0.313 OA
BRANCH  27  28
HETATM   28  C   UNK N   1      21.191  13.768   7.939  0.00  0.00     0.255 C 
HETATM   29  C   UNK N   1      21.341  14.114   9.392  0.00  0.00     0.126 C 
HETATM   30  O   UNK N   1      20.116  13.964   7.397  0.00  0.00    -0.266 OA
ENDBRANCH  27  28
ENDBRANCH   3  27
BRANCH  18  31
HETATM   31  N   UNK N   1      29.176  17.498   6.848  0.00  0.00     0.095 N 
HETATM   32  C   UNK N   1      30.263  16.777   7.526  0.00  0.00     0.273 C 
HETATM   33  C   UNK N   1      30.817  17.576   8.698  0.00  0.00     0.030 C 
HETATM   34  C   UNK N   1      29.696  17.846   9.688  0.00  0.00     0.003 C 
HETATM   35  C   UNK N   1      28.577  18.599   8.983  0.00  0.00     0.030 C 
HETATM   36  C   UNK N   1      28.082  17.782   7.794  0.00  0.00     0.273 C 
ENDBRANCH  18  31
BRANCH  19  37
HETATM   37  O   UNK N   1      30.428  17.002   4.154  0.00  0.00    -0.314 OA
BRANCH  37  38
HETATM   38  C   UNK N   1      31.762  17.207   4.032  0.00  0.00     0.255 C 
HETATM   39  C   UNK N   1      32.479  16.652   2.851  0.00  0.00     0.126 C 
HETATM   40  O   UNK N   1      32.383  17.834   4.877  0.00  0.00    -0.266 OA
ENDBRANCH  37  38
ENDBRANCH  19  37
TORSDOF 6
ENDMDL
