REMARK  6 active torsions:
REMARK  status: ('A' for Active; 'I' for Inactive)
REMARK    1  A    between atoms: C_11  and  O_23 
REMARK    2  A    between atoms: C_19  and  C_14 
REMARK    3  A    between atoms: C_19  and  C_15 
REMARK    4  A    between atoms: C_19  and  C_18 
REMARK    5  A    between atoms: O_23  and  C_18 
REMARK    6  A    between atoms: O_22  and  C_19 
ROOT
HETATM    1  C   UNK N   1       3.397  -2.417  -0.791  0.00  0.00     0.305 C 
HETATM    2  O   UNK N   1       3.259  -2.631  -1.986  0.00  0.00    -0.261 OA
ENDROOT
BRANCH   1   3
HETATM    3  C   UNK N   1       4.278  -3.281   0.090  0.00  0.00     0.213 C 
BRANCH   3   4
HETATM    4  C   UNK N   1       4.633  -4.618  -0.529  0.00  0.00     0.032 A 
HETATM    5  C   UNK N   1       5.338  -4.856  -1.711  0.00  0.00     0.019 A 
HETATM    6  C   UNK N   1       5.525  -6.245  -1.974  0.00  0.00     0.008 A 
HETATM    7  C   UNK N   1       4.970  -7.095  -1.006  0.00  0.00     0.050 A 
HETATM    8  S   UNK N   1       4.278  -6.101   0.124  0.00  0.00    -0.102 SA
ENDBRANCH   3   4
BRANCH   3   9
HETATM    9  C   UNK N   1       5.513  -2.474   0.445  0.00  0.00     0.032 A 
HETATM   10  C   UNK N   1       5.513  -1.213   1.051  0.00  0.00     0.019 A 
HETATM   11  C   UNK N   1       6.821  -0.687   1.253  0.00  0.00     0.008 A 
HETATM   12  C   UNK N   1       7.850  -1.530   0.813  0.00  0.00     0.050 A 
HETATM   13  S   UNK N   1       7.104  -2.877   0.197  0.00  0.00    -0.102 SA
ENDBRANCH   3   9
BRANCH   3  14
HETATM   14  O   UNK N   1       3.572  -3.529   1.271  0.00  0.00    -0.370 OA
HETATM   15  H   UNK N   1       3.179  -3.191   2.091  0.00  0.00     0.212 HD
ENDBRANCH   3  14
ENDBRANCH   1   3
BRANCH   1  16
HETATM   16  O   UNK N   1       2.774  -1.376  -0.186  0.00  0.00    -0.313 OA
BRANCH  16  17
HETATM   17  C   UNK N   1       2.185  -0.254  -0.726  0.00  0.00     0.136 C 
HETATM   18  C   UNK N   1       1.731   0.570   0.496  0.00  0.00     0.069 C 
HETATM   19  C   UNK N   1       0.334   0.125   1.013  0.00  0.00     0.224 C 
HETATM   20  C   UNK N   1       0.316  -1.417   1.221  0.00  0.00     0.184 A 
HETATM   21  N   UNK N   1      -0.649   0.379  -0.058  0.00  0.00    -0.061 N 
HETATM   22  C   UNK N   1      -0.172  -1.981  -0.050  0.00  0.00     0.184 A 
HETATM   23  O   UNK N   1      -0.969  -1.998   1.115  0.00  0.00    -0.371 OA
HETATM   24  C   UNK N   1      -0.369  -0.760  -0.962  0.00  0.00     0.224 C 
HETATM   25  C   UNK N   1       0.993  -0.544  -1.691  0.00  0.00     0.069 C 
HETATM   26  C   UNK N   1      -0.520   1.693  -0.698  0.00  0.00     0.273 C 
HETATM   27  C   UNK N   1      -2.021   0.344   0.458  0.00  0.00     0.273 C 
ENDBRANCH  16  17
ENDBRANCH   1  16
TORSDOF 6
