MODEL 1
REMARK VINA RESULT:      -6.9      0.000      0.000
REMARK  6 active torsions:
REMARK  status: ('A' for Active; 'I' for Inactive)
REMARK       I    between atoms: N_2  and  C_1 
REMARK    1  A    between atoms: C_4  and  C_1 
REMARK    2  A    between atoms: C_3  and  N_2 
REMARK    3  A    between atoms: C_7  and  C_6 
REMARK    4  A    between atoms: C_7  and  C_19 
REMARK    5  A    between atoms: O_13  and  C_10 
REMARK    6  A    between atoms: C_21  and  C_19 
ROOT
HETATM    1  C   UNK N   1      27.125  28.488  -6.033  0.00  0.00     0.041 A 
HETATM    2  C   UNK N   1      27.047  27.597  -7.119  0.00  0.00    -0.031 A 
HETATM    3  C   UNK N   1      28.123  29.481  -6.038  0.00  0.00     0.030 A 
HETATM    4  C   UNK N   1      27.996  27.661  -8.146  0.00  0.00     0.009 A 
HETATM    5  C   UNK N   1      29.062  29.543  -7.068  0.00  0.00     0.002 A 
HETATM    6  C   UNK N   1      29.006  28.624  -8.115  0.00  0.00     0.001 A 
ENDROOT
BRANCH   1   7
HETATM    7  N   UNK N   1      26.169  28.417  -4.974  0.00  0.00    -0.322 N 
HETATM    8  C   UNK N   1      26.224  27.584  -3.890  0.00  0.00     0.256 C 
HETATM    9  O   UNK N   1      25.509  27.828  -2.933  0.00  0.00    -0.267 OA
HETATM   10  H   UNK N   1      25.397  29.026  -5.030  0.00  0.00     0.169 HD
BRANCH   8  11
HETATM   11  C   UNK N   1      27.111  26.382  -3.835  0.00  0.00     0.032 A 
HETATM   12  C   UNK N   1      28.498  26.494  -3.996  0.00  0.00     0.020 A 
HETATM   13  C   UNK N   1      29.326  25.383  -3.877  0.00  0.00     0.038 A 
HETATM   14  C   UNK N   1      28.775  24.122  -3.607  0.00  0.00     0.068 A 
HETATM   15  C   UNK N   1      27.385  23.989  -3.506  0.00  0.00     0.038 A 
HETATM   16  C   UNK N   1      26.555  25.110  -3.630  0.00  0.00     0.020 A 
BRANCH  14  17
HETATM   17  O   UNK N   1      29.561  23.035  -3.430  0.00  0.00    -0.356 OA
HETATM   18  C   UNK N   1      30.536  22.963  -2.459  0.00  0.00     0.210 C 
ENDBRANCH  14  17
ENDBRANCH   8  11
ENDBRANCH   1   7
BRANCH   2  19
HETATM   19  C   UNK N   1      25.958  26.585  -7.199  0.00  0.00     0.043 C 
BRANCH  19  20
HETATM   20  C   UNK N   1      26.064  25.878  -8.537  0.00  0.00     0.040 C 
BRANCH  20  21
HETATM   21  C   UNK N   1      26.302  24.392  -8.341  0.00  0.00     0.223 C 
HETATM   22  N   UNK N   1      25.575  23.622  -9.363  0.00  0.00     0.088 N 
HETATM   23  C   UNK N   1      26.163  23.904 -10.666  0.00  0.00     0.310 C 
HETATM   24  C   UNK N   1      25.776  22.191  -9.140  0.00  0.00     0.272 C 
HETATM   25  C   UNK N   1      25.199  21.777  -7.792  0.00  0.00     0.030 C 
HETATM   26  C   UNK N   1      25.917  22.542  -6.690  0.00  0.00     0.004 C 
HETATM   27  C   UNK N   1      25.794  24.039  -6.941  0.00  0.00     0.036 C 
ENDBRANCH  20  21
ENDBRANCH  19  20
ENDBRANCH   2  19
TORSDOF 6
ENDMDL
MODEL 2
REMARK VINA RESULT:      -6.7      2.598      5.051
REMARK  6 active torsions:
REMARK  status: ('A' for Active; 'I' for Inactive)
REMARK       I    between atoms: N_2  and  C_1 
REMARK    1  A    between atoms: C_4  and  C_1 
REMARK    2  A    between atoms: C_3  and  N_2 
REMARK    3  A    between atoms: C_7  and  C_6 
REMARK    4  A    between atoms: C_7  and  C_19 
REMARK    5  A    between atoms: O_13  and  C_10 
REMARK    6  A    between atoms: C_21  and  C_19 
ROOT
HETATM    1  C   UNK N   1      27.711  26.863  -4.705  0.00  0.00     0.041 A 
HETATM    2  C   UNK N   1      29.105  27.025  -4.801  0.00  0.00    -0.031 A 
HETATM    3  C   UNK N   1      26.887  27.469  -5.673  0.00  0.00     0.030 A 
HETATM    4  C   UNK N   1      29.648  27.836  -5.804  0.00  0.00     0.009 A 
HETATM    5  C   UNK N   1      27.435  28.271  -6.674  0.00  0.00     0.002 A 
HETATM    6  C   UNK N   1      28.814  28.466  -6.731  0.00  0.00     0.001 A 
ENDROOT
BRANCH   1   7
HETATM    7  N   UNK N   1      27.151  26.051  -3.673  0.00  0.00    -0.322 N 
HETATM    8  C   UNK N   1      26.941  24.699  -3.731  0.00  0.00     0.256 C 
HETATM    9  O   UNK N   1      26.732  24.099  -2.691  0.00  0.00    -0.267 OA
HETATM   10  H   UNK N   1      26.889  26.506  -2.840  0.00  0.00     0.169 HD
BRANCH   8  11
HETATM   11  C   UNK N   1      26.946  23.933  -5.014  0.00  0.00     0.032 A 
HETATM   12  C   UNK N   1      28.141  23.474  -5.583  0.00  0.00     0.020 A 
HETATM   13  C   UNK N   1      28.135  22.704  -6.741  0.00  0.00     0.038 A 
HETATM   14  C   UNK N   1      26.921  22.388  -7.368  0.00  0.00     0.068 A 
HETATM   15  C   UNK N   1      25.726  22.893  -6.843  0.00  0.00     0.038 A 
HETATM   16  C   UNK N   1      25.738  23.671  -5.678  0.00  0.00     0.020 A 
BRANCH  14  17
HETATM   17  O   UNK N   1      26.882  21.593  -8.463  0.00  0.00    -0.356 OA
HETATM   18  C   UNK N   1      25.705  21.168  -9.040  0.00  0.00     0.210 C 
ENDBRANCH  14  17
ENDBRANCH   8  11
ENDBRANCH   1   7
BRANCH   2  19
HETATM   19  C   UNK N   1      30.021  26.336  -3.850  0.00  0.00     0.043 C 
BRANCH  19  20
HETATM   20  C   UNK N   1      31.177  25.755  -4.643  0.00  0.00     0.040 C 
BRANCH  20  21
HETATM   21  C   UNK N   1      31.550  24.381  -4.118  0.00  0.00     0.223 C 
HETATM   22  N   UNK N   1      31.555  23.401  -5.216  0.00  0.00     0.088 N 
HETATM   23  C   UNK N   1      32.636  23.734  -6.134  0.00  0.00     0.310 C 
HETATM   24  C   UNK N   1      31.874  22.073  -4.692  0.00  0.00     0.272 C 
HETATM   25  C   UNK N   1      30.803  21.619  -3.708  0.00  0.00     0.030 C 
HETATM   26  C   UNK N   1      30.754  22.597  -2.544  0.00  0.00     0.004 C 
HETATM   27  C   UNK N   1      30.503  24.004  -3.066  0.00  0.00     0.036 C 
ENDBRANCH  20  21
ENDBRANCH  19  20
ENDBRANCH   2  19
TORSDOF 6
ENDMDL
MODEL 3
REMARK VINA RESULT:      -6.7      3.039      6.042
REMARK  6 active torsions:
REMARK  status: ('A' for Active; 'I' for Inactive)
REMARK       I    between atoms: N_2  and  C_1 
REMARK    1  A    between atoms: C_4  and  C_1 
REMARK    2  A    between atoms: C_3  and  N_2 
REMARK    3  A    between atoms: C_7  and  C_6 
REMARK    4  A    between atoms: C_7  and  C_19 
REMARK    5  A    between atoms: O_13  and  C_10 
REMARK    6  A    between atoms: C_21  and  C_19 
ROOT
HETATM    1  C   UNK N   1      25.536  25.459  -5.184  0.00  0.00     0.041 A 
HETATM    2  C   UNK N   1      26.338  25.528  -4.029  0.00  0.00    -0.031 A 
HETATM    3  C   UNK N   1      24.934  26.637  -5.665  0.00  0.00     0.030 A 
HETATM    4  C   UNK N   1      26.468  26.739  -3.339  0.00  0.00     0.009 A 
HETATM    5  C   UNK N   1      25.072  27.842  -4.976  0.00  0.00     0.002 A 
HETATM    6  C   UNK N   1      25.828  27.889  -3.805  0.00  0.00     0.001 A 
ENDROOT
BRANCH   1   7
HETATM    7  N   UNK N   1      25.386  24.223  -5.882  0.00  0.00    -0.322 N 
HETATM    8  C   UNK N   1      25.930  23.909  -7.099  0.00  0.00     0.256 C 
HETATM    9  O   UNK N   1      25.963  22.738  -7.436  0.00  0.00    -0.267 OA
HETATM   10  H   UNK N   1      24.838  23.529  -5.448  0.00  0.00     0.169 HD
BRANCH   8  11
HETATM   11  C   UNK N   1      26.474  24.941  -8.034  0.00  0.00     0.032 A 
HETATM   12  C   UNK N   1      27.725  25.534  -7.816  0.00  0.00     0.020 A 
HETATM   13  C   UNK N   1      28.255  26.443  -8.725  0.00  0.00     0.038 A 
HETATM   14  C   UNK N   1      27.529  26.793  -9.872  0.00  0.00     0.068 A 
HETATM   15  C   UNK N   1      26.252  26.255 -10.067  0.00  0.00     0.038 A 
HETATM   16  C   UNK N   1      25.721  25.342  -9.148  0.00  0.00     0.020 A 
BRANCH  14  17
HETATM   17  O   UNK N   1      28.045  27.632 -10.801  0.00  0.00    -0.356 OA
HETATM   18  C   UNK N   1      27.631  27.643 -12.115  0.00  0.00     0.210 C 
ENDBRANCH  14  17
ENDBRANCH   8  11
ENDBRANCH   1   7
BRANCH   2  19
HETATM   19  C   UNK N   1      27.063  24.327  -3.531  0.00  0.00     0.043 C 
BRANCH  19  20
HETATM   20  C   UNK N   1      28.477  24.364  -4.080  0.00  0.00     0.040 C 
BRANCH  20  21
HETATM   21  C   UNK N   1      29.016  22.959  -4.273  0.00  0.00     0.223 C 
HETATM   22  N   UNK N   1      30.334  22.828  -3.633  0.00  0.00     0.088 N 
HETATM   23  C   UNK N   1      30.168  22.948  -2.191  0.00  0.00     0.310 C 
HETATM   24  C   UNK N   1      30.863  21.484  -3.861  0.00  0.00     0.272 C 
HETATM   25  C   UNK N   1      31.076  21.242  -5.350  0.00  0.00     0.030 C 
HETATM   26  C   UNK N   1      29.739  21.362  -6.067  0.00  0.00     0.004 C 
HETATM   27  C   UNK N   1      29.125  22.725  -5.782  0.00  0.00     0.036 C 
ENDBRANCH  20  21
ENDBRANCH  19  20
ENDBRANCH   2  19
TORSDOF 6
ENDMDL
MODEL 4
REMARK VINA RESULT:      -6.6      2.145      5.263
REMARK  6 active torsions:
REMARK  status: ('A' for Active; 'I' for Inactive)
REMARK       I    between atoms: N_2  and  C_1 
REMARK    1  A    between atoms: C_4  and  C_1 
REMARK    2  A    between atoms: C_3  and  N_2 
REMARK    3  A    between atoms: C_7  and  C_6 
REMARK    4  A    between atoms: C_7  and  C_19 
REMARK    5  A    between atoms: O_13  and  C_10 
REMARK    6  A    between atoms: C_21  and  C_19 
ROOT
HETATM    1  C   UNK N   1      26.061  24.673  -5.375  0.00  0.00     0.041 A 
HETATM    2  C   UNK N   1      25.899  26.060  -5.550  0.00  0.00    -0.031 A 
HETATM    3  C   UNK N   1      26.178  23.854  -6.515  0.00  0.00     0.030 A 
HETATM    4  C   UNK N   1      25.786  26.595  -6.838  0.00  0.00     0.009 A 
HETATM    5  C   UNK N   1      26.071  24.394  -7.796  0.00  0.00     0.002 A 
HETATM    6  C   UNK N   1      25.861  25.763  -7.957  0.00  0.00     0.001 A 
ENDROOT
BRANCH   1   7
HETATM    7  N   UNK N   1      26.160  24.120  -4.063  0.00  0.00    -0.322 N 
HETATM    8  C   UNK N   1      27.289  24.062  -3.292  0.00  0.00     0.256 C 
HETATM    9  O   UNK N   1      27.168  23.832  -2.101  0.00  0.00    -0.267 OA
HETATM   10  H   UNK N   1      25.336  23.744  -3.675  0.00  0.00     0.169 HD
BRANCH   8  11
HETATM   11  C   UNK N   1      28.662  24.254  -3.851  0.00  0.00     0.032 A 
HETATM   12  C   UNK N   1      29.253  25.523  -3.907  0.00  0.00     0.020 A 
HETATM   13  C   UNK N   1      30.556  25.687  -4.365  0.00  0.00     0.038 A 
HETATM   14  C   UNK N   1      31.295  24.576  -4.795  0.00  0.00     0.068 A 
HETATM   15  C   UNK N   1      30.692  23.313  -4.802  0.00  0.00     0.038 A 
HETATM   16  C   UNK N   1      29.379  23.152  -4.342  0.00  0.00     0.020 A 
BRANCH  14  17
HETATM   17  O   UNK N   1      32.583  24.699  -5.192  0.00  0.00    -0.356 OA
HETATM   18  C   UNK N   1      33.435  23.624  -5.321  0.00  0.00     0.210 C 
ENDBRANCH  14  17
ENDBRANCH   8  11
ENDBRANCH   1   7
BRANCH   2  19
HETATM   19  C   UNK N   1      25.854  26.976  -4.376  0.00  0.00     0.043 C 
BRANCH  19  20
HETATM   20  C   UNK N   1      25.875  28.405  -4.889  0.00  0.00     0.040 C 
BRANCH  20  21
HETATM   21  C   UNK N   1      27.052  29.166  -4.308  0.00  0.00     0.223 C 
HETATM   22  N   UNK N   1      28.284  28.834  -5.040  0.00  0.00     0.088 N 
HETATM   23  C   UNK N   1      28.170  29.344  -6.400  0.00  0.00     0.310 C 
HETATM   24  C   UNK N   1      29.418  29.539  -4.445  0.00  0.00     0.272 C 
HETATM   25  C   UNK N   1      29.632  29.085  -3.007  0.00  0.00     0.030 C 
HETATM   26  C   UNK N   1      28.385  29.407  -2.196  0.00  0.00     0.004 C 
HETATM   27  C   UNK N   1      27.172  28.750  -2.839  0.00  0.00     0.036 C 
ENDBRANCH  20  21
ENDBRANCH  19  20
ENDBRANCH   2  19
TORSDOF 6
ENDMDL
MODEL 5
REMARK VINA RESULT:      -6.5     12.557     15.420
REMARK  6 active torsions:
REMARK  status: ('A' for Active; 'I' for Inactive)
REMARK       I    between atoms: N_2  and  C_1 
REMARK    1  A    between atoms: C_4  and  C_1 
REMARK    2  A    between atoms: C_3  and  N_2 
REMARK    3  A    between atoms: C_7  and  C_6 
REMARK    4  A    between atoms: C_7  and  C_19 
REMARK    5  A    between atoms: O_13  and  C_10 
REMARK    6  A    between atoms: C_21  and  C_19 
ROOT
HETATM    1  C   UNK N   1      27.301  18.756   4.718  0.00  0.00     0.041 A 
HETATM    2  C   UNK N   1      27.860  18.542   5.992  0.00  0.00    -0.031 A 
HETATM    3  C   UNK N   1      26.834  20.042   4.387  0.00  0.00     0.030 A 
HETATM    4  C   UNK N   1      27.880  19.580   6.930  0.00  0.00     0.009 A 
HETATM    5  C   UNK N   1      26.863  21.074   5.325  0.00  0.00     0.002 A 
HETATM    6  C   UNK N   1      27.373  20.839   6.601  0.00  0.00     0.001 A 
ENDROOT
BRANCH   1   7
HETATM    7  N   UNK N   1      27.263  17.695   3.763  0.00  0.00    -0.322 N 
HETATM    8  C   UNK N   1      26.202  16.868   3.514  0.00  0.00     0.256 C 
HETATM    9  O   UNK N   1      26.207  16.209   2.488  0.00  0.00    -0.267 OA
HETATM   10  H   UNK N   1      28.079  17.545   3.232  0.00  0.00     0.169 HD
BRANCH   8  11
HETATM   11  C   UNK N   1      25.046  16.729   4.451  0.00  0.00     0.032 A 
HETATM   12  C   UNK N   1      23.932  17.574   4.363  0.00  0.00     0.020 A 
HETATM   13  C   UNK N   1      22.830  17.397   5.193  0.00  0.00     0.038 A 
HETATM   14  C   UNK N   1      22.828  16.371   6.148  0.00  0.00     0.068 A 
HETATM   15  C   UNK N   1      23.961  15.561   6.287  0.00  0.00     0.038 A 
HETATM   16  C   UNK N   1      25.069  15.744   5.450  0.00  0.00     0.020 A 
BRANCH  14  17
HETATM   17  O   UNK N   1      21.747  16.141   6.930  0.00  0.00    -0.356 OA
HETATM   18  C   UNK N   1      20.648  16.973   6.955  0.00  0.00     0.210 C 
ENDBRANCH  14  17
ENDBRANCH   8  11
ENDBRANCH   1   7
BRANCH   2  19
HETATM   19  C   UNK N   1      28.443  17.222   6.357  0.00  0.00     0.043 C 
BRANCH  19  20
HETATM   20  C   UNK N   1      29.705  17.467   7.164  0.00  0.00     0.040 C 
BRANCH  20  21
HETATM   21  C   UNK N   1      30.923  16.937   6.431  0.00  0.00     0.223 C 
HETATM   22  N   UNK N   1      32.153  17.354   7.122  0.00  0.00     0.088 N 
HETATM   23  C   UNK N   1      32.208  16.693   8.419  0.00  0.00     0.310 C 
HETATM   24  C   UNK N   1      33.321  16.874   6.383  0.00  0.00     0.272 C 
HETATM   25  C   UNK N   1      33.368  17.501   4.995  0.00  0.00     0.030 C 
HETATM   26  C   UNK N   1      32.115  17.101   4.230  0.00  0.00     0.004 C 
HETATM   27  C   UNK N   1      30.879  17.517   5.014  0.00  0.00     0.036 C 
ENDBRANCH  20  21
ENDBRANCH  19  20
ENDBRANCH   2  19
TORSDOF 6
ENDMDL
MODEL 6
REMARK VINA RESULT:      -6.5      1.744      2.357
REMARK  6 active torsions:
REMARK  status: ('A' for Active; 'I' for Inactive)
REMARK       I    between atoms: N_2  and  C_1 
REMARK    1  A    between atoms: C_4  and  C_1 
REMARK    2  A    between atoms: C_3  and  N_2 
REMARK    3  A    between atoms: C_7  and  C_6 
REMARK    4  A    between atoms: C_7  and  C_19 
REMARK    5  A    between atoms: O_13  and  C_10 
REMARK    6  A    between atoms: C_21  and  C_19 
ROOT
HETATM    1  C   UNK N   1      27.275  26.849  -4.607  0.00  0.00     0.041 A 
HETATM    2  C   UNK N   1      26.768  27.168  -5.881  0.00  0.00    -0.031 A 
HETATM    3  C   UNK N   1      28.297  27.650  -4.062  0.00  0.00     0.030 A 
HETATM    4  C   UNK N   1      27.328  28.220  -6.614  0.00  0.00     0.009 A 
HETATM    5  C   UNK N   1      28.846  28.702  -4.795  0.00  0.00     0.002 A 
HETATM    6  C   UNK N   1      28.371  28.978  -6.077  0.00  0.00     0.001 A 
ENDROOT
BRANCH   1   7
HETATM    7  N   UNK N   1      26.718  25.766  -3.862  0.00  0.00    -0.322 N 
HETATM    8  C   UNK N   1      27.377  24.635  -3.463  0.00  0.00     0.256 C 
HETATM    9  O   UNK N   1      26.870  23.941  -2.599  0.00  0.00    -0.267 OA
HETATM   10  H   UNK N   1      25.768  25.840  -3.611  0.00  0.00     0.169 HD
BRANCH   8  11
HETATM   11  C   UNK N   1      28.684  24.209  -4.051  0.00  0.00     0.032 A 
HETATM   12  C   UNK N   1      29.889  24.404  -3.363  0.00  0.00     0.020 A 
HETATM   13  C   UNK N   1      31.094  23.945  -3.883  0.00  0.00     0.038 A 
HETATM   14  C   UNK N   1      31.120  23.290  -5.123  0.00  0.00     0.068 A 
HETATM   15  C   UNK N   1      29.931  23.146  -5.847  0.00  0.00     0.038 A 
HETATM   16  C   UNK N   1      28.720  23.612  -5.320  0.00  0.00     0.020 A 
BRANCH  14  17
HETATM   17  O   UNK N   1      32.270  22.784  -5.626  0.00  0.00    -0.356 OA
HETATM   18  C   UNK N   1      33.515  23.129  -5.147  0.00  0.00     0.210 C 
ENDBRANCH  14  17
ENDBRANCH   8  11
ENDBRANCH   1   7
BRANCH   2  19
HETATM   19  C   UNK N   1      25.631  26.402  -6.462  0.00  0.00     0.043 C 
BRANCH  19  20
HETATM   20  C   UNK N   1      26.014  25.979  -7.869  0.00  0.00     0.040 C 
BRANCH  20  21
HETATM   21  C   UNK N   1      26.225  24.478  -7.939  0.00  0.00     0.223 C 
HETATM   22  N   UNK N   1      25.695  23.949  -9.205  0.00  0.00     0.088 N 
HETATM   23  C   UNK N   1      26.500  24.470 -10.302  0.00  0.00     0.310 C 
HETATM   24  C   UNK N   1      25.864  22.497  -9.244  0.00  0.00     0.272 C 
HETATM   25  C   UNK N   1      25.063  21.838  -8.128  0.00  0.00     0.030 C 
HETATM   26  C   UNK N   1      25.571  22.347  -6.787  0.00  0.00     0.004 C 
HETATM   27  C   UNK N   1      25.482  23.866  -6.748  0.00  0.00     0.036 C 
ENDBRANCH  20  21
ENDBRANCH  19  20
ENDBRANCH   2  19
TORSDOF 6
ENDMDL
MODEL 7
REMARK VINA RESULT:      -6.4      2.495      5.224
REMARK  6 active torsions:
REMARK  status: ('A' for Active; 'I' for Inactive)
REMARK       I    between atoms: N_2  and  C_1 
REMARK    1  A    between atoms: C_4  and  C_1 
REMARK    2  A    between atoms: C_3  and  N_2 
REMARK    3  A    between atoms: C_7  and  C_6 
REMARK    4  A    between atoms: C_7  and  C_19 
REMARK    5  A    between atoms: O_13  and  C_10 
REMARK    6  A    between atoms: C_21  and  C_19 
ROOT
HETATM    1  C   UNK N   1      25.653  24.473  -8.812  0.00  0.00     0.041 A 
HETATM    2  C   UNK N   1      26.019  25.559  -7.996  0.00  0.00    -0.031 A 
HETATM    3  C   UNK N   1      26.172  24.398 -10.119  0.00  0.00     0.030 A 
HETATM    4  C   UNK N   1      26.829  26.578  -8.510  0.00  0.00     0.009 A 
HETATM    5  C   UNK N   1      26.984  25.414 -10.623  0.00  0.00     0.002 A 
HETATM    6  C   UNK N   1      27.301  26.511  -9.822  0.00  0.00     0.001 A 
ENDROOT
BRANCH   1   7
HETATM    7  N   UNK N   1      24.813  23.439  -8.299  0.00  0.00    -0.322 N 
HETATM    8  C   UNK N   1      25.222  22.334  -7.603  0.00  0.00     0.256 C 
HETATM    9  O   UNK N   1      24.389  21.696  -6.983  0.00  0.00    -0.267 OA
HETATM   10  H   UNK N   1      23.845  23.529  -8.462  0.00  0.00     0.169 HD
BRANCH   8  11
HETATM   11  C   UNK N   1      26.643  21.871  -7.581  0.00  0.00     0.032 A 
HETATM   12  C   UNK N   1      27.090  20.853  -8.434  0.00  0.00     0.020 A 
HETATM   13  C   UNK N   1      28.427  20.472  -8.457  0.00  0.00     0.038 A 
HETATM   14  C   UNK N   1      29.350  21.098  -7.608  0.00  0.00     0.068 A 
HETATM   15  C   UNK N   1      28.903  22.072  -6.707  0.00  0.00     0.038 A 
HETATM   16  C   UNK N   1      27.555  22.450  -6.685  0.00  0.00     0.020 A 
BRANCH  14  17
HETATM   17  O   UNK N   1      30.667  20.787  -7.650  0.00  0.00    -0.356 OA
HETATM   18  C   UNK N   1      31.564  21.186  -6.682  0.00  0.00     0.210 C 
ENDBRANCH  14  17
ENDBRANCH   8  11
ENDBRANCH   1   7
BRANCH   2  19
HETATM   19  C   UNK N   1      25.562  25.638  -6.581  0.00  0.00     0.043 C 
BRANCH  19  20
HETATM   20  C   UNK N   1      26.348  26.737  -5.890  0.00  0.00     0.040 C 
BRANCH  20  21
HETATM   21  C   UNK N   1      27.122  26.182  -4.709  0.00  0.00     0.223 C 
HETATM   22  N   UNK N   1      28.466  25.761  -5.134  0.00  0.00     0.088 N 
HETATM   23  C   UNK N   1      29.223  26.943  -5.528  0.00  0.00     0.310 C 
HETATM   24  C   UNK N   1      29.188  25.189  -3.998  0.00  0.00     0.272 C 
HETATM   25  C   UNK N   1      28.479  23.937  -3.494  0.00  0.00     0.030 C 
HETATM   26  C   UNK N   1      27.078  24.313  -3.036  0.00  0.00     0.004 C 
HETATM   27  C   UNK N   1      26.328  24.986  -4.177  0.00  0.00     0.036 C 
ENDBRANCH  20  21
ENDBRANCH  19  20
ENDBRANCH   2  19
TORSDOF 6
ENDMDL
MODEL 8
REMARK VINA RESULT:      -6.4     12.827     15.228
REMARK  6 active torsions:
REMARK  status: ('A' for Active; 'I' for Inactive)
REMARK       I    between atoms: N_2  and  C_1 
REMARK    1  A    between atoms: C_4  and  C_1 
REMARK    2  A    between atoms: C_3  and  N_2 
REMARK    3  A    between atoms: C_7  and  C_6 
REMARK    4  A    between atoms: C_7  and  C_19 
REMARK    5  A    between atoms: O_13  and  C_10 
REMARK    6  A    between atoms: C_21  and  C_19 
ROOT
HETATM    1  C   UNK N   1      27.473  18.517   6.559  0.00  0.00     0.041 A 
HETATM    2  C   UNK N   1      27.272  17.848   5.337  0.00  0.00    -0.031 A 
HETATM    3  C   UNK N   1      27.686  19.909   6.545  0.00  0.00     0.030 A 
HETATM    4  C   UNK N   1      27.356  18.553   4.131  0.00  0.00     0.009 A 
HETATM    5  C   UNK N   1      27.761  20.607   5.340  0.00  0.00     0.002 A 
HETATM    6  C   UNK N   1      27.610  19.926   4.132  0.00  0.00     0.001 A 
ENDROOT
BRANCH   1   7
HETATM    7  N   UNK N   1      27.406  17.799   7.791  0.00  0.00    -0.322 N 
HETATM    8  C   UNK N   1      28.468  17.432   8.573  0.00  0.00     0.256 C 
HETATM    9  O   UNK N   1      28.252  17.087   9.722  0.00  0.00    -0.267 OA
HETATM   10  H   UNK N   1      26.510  17.543   8.109  0.00  0.00     0.169 HD
BRANCH   8  11
HETATM   11  C   UNK N   1      29.877  17.424   8.074  0.00  0.00     0.032 A 
HETATM   12  C   UNK N   1      30.884  18.149   8.727  0.00  0.00     0.020 A 
HETATM   13  C   UNK N   1      32.205  18.084   8.299  0.00  0.00     0.038 A 
HETATM   14  C   UNK N   1      32.547  17.299   7.189  0.00  0.00     0.068 A 
HETATM   15  C   UNK N   1      31.539  16.621   6.492  0.00  0.00     0.038 A 
HETATM   16  C   UNK N   1      30.209  16.691   6.925  0.00  0.00     0.020 A 
BRANCH  14  17
HETATM   17  O   UNK N   1      33.833  17.174   6.785  0.00  0.00    -0.356 OA
HETATM   18  C   UNK N   1      34.653  16.148   7.201  0.00  0.00     0.210 C 
ENDBRANCH  14  17
ENDBRANCH   8  11
ENDBRANCH   1   7
BRANCH   2  19
HETATM   19  C   UNK N   1      26.962  16.392   5.307  0.00  0.00     0.043 C 
BRANCH  19  20
HETATM   20  C   UNK N   1      27.431  15.834   3.976  0.00  0.00     0.040 C 
BRANCH  20  21
HETATM   21  C   UNK N   1      28.669  14.976   4.160  0.00  0.00     0.223 C 
HETATM   22  N   UNK N   1      29.523  15.052   2.964  0.00  0.00     0.088 N 
HETATM   23  C   UNK N   1      30.046  16.406   2.849  0.00  0.00     0.310 C 
HETATM   24  C   UNK N   1      30.690  14.188   3.135  0.00  0.00     0.272 C 
HETATM   25  C   UNK N   1      30.260  12.733   3.271  0.00  0.00     0.030 C 
HETATM   26  C   UNK N   1      29.373  12.592   4.499  0.00  0.00     0.004 C 
HETATM   27  C   UNK N   1      28.187  13.540   4.387  0.00  0.00     0.036 C 
ENDBRANCH  20  21
ENDBRANCH  19  20
ENDBRANCH   2  19
TORSDOF 6
ENDMDL
MODEL 9
REMARK VINA RESULT:      -6.3     12.178     14.352
REMARK  6 active torsions:
REMARK  status: ('A' for Active; 'I' for Inactive)
REMARK       I    between atoms: N_2  and  C_1 
REMARK    1  A    between atoms: C_4  and  C_1 
REMARK    2  A    between atoms: C_3  and  N_2 
REMARK    3  A    between atoms: C_7  and  C_6 
REMARK    4  A    between atoms: C_7  and  C_19 
REMARK    5  A    between atoms: O_13  and  C_10 
REMARK    6  A    between atoms: C_21  and  C_19 
ROOT
HETATM    1  C   UNK N   1      21.542  18.499   4.115  0.00  0.00     0.041 A 
HETATM    2  C   UNK N   1      22.774  19.141   3.894  0.00  0.00    -0.031 A 
HETATM    3  C   UNK N   1      20.429  18.879   3.341  0.00  0.00     0.030 A 
HETATM    4  C   UNK N   1      22.863  20.187   2.968  0.00  0.00     0.009 A 
HETATM    5  C   UNK N   1      20.525  19.918   2.415  0.00  0.00     0.002 A 
HETATM    6  C   UNK N   1      21.739  20.581   2.239  0.00  0.00     0.001 A 
ENDROOT
BRANCH   1   7
HETATM    7  N   UNK N   1      21.442  17.443   5.070  0.00  0.00    -0.322 N 
HETATM    8  C   UNK N   1      21.891  16.160   4.908  0.00  0.00     0.256 C 
HETATM    9  O   UNK N   1      22.002  15.454   5.896  0.00  0.00    -0.267 OA
HETATM   10  H   UNK N   1      21.008  17.658   5.928  0.00  0.00     0.169 HD
BRANCH   8  11
HETATM   11  C   UNK N   1      22.238  15.585   3.573  0.00  0.00     0.032 A 
HETATM   12  C   UNK N   1      23.566  15.296   3.229  0.00  0.00     0.020 A 
HETATM   13  C   UNK N   1      23.876  14.699   2.011  0.00  0.00     0.038 A 
HETATM   14  C   UNK N   1      22.857  14.392   1.099  0.00  0.00     0.068 A 
HETATM   15  C   UNK N   1      21.535  14.735   1.406  0.00  0.00     0.038 A 
HETATM   16  C   UNK N   1      21.227  15.338   2.632  0.00  0.00     0.020 A 
BRANCH  14  17
HETATM   17  O   UNK N   1      23.125  13.761  -0.068  0.00  0.00    -0.356 OA
HETATM   18  C   UNK N   1      23.677  12.500  -0.129  0.00  0.00     0.210 C 
ENDBRANCH  14  17
ENDBRANCH   8  11
ENDBRANCH   1   7
BRANCH   2  19
HETATM   19  C   UNK N   1      23.998  18.717   4.629  0.00  0.00     0.043 C 
BRANCH  19  20
HETATM   20  C   UNK N   1      25.170  18.763   3.665  0.00  0.00     0.040 C 
BRANCH  20  21
HETATM   21  C   UNK N   1      26.428  19.229   4.373  0.00  0.00     0.223 C 
HETATM   22  N   UNK N   1      26.845  18.237   5.376  0.00  0.00     0.088 N 
HETATM   23  C   UNK N   1      27.258  17.022   4.686  0.00  0.00     0.310 C 
HETATM   24  C   UNK N   1      28.033  18.715   6.081  0.00  0.00     0.272 C 
HETATM   25  C   UNK N   1      27.719  19.997   6.843  0.00  0.00     0.030 C 
HETATM   26  C   UNK N   1      27.283  21.067   5.853  0.00  0.00     0.004 C 
HETATM   27  C   UNK N   1      26.094  20.564   5.045  0.00  0.00     0.036 C 
ENDBRANCH  20  21
ENDBRANCH  19  20
ENDBRANCH   2  19
TORSDOF 6
ENDMDL
