MODEL 1
REMARK VINA RESULT:      -7.2      0.000      0.000
REMARK  8 active torsions:
REMARK  status: ('A' for Active; 'I' for Inactive)
REMARK    1  A    between atoms: C_1  and  N_10 
REMARK    2  A    between atoms: N_13  and  C_12 
REMARK    3  A    between atoms: O_22  and  C_20 
REMARK    4  A    between atoms: C_21  and  C_20 
REMARK    5  A    between atoms: C_23  and  O_22 
REMARK    6  A    between atoms: C_23  and  O_29 
REMARK    7  A    between atoms: C_27  and  C_28 
REMARK    8  A    between atoms: O_29  and  C_28 
ROOT
HETATM    1  C   UNK N   1      34.558  16.086   8.803  0.00  0.00     0.197 A 
HETATM    2  N   UNK N   1      35.022  14.802  10.407  0.00  0.00    -0.220 NA
HETATM    3  C   UNK N   1      34.909  14.531   9.011  0.00  0.00     0.160 A 
HETATM    4  C   UNK N   1      34.815  16.076  10.264  0.00  0.00     0.226 A 
HETATM    5  C   UNK N   1      36.754  13.246  10.206  0.00  0.00     0.028 C 
HETATM    6  S   UNK N   1      36.611  14.005   8.546  0.00  0.00    -0.135 SA
HETATM    7  C   UNK N   1      38.193  12.978  10.598  0.00  0.00     0.029 C 
HETATM    8  C   UNK N   1      35.995  11.936  10.104  0.00  0.00     0.029 C 
HETATM    9  O   UNK N   1      35.296  16.953  10.972  0.00  0.00    -0.277 OA
HETATM   10  C   UNK N   1      36.120  14.285  11.144  0.00  0.00     0.184 C 
ENDROOT
BRANCH  10  11
HETATM   11  C   UNK N   1      35.774  13.941  12.570  0.00  0.00     0.280 C 
HETATM   12  O   UNK N   1      34.602  13.793  12.879  0.00  0.00    -0.263 OA
BRANCH  11  13
HETATM   13  O   UNK N   1      36.746  13.730  13.484  0.00  0.00    -0.294 OA
BRANCH  13  14
HETATM   14  C   UNK N   1      36.608  14.181  14.773  0.00  0.00     0.358 C 
BRANCH  14  15
HETATM   15  O   UNK N   1      36.448  13.067  15.561  0.00  0.00    -0.294 OA
BRANCH  15  16
HETATM   16  C   UNK N   1      35.288  12.452  15.888  0.00  0.00     0.268 C 
HETATM   17  O   UNK N   1      34.466  13.081  16.540  0.00  0.00    -0.264 OA
BRANCH  16  18
HETATM   18  C   UNK N   1      35.013  11.010  15.531  0.00  0.00     0.037 C 
HETATM   19  C   UNK N   1      34.845  10.157  16.780  0.00  0.00     0.025 C 
HETATM   20  C   UNK N   1      33.749  10.886  14.705  0.00  0.00     0.025 C 
HETATM   21  C   UNK N   1      36.191  10.468  14.745  0.00  0.00     0.025 C 
ENDBRANCH  16  18
ENDBRANCH  15  16
ENDBRANCH  14  15
ENDBRANCH  13  14
ENDBRANCH  11  13
ENDBRANCH  10  11
BRANCH   1  22
HETATM   22  N   UNK N   1      33.132  16.279   8.707  0.00  0.00    -0.371 N 
HETATM   23  C   UNK N   1      32.511  16.368   7.580  0.00  0.00     0.174 C 
ATOM     24  HN  UNK N   1      32.590  16.347   9.569  1.00  0.00     0.161 HD
BRANCH  23  25
HETATM   25  N   UNK N   1      33.153  16.120   6.331  0.00  0.00    -0.377 N 
HETATM   26  C   UNK N   1      33.640  17.257   5.581  0.00  0.00     0.123 C 
HETATM   27  C   UNK N   1      32.701  17.636   4.451  0.00  0.00     0.020 C 
HETATM   28  C   UNK N   1      32.958  16.791   3.217  0.00  0.00     0.002 C 
HETATM   29  C   UNK N   1      32.541  15.349   3.442  0.00  0.00     0.002 C 
HETATM   30  C   UNK N   1      33.563  14.652   4.325  0.00  0.00     0.020 C 
HETATM   31  C   UNK N   1      33.185  14.760   5.799  0.00  0.00     0.123 C 
ENDBRANCH  23  25
ENDBRANCH   1  22
TORSDOF 8
ENDMDL
MODEL 2
REMARK VINA RESULT:      -7.1      2.315      9.139
REMARK  8 active torsions:
REMARK  status: ('A' for Active; 'I' for Inactive)
REMARK    1  A    between atoms: C_1  and  N_10 
REMARK    2  A    between atoms: N_13  and  C_12 
REMARK    3  A    between atoms: O_22  and  C_20 
REMARK    4  A    between atoms: C_21  and  C_20 
REMARK    5  A    between atoms: C_23  and  O_22 
REMARK    6  A    between atoms: C_23  and  O_29 
REMARK    7  A    between atoms: C_27  and  C_28 
REMARK    8  A    between atoms: O_29  and  C_28 
ROOT
HETATM    1  C   UNK N   1      36.598  12.192  12.764  0.00  0.00     0.197 A 
HETATM    2  N   UNK N   1      36.429  13.806  11.421  0.00  0.00    -0.220 NA
HETATM    3  C   UNK N   1      37.203  12.611  11.335  0.00  0.00     0.160 A 
HETATM    4  C   UNK N   1      35.866  13.462  12.540  0.00  0.00     0.226 A 
HETATM    5  C   UNK N   1      36.219  13.411   9.127  0.00  0.00     0.028 C 
HETATM    6  S   UNK N   1      36.499  11.758   9.864  0.00  0.00    -0.135 SA
HETATM    7  C   UNK N   1      35.217  13.376   7.990  0.00  0.00     0.029 C 
HETATM    8  C   UNK N   1      37.577  13.841   8.604  0.00  0.00     0.029 C 
HETATM    9  O   UNK N   1      34.731  13.774  12.884  0.00  0.00    -0.277 OA
HETATM   10  C   UNK N   1      35.684  14.251  10.297  0.00  0.00     0.184 C 
ENDROOT
BRANCH  10  11
HETATM   11  C   UNK N   1      35.590  15.753  10.200  0.00  0.00     0.280 C 
HETATM   12  O   UNK N   1      36.458  16.439  10.715  0.00  0.00    -0.263 OA
BRANCH  11  13
HETATM   13  O   UNK N   1      34.597  16.337   9.496  0.00  0.00    -0.294 OA
BRANCH  13  14
HETATM   14  C   UNK N   1      34.736  17.613   9.010  0.00  0.00     0.358 C 
BRANCH  14  15
HETATM   15  O   UNK N   1      33.600  17.882   8.287  0.00  0.00    -0.294 OA
BRANCH  15  16
HETATM   16  C   UNK N   1      33.362  17.578   6.990  0.00  0.00     0.268 C 
HETATM   17  O   UNK N   1      34.186  17.925   6.155  0.00  0.00    -0.264 OA
BRANCH  16  18
HETATM   18  C   UNK N   1      32.091  16.891   6.545  0.00  0.00     0.037 C 
HETATM   19  C   UNK N   1      32.208  15.380   6.675  0.00  0.00     0.025 C 
HETATM   20  C   UNK N   1      30.908  17.344   7.377  0.00  0.00     0.025 C 
HETATM   21  C   UNK N   1      31.844  17.221   5.085  0.00  0.00     0.025 C 
ENDBRANCH  16  18
ENDBRANCH  15  16
ENDBRANCH  14  15
ENDBRANCH  13  14
ENDBRANCH  11  13
ENDBRANCH  10  11
BRANCH   1  22
HETATM   22  N   UNK N   1      37.523  12.513  13.824  0.00  0.00    -0.371 N 
HETATM   23  C   UNK N   1      37.355  12.122  15.041  0.00  0.00     0.174 C 
ATOM     24  HN  UNK N   1      38.345  13.073  13.601  1.00  0.00     0.161 HD
BRANCH  23  25
HETATM   25  N   UNK N   1      36.332  11.202  15.417  0.00  0.00    -0.377 N 
HETATM   26  C   UNK N   1      35.198  11.714  16.156  0.00  0.00     0.123 C 
HETATM   27  C   UNK N   1      35.309  11.419  17.640  0.00  0.00     0.020 C 
HETATM   28  C   UNK N   1      34.809  10.023  17.962  0.00  0.00     0.002 C 
HETATM   29  C   UNK N   1      35.744   8.964  17.406  0.00  0.00     0.002 C 
HETATM   30  C   UNK N   1      35.558   8.855  15.902  0.00  0.00     0.020 C 
HETATM   31  C   UNK N   1      36.518   9.778  15.158  0.00  0.00     0.123 C 
ENDBRANCH  23  25
ENDBRANCH   1  22
TORSDOF 8
ENDMDL
MODEL 3
REMARK VINA RESULT:      -6.9      1.313      1.980
REMARK  8 active torsions:
REMARK  status: ('A' for Active; 'I' for Inactive)
REMARK    1  A    between atoms: C_1  and  N_10 
REMARK    2  A    between atoms: N_13  and  C_12 
REMARK    3  A    between atoms: O_22  and  C_20 
REMARK    4  A    between atoms: C_21  and  C_20 
REMARK    5  A    between atoms: C_23  and  O_22 
REMARK    6  A    between atoms: C_23  and  O_29 
REMARK    7  A    between atoms: C_27  and  C_28 
REMARK    8  A    between atoms: O_29  and  C_28 
ROOT
HETATM    1  C   UNK N   1      34.212  16.454   8.840  0.00  0.00     0.197 A 
HETATM    2  N   UNK N   1      34.676  14.999  10.291  0.00  0.00    -0.220 NA
HETATM    3  C   UNK N   1      33.987  14.876   9.047  0.00  0.00     0.160 A 
HETATM    4  C   UNK N   1      34.938  16.259  10.119  0.00  0.00     0.226 A 
HETATM    5  C   UNK N   1      35.488  12.906   9.641  0.00  0.00     0.028 C 
HETATM    6  S   UNK N   1      35.077  13.757   8.073  0.00  0.00    -0.135 SA
HETATM    7  C   UNK N   1      36.751  12.076   9.535  0.00  0.00     0.029 C 
HETATM    8  C   UNK N   1      34.301  12.003   9.918  0.00  0.00     0.029 C 
HETATM    9  O   UNK N   1      35.934  16.836  10.540  0.00  0.00    -0.277 OA
HETATM   10  C   UNK N   1      35.674  14.053  10.646  0.00  0.00     0.184 C 
ENDROOT
BRANCH  10  11
HETATM   11  C   UNK N   1      35.743  13.788  12.128  0.00  0.00     0.280 C 
HETATM   12  O   UNK N   1      34.717  13.821  12.789  0.00  0.00    -0.263 OA
BRANCH  11  13
HETATM   13  O   UNK N   1      36.913  13.449  12.713  0.00  0.00    -0.294 OA
BRANCH  13  14
HETATM   14  C   UNK N   1      37.114  12.181  13.200  0.00  0.00     0.358 C 
BRANCH  14  15
HETATM   15  O   UNK N   1      37.024  12.269  14.567  0.00  0.00    -0.294 OA
BRANCH  15  16
HETATM   16  C   UNK N   1      36.521  11.343  15.417  0.00  0.00     0.268 C 
HETATM   17  O   UNK N   1      37.219  10.381  15.701  0.00  0.00    -0.264 OA
BRANCH  16  18
HETATM   18  C   UNK N   1      35.114  11.433  15.964  0.00  0.00     0.037 C 
HETATM   19  C   UNK N   1      34.102  10.880  14.972  0.00  0.00     0.025 C 
HETATM   20  C   UNK N   1      34.983  10.651  17.255  0.00  0.00     0.025 C 
HETATM   21  C   UNK N   1      34.781  12.891  16.215  0.00  0.00     0.025 C 
ENDBRANCH  16  18
ENDBRANCH  15  16
ENDBRANCH  14  15
ENDBRANCH  13  14
ENDBRANCH  11  13
ENDBRANCH  10  11
BRANCH   1  22
HETATM   22  N   UNK N   1      33.034  17.192   9.225  0.00  0.00    -0.371 N 
HETATM   23  C   UNK N   1      32.156  17.603   8.373  0.00  0.00     0.174 C 
ATOM     24  HN  UNK N   1      32.889  17.399  10.213  1.00  0.00     0.161 HD
BRANCH  23  25
HETATM   25  N   UNK N   1      32.186  17.223   6.999  0.00  0.00    -0.377 N 
HETATM   26  C   UNK N   1      31.163  16.315   6.524  0.00  0.00     0.123 C 
HETATM   27  C   UNK N   1      31.677  14.893   6.409  0.00  0.00     0.020 C 
HETATM   28  C   UNK N   1      32.395  14.673   5.090  0.00  0.00     0.002 C 
HETATM   29  C   UNK N   1      33.706  15.438   5.046  0.00  0.00     0.002 C 
HETATM   30  C   UNK N   1      33.429  16.917   4.831  0.00  0.00     0.020 C 
HETATM   31  C   UNK N   1      33.299  17.654   6.160  0.00  0.00     0.123 C 
ENDBRANCH  23  25
ENDBRANCH   1  22
TORSDOF 8
ENDMDL
MODEL 4
REMARK VINA RESULT:      -6.8      1.538      2.558
REMARK  8 active torsions:
REMARK  status: ('A' for Active; 'I' for Inactive)
REMARK    1  A    between atoms: C_1  and  N_10 
REMARK    2  A    between atoms: N_13  and  C_12 
REMARK    3  A    between atoms: O_22  and  C_20 
REMARK    4  A    between atoms: C_21  and  C_20 
REMARK    5  A    between atoms: C_23  and  O_22 
REMARK    6  A    between atoms: C_23  and  O_29 
REMARK    7  A    between atoms: C_27  and  C_28 
REMARK    8  A    between atoms: O_29  and  C_28 
ROOT
HETATM    1  C   UNK N   1      32.882  16.855   7.091  0.00  0.00     0.197 A 
HETATM    2  N   UNK N   1      33.728  16.031   8.836  0.00  0.00    -0.220 NA
HETATM    3  C   UNK N   1      33.229  15.392   7.662  0.00  0.00     0.160 A 
HETATM    4  C   UNK N   1      33.530  17.228   8.373  0.00  0.00     0.226 A 
HETATM    5  C   UNK N   1      35.290  14.299   8.681  0.00  0.00     0.028 C 
HETATM    6  S   UNK N   1      34.721  14.571   6.963  0.00  0.00    -0.135 SA
HETATM    7  C   UNK N   1      36.772  13.993   8.759  0.00  0.00     0.029 C 
HETATM    8  C   UNK N   1      34.492  13.106   9.173  0.00  0.00     0.029 C 
HETATM    9  O   UNK N   1      34.214  18.210   8.639  0.00  0.00    -0.277 OA
HETATM   10  C   UNK N   1      34.970  15.624   9.391  0.00  0.00     0.184 C 
ENDROOT
BRANCH  10  11
HETATM   11  C   UNK N   1      35.017  15.735  10.894  0.00  0.00     0.280 C 
HETATM   12  O   UNK N   1      35.309  16.805  11.403  0.00  0.00    -0.263 OA
BRANCH  11  13
HETATM   13  O   UNK N   1      34.676  14.687  11.673  0.00  0.00    -0.294 OA
BRANCH  13  14
HETATM   14  C   UNK N   1      35.626  14.011  12.398  0.00  0.00     0.358 C 
BRANCH  14  15
HETATM   15  O   UNK N   1      35.136  13.900  13.676  0.00  0.00    -0.294 OA
BRANCH  15  16
HETATM   16  C   UNK N   1      35.813  13.515  14.784  0.00  0.00     0.268 C 
HETATM   17  O   UNK N   1      36.872  14.071  15.035  0.00  0.00    -0.264 OA
BRANCH  16  18
HETATM   18  C   UNK N   1      35.334  12.385  15.666  0.00  0.00     0.037 C 
HETATM   19  C   UNK N   1      34.931  12.895  17.042  0.00  0.00     0.025 C 
HETATM   20  C   UNK N   1      34.136  11.688  15.054  0.00  0.00     0.025 C 
HETATM   21  C   UNK N   1      36.465  11.392  15.845  0.00  0.00     0.025 C 
ENDBRANCH  16  18
ENDBRANCH  15  16
ENDBRANCH  14  15
ENDBRANCH  13  14
ENDBRANCH  11  13
ENDBRANCH  10  11
BRANCH   1  22
HETATM   22  N   UNK N   1      31.492  17.170   7.306  0.00  0.00    -0.371 N 
HETATM   23  C   UNK N   1      30.632  17.232   6.346  0.00  0.00     0.174 C 
ATOM     24  HN  UNK N   1      31.173  17.352   8.257  1.00  0.00     0.161 HD
BRANCH  23  25
HETATM   25  N   UNK N   1      30.942  16.834   5.013  0.00  0.00    -0.377 N 
HETATM   26  C   UNK N   1      30.491  15.531   4.571  0.00  0.00     0.123 C 
HETATM   27  C   UNK N   1      31.608  14.505   4.602  0.00  0.00     0.020 C 
HETATM   28  C   UNK N   1      32.450  14.571   3.341  0.00  0.00     0.002 C 
HETATM   29  C   UNK N   1      33.263  15.852   3.291  0.00  0.00     0.002 C 
HETATM   30  C   UNK N   1      32.357  17.020   2.937  0.00  0.00     0.020 C 
HETATM   31  C   UNK N   1      31.797  17.685   4.191  0.00  0.00     0.123 C 
ENDBRANCH  23  25
ENDBRANCH   1  22
TORSDOF 8
ENDMDL
MODEL 5
REMARK VINA RESULT:      -6.8      2.954      9.161
REMARK  8 active torsions:
REMARK  status: ('A' for Active; 'I' for Inactive)
REMARK    1  A    between atoms: C_1  and  N_10 
REMARK    2  A    between atoms: N_13  and  C_12 
REMARK    3  A    between atoms: O_22  and  C_20 
REMARK    4  A    between atoms: C_21  and  C_20 
REMARK    5  A    between atoms: C_23  and  O_22 
REMARK    6  A    between atoms: C_23  and  O_29 
REMARK    7  A    between atoms: C_27  and  C_28 
REMARK    8  A    between atoms: O_29  and  C_28 
ROOT
HETATM    1  C   UNK N   1      35.124  12.993  13.434  0.00  0.00     0.197 A 
HETATM    2  N   UNK N   1      35.461  12.586  11.395  0.00  0.00    -0.220 NA
HETATM    3  C   UNK N   1      35.514  11.722  12.529  0.00  0.00     0.160 A 
HETATM    4  C   UNK N   1      35.072  13.613  12.088  0.00  0.00     0.226 A 
HETATM    5  C   UNK N   1      34.571  10.659  10.417  0.00  0.00     0.028 C 
HETATM    6  S   UNK N   1      34.170  10.508  12.197  0.00  0.00    -0.135 SA
HETATM    7  C   UNK N   1      33.451  10.158   9.527  0.00  0.00     0.029 C 
HETATM    8  C   UNK N   1      35.807   9.801  10.220  0.00  0.00     0.029 C 
HETATM    9  O   UNK N   1      34.345  14.509  11.674  0.00  0.00    -0.277 OA
HETATM   10  C   UNK N   1      34.794  12.165  10.214  0.00  0.00     0.184 C 
ENDROOT
BRANCH  10  11
HETATM   11  C   UNK N   1      35.423  12.698   8.952  0.00  0.00     0.280 C 
HETATM   12  O   UNK N   1      36.602  13.012   8.961  0.00  0.00    -0.263 OA
BRANCH  11  13
HETATM   13  O   UNK N   1      34.714  12.765   7.804  0.00  0.00    -0.294 OA
BRANCH  13  14
HETATM   14  C   UNK N   1      33.613  13.579   7.704  0.00  0.00     0.358 C 
BRANCH  14  15
HETATM   15  O   UNK N   1      34.020  14.834   8.086  0.00  0.00    -0.294 OA
BRANCH  15  16
HETATM   16  C   UNK N   1      34.384  15.859   7.281  0.00  0.00     0.268 C 
HETATM   17  O   UNK N   1      35.401  15.736   6.614  0.00  0.00    -0.264 OA
BRANCH  16  18
HETATM   18  C   UNK N   1      33.615  17.160   7.236  0.00  0.00     0.037 C 
HETATM   19  C   UNK N   1      34.399  18.286   7.891  0.00  0.00     0.025 C 
HETATM   20  C   UNK N   1      33.316  17.565   5.806  0.00  0.00     0.025 C 
HETATM   21  C   UNK N   1      32.316  16.985   7.998  0.00  0.00     0.025 C 
ENDBRANCH  16  18
ENDBRANCH  15  16
ENDBRANCH  14  15
ENDBRANCH  13  14
ENDBRANCH  11  13
ENDBRANCH  10  11
BRANCH   1  22
HETATM   22  N   UNK N   1      36.300  13.572  14.034  0.00  0.00    -0.371 N 
HETATM   23  C   UNK N   1      36.556  13.489  15.295  0.00  0.00     0.174 C 
ATOM     24  HN  UNK N   1      36.959  14.069  13.435  1.00  0.00     0.161 HD
BRANCH  23  25
HETATM   25  N   UNK N   1      35.787  12.679  16.182  0.00  0.00    -0.377 N 
HETATM   26  C   UNK N   1      34.811  13.335  17.026  0.00  0.00     0.123 C 
HETATM   27  C   UNK N   1      35.321  13.519  18.443  0.00  0.00     0.020 C 
HETATM   28  C   UNK N   1      35.103  12.266  19.272  0.00  0.00     0.002 C 
HETATM   29  C   UNK N   1      36.005  11.137  18.806  0.00  0.00     0.002 C 
HETATM   30  C   UNK N   1      35.472  10.560  17.505  0.00  0.00     0.020 C 
HETATM   31  C   UNK N   1      36.090  11.256  16.297  0.00  0.00     0.123 C 
ENDBRANCH  23  25
ENDBRANCH   1  22
TORSDOF 8
ENDMDL
MODEL 6
REMARK VINA RESULT:      -6.6      3.663      4.977
REMARK  8 active torsions:
REMARK  status: ('A' for Active; 'I' for Inactive)
REMARK    1  A    between atoms: C_1  and  N_10 
REMARK    2  A    between atoms: N_13  and  C_12 
REMARK    3  A    between atoms: O_22  and  C_20 
REMARK    4  A    between atoms: C_21  and  C_20 
REMARK    5  A    between atoms: C_23  and  O_22 
REMARK    6  A    between atoms: C_23  and  O_29 
REMARK    7  A    between atoms: C_27  and  C_28 
REMARK    8  A    between atoms: O_29  and  C_28 
ROOT
HETATM    1  C   UNK N   1      30.515  17.288   7.330  0.00  0.00     0.197 A 
HETATM    2  N   UNK N   1      32.140  16.337   8.275  0.00  0.00    -0.220 NA
HETATM    3  C   UNK N   1      31.294  15.886   7.219  0.00  0.00     0.160 A 
HETATM    4  C   UNK N   1      31.580  17.507   8.339  0.00  0.00     0.226 A 
HETATM    5  C   UNK N   1      33.735  15.194   7.006  0.00  0.00     0.028 C 
HETATM    6  S   UNK N   1      32.453  15.701   5.802  0.00  0.00    -0.135 SA
HETATM    7  C   UNK N   1      35.136  15.300   6.440  0.00  0.00     0.029 C 
HETATM    8  C   UNK N   1      33.418  13.745   7.328  0.00  0.00     0.029 C 
HETATM    9  O   UNK N   1      32.151  18.547   8.650  0.00  0.00    -0.277 OA
HETATM   10  C   UNK N   1      33.547  16.169   8.179  0.00  0.00     0.184 C 
ENDROOT
BRANCH  10  11
HETATM   11  C   UNK N   1      34.211  15.926   9.510  0.00  0.00     0.280 C 
HETATM   12  O   UNK N   1      35.158  16.622   9.839  0.00  0.00    -0.263 OA
BRANCH  11  13
HETATM   13  O   UNK N   1      33.728  14.996  10.362  0.00  0.00    -0.294 OA
BRANCH  13  14
HETATM   14  C   UNK N   1      34.528  13.979  10.821  0.00  0.00     0.358 C 
BRANCH  14  15
HETATM   15  O   UNK N   1      34.516  14.061  12.191  0.00  0.00    -0.294 OA
BRANCH  15  16
HETATM   16  C   UNK N   1      35.585  14.154  13.017  0.00  0.00     0.268 C 
HETATM   17  O   UNK N   1      36.280  15.158  12.949  0.00  0.00    -0.264 OA
BRANCH  16  18
HETATM   18  C   UNK N   1      35.974  13.038  13.959  0.00  0.00     0.037 C 
HETATM   19  C   UNK N   1      36.525  13.588  15.265  0.00  0.00     0.025 C 
HETATM   20  C   UNK N   1      34.782  12.160  14.283  0.00  0.00     0.025 C 
HETATM   21  C   UNK N   1      37.058  12.203  13.305  0.00  0.00     0.025 C 
ENDBRANCH  16  18
ENDBRANCH  15  16
ENDBRANCH  14  15
ENDBRANCH  13  14
ENDBRANCH  11  13
ENDBRANCH  10  11
BRANCH   1  22
HETATM   22  N   UNK N   1      29.318  17.146   8.121  0.00  0.00    -0.371 N 
HETATM   23  C   UNK N   1      28.214  17.749   7.836  0.00  0.00     0.174 C 
ATOM     24  HN  UNK N   1      29.345  16.542   8.943  1.00  0.00     0.161 HD
BRANCH  23  25
HETATM   25  N   UNK N   1      28.031  18.478   6.624  0.00  0.00    -0.377 N 
HETATM   26  C   UNK N   1      28.167  19.918   6.671  0.00  0.00     0.123 C 
HETATM   27  C   UNK N   1      26.819  20.613   6.704  0.00  0.00     0.020 C 
HETATM   28  C   UNK N   1      26.251  20.776   5.306  0.00  0.00     0.002 C 
HETATM   29  C   UNK N   1      25.847  19.435   4.719  0.00  0.00     0.002 C 
HETATM   30  C   UNK N   1      27.089  18.667   4.296  0.00  0.00     0.020 C 
HETATM   31  C   UNK N   1      27.596  17.772   5.422  0.00  0.00     0.123 C 
ENDBRANCH  23  25
ENDBRANCH   1  22
TORSDOF 8
ENDMDL
MODEL 7
REMARK VINA RESULT:      -6.5      7.854     11.003
REMARK  8 active torsions:
REMARK  status: ('A' for Active; 'I' for Inactive)
REMARK    1  A    between atoms: C_1  and  N_10 
REMARK    2  A    between atoms: N_13  and  C_12 
REMARK    3  A    between atoms: O_22  and  C_20 
REMARK    4  A    between atoms: C_21  and  C_20 
REMARK    5  A    between atoms: C_23  and  O_22 
REMARK    6  A    between atoms: C_23  and  O_29 
REMARK    7  A    between atoms: C_27  and  C_28 
REMARK    8  A    between atoms: O_29  and  C_28 
ROOT
HETATM    1  C   UNK N   1      25.277  17.700   4.156  0.00  0.00     0.197 A 
HETATM    2  N   UNK N   1      27.274  17.284   4.684  0.00  0.00    -0.220 NA
HETATM    3  C   UNK N   1      26.194  16.399   4.387  0.00  0.00     0.160 A 
HETATM    4  C   UNK N   1      26.580  18.353   4.431  0.00  0.00     0.226 A 
HETATM    5  C   UNK N   1      28.472  15.630   3.548  0.00  0.00     0.028 C 
HETATM    6  S   UNK N   1      26.772  15.523   2.875  0.00  0.00    -0.135 SA
HETATM    7  C   UNK N   1      29.530  15.414   2.485  0.00  0.00     0.029 C 
HETATM    8  C   UNK N   1      28.552  14.525   4.585  0.00  0.00     0.029 C 
HETATM    9  O   UNK N   1      27.034  19.398   3.980  0.00  0.00    -0.277 OA
HETATM   10  C   UNK N   1      28.555  17.054   4.117  0.00  0.00     0.184 C 
ENDROOT
BRANCH  10  11
HETATM   11  C   UNK N   1      29.690  17.469   5.019  0.00  0.00     0.280 C 
HETATM   12  O   UNK N   1      29.508  17.510   6.225  0.00  0.00    -0.263 OA
BRANCH  11  13
HETATM   13  O   UNK N   1      30.915  17.727   4.511  0.00  0.00    -0.294 OA
BRANCH  13  14
HETATM   14  C   UNK N   1      31.980  16.908   4.793  0.00  0.00     0.358 C 
BRANCH  14  15
HETATM   15  O   UNK N   1      32.836  17.638   5.580  0.00  0.00    -0.294 OA
BRANCH  15  16
HETATM   16  C   UNK N   1      33.778  17.163   6.428  0.00  0.00     0.268 C 
HETATM   17  O   UNK N   1      34.646  16.432   5.973  0.00  0.00    -0.264 OA
BRANCH  16  18
HETATM   18  C   UNK N   1      33.747  17.452   7.911  0.00  0.00     0.037 C 
HETATM   19  C   UNK N   1      32.344  17.821   8.370  0.00  0.00     0.025 C 
HETATM   20  C   UNK N   1      34.201  16.247   8.709  0.00  0.00     0.025 C 
HETATM   21  C   UNK N   1      34.661  18.627   8.198  0.00  0.00     0.025 C 
ENDBRANCH  16  18
ENDBRANCH  15  16
ENDBRANCH  14  15
ENDBRANCH  13  14
ENDBRANCH  11  13
ENDBRANCH  10  11
BRANCH   1  22
HETATM   22  N   UNK N   1      24.494  17.988   5.332  0.00  0.00    -0.371 N 
HETATM   23  C   UNK N   1      23.238  18.277   5.283  0.00  0.00     0.174 C 
ATOM     24  HN  UNK N   1      24.953  17.962   6.242  1.00  0.00     0.161 HD
BRANCH  23  25
HETATM   25  N   UNK N   1      22.475  18.176   4.083  0.00  0.00    -0.377 N 
HETATM   26  C   UNK N   1      22.171  19.397   3.367  0.00  0.00     0.123 C 
HETATM   27  C   UNK N   1      20.755  19.872   3.633  0.00  0.00     0.020 C 
HETATM   28  C   UNK N   1      19.761  19.168   2.727  0.00  0.00     0.002 C 
HETATM   29  C   UNK N   1      19.627  17.701   3.095  0.00  0.00     0.002 C 
HETATM   30  C   UNK N   1      20.848  16.938   2.611  0.00  0.00     0.020 C 
HETATM   31  C   UNK N   1      21.927  16.881   3.688  0.00  0.00     0.123 C 
ENDBRANCH  23  25
ENDBRANCH   1  22
TORSDOF 8
ENDMDL
MODEL 8
REMARK VINA RESULT:      -6.4     11.266     14.203
REMARK  8 active torsions:
REMARK  status: ('A' for Active; 'I' for Inactive)
REMARK    1  A    between atoms: C_1  and  N_10 
REMARK    2  A    between atoms: N_13  and  C_12 
REMARK    3  A    between atoms: O_22  and  C_20 
REMARK    4  A    between atoms: C_21  and  C_20 
REMARK    5  A    between atoms: C_23  and  O_22 
REMARK    6  A    between atoms: C_23  and  O_29 
REMARK    7  A    between atoms: C_27  and  C_28 
REMARK    8  A    between atoms: O_29  and  C_28 
ROOT
HETATM    1  C   UNK N   1      25.086  15.126   6.294  0.00  0.00     0.197 A 
HETATM    2  N   UNK N   1      23.332  14.083   6.817  0.00  0.00    -0.220 NA
HETATM    3  C   UNK N   1      24.701  13.697   6.923  0.00  0.00     0.160 A 
HETATM    4  C   UNK N   1      23.613  15.273   6.378  0.00  0.00     0.226 A 
HETATM    5  C   UNK N   1      23.216  12.913   8.837  0.00  0.00     0.028 C 
HETATM    6  S   UNK N   1      24.946  13.506   8.737  0.00  0.00    -0.135 SA
HETATM    7  C   UNK N   1      22.662  12.979  10.246  0.00  0.00     0.029 C 
HETATM    8  C   UNK N   1      23.270  11.470   8.372  0.00  0.00     0.029 C 
HETATM    9  O   UNK N   1      22.945  16.279   6.589  0.00  0.00    -0.277 OA
HETATM   10  C   UNK N   1      22.446  13.861   7.905  0.00  0.00     0.184 C 
ENDROOT
BRANCH  10  11
HETATM   11  C   UNK N   1      21.035  13.554   7.472  0.00  0.00     0.280 C 
HETATM   12  O   UNK N   1      20.108  13.861   8.203  0.00  0.00    -0.263 OA
BRANCH  11  13
HETATM   13  O   UNK N   1      20.789  13.008   6.261  0.00  0.00    -0.294 OA
BRANCH  13  14
HETATM   14  C   UNK N   1      19.906  13.597   5.391  0.00  0.00     0.358 C 
BRANCH  14  15
HETATM   15  O   UNK N   1      20.374  14.867   5.161  0.00  0.00    -0.294 OA
BRANCH  15  16
HETATM   16  C   UNK N   1      19.766  15.850   4.456  0.00  0.00     0.268 C 
HETATM   17  O   UNK N   1      18.681  16.255   4.848  0.00  0.00    -0.264 OA
BRANCH  16  18
HETATM   18  C   UNK N   1      20.353  16.405   3.178  0.00  0.00     0.037 C 
HETATM   19  C   UNK N   1      19.811  17.795   2.883  0.00  0.00     0.025 C 
HETATM   20  C   UNK N   1      21.863  16.498   3.270  0.00  0.00     0.025 C 
HETATM   21  C   UNK N   1      19.967  15.495   2.029  0.00  0.00     0.025 C 
ENDBRANCH  16  18
ENDBRANCH  15  16
ENDBRANCH  14  15
ENDBRANCH  13  14
ENDBRANCH  11  13
ENDBRANCH  10  11
BRANCH   1  22
HETATM   22  N   UNK N   1      25.339  15.009   4.879  0.00  0.00    -0.371 N 
HETATM   23  C   UNK N   1      25.659  16.016   4.139  0.00  0.00     0.174 C 
ATOM     24  HN  UNK N   1      25.261  14.090   4.443  1.00  0.00     0.161 HD
BRANCH  23  25
HETATM   25  N   UNK N   1      25.953  17.302   4.682  0.00  0.00    -0.377 N 
HETATM   26  C   UNK N   1      24.955  18.341   4.541  0.00  0.00     0.123 C 
HETATM   27  C   UNK N   1      25.288  19.297   3.411  0.00  0.00     0.020 C 
HETATM   28  C   UNK N   1      26.255  20.374   3.870  0.00  0.00     0.002 C 
HETATM   29  C   UNK N   1      27.631  19.794   4.146  0.00  0.00     0.002 C 
HETATM   30  C   UNK N   1      27.610  19.031   5.460  0.00  0.00     0.020 C 
HETATM   31  C   UNK N   1      27.277  17.559   5.240  0.00  0.00     0.123 C 
ENDBRANCH  23  25
ENDBRANCH   1  22
TORSDOF 8
ENDMDL
MODEL 9
REMARK VINA RESULT:      -6.1     17.011     19.681
REMARK  8 active torsions:
REMARK  status: ('A' for Active; 'I' for Inactive)
REMARK    1  A    between atoms: C_1  and  N_10 
REMARK    2  A    between atoms: N_13  and  C_12 
REMARK    3  A    between atoms: O_22  and  C_20 
REMARK    4  A    between atoms: C_21  and  C_20 
REMARK    5  A    between atoms: C_23  and  O_22 
REMARK    6  A    between atoms: C_23  and  O_29 
REMARK    7  A    between atoms: C_27  and  C_28 
REMARK    8  A    between atoms: O_29  and  C_28 
ROOT
HETATM    1  C   UNK N   1      28.567  24.767  -4.114  0.00  0.00     0.197 A 
HETATM    2  N   UNK N   1      30.237  23.488  -4.226  0.00  0.00    -0.220 NA
HETATM    3  C   UNK N   1      29.638  24.313  -5.224  0.00  0.00     0.160 A 
HETATM    4  C   UNK N   1      29.434  23.891  -3.289  0.00  0.00     0.226 A 
HETATM    5  C   UNK N   1      32.178  24.182  -5.328  0.00  0.00     0.028 C 
HETATM    6  S   UNK N   1      30.966  25.522  -5.625  0.00  0.00    -0.135 SA
HETATM    7  C   UNK N   1      33.580  24.710  -5.097  0.00  0.00     0.029 C 
HETATM    8  C   UNK N   1      32.147  23.340  -6.590  0.00  0.00     0.029 C 
HETATM    9  O   UNK N   1      29.727  23.987  -2.102  0.00  0.00    -0.277 OA
HETATM   10  C   UNK N   1      31.649  23.477  -4.070  0.00  0.00     0.184 C 
ENDROOT
BRANCH  10  11
HETATM   11  C   UNK N   1      32.190  22.138  -3.640  0.00  0.00     0.280 C 
HETATM   12  O   UNK N   1      32.115  21.813  -2.465  0.00  0.00    -0.263 OA
BRANCH  11  13
HETATM   13  O   UNK N   1      32.693  21.274  -4.548  0.00  0.00    -0.294 OA
BRANCH  13  14
HETATM   14  C   UNK N   1      32.190  20.001  -4.661  0.00  0.00     0.358 C 
BRANCH  14  15
HETATM   15  O   UNK N   1      31.137  20.075  -5.539  0.00  0.00    -0.294 OA
BRANCH  15  16
HETATM   16  C   UNK N   1      31.170  19.880  -6.879  0.00  0.00     0.268 C 
HETATM   17  O   UNK N   1      32.247  19.623  -7.397  0.00  0.00    -0.264 OA
BRANCH  16  18
HETATM   18  C   UNK N   1      29.942  20.037  -7.745  0.00  0.00     0.037 C 
HETATM   19  C   UNK N   1      29.125  18.755  -7.780  0.00  0.00     0.025 C 
HETATM   20  C   UNK N   1      29.050  21.149  -7.228  0.00  0.00     0.025 C 
HETATM   21  C   UNK N   1      30.381  20.355  -9.161  0.00  0.00     0.025 C 
ENDBRANCH  16  18
ENDBRANCH  15  16
ENDBRANCH  14  15
ENDBRANCH  13  14
ENDBRANCH  11  13
ENDBRANCH  10  11
BRANCH   1  22
HETATM   22  N   UNK N   1      27.345  24.012  -4.245  0.00  0.00    -0.371 N 
HETATM   23  C   UNK N   1      26.183  24.568  -4.315  0.00  0.00     0.174 C 
ATOM     24  HN  UNK N   1      27.401  22.995  -4.285  1.00  0.00     0.161 HD
BRANCH  23  25
HETATM   25  N   UNK N   1      26.014  25.979  -4.434  0.00  0.00    -0.377 N 
HETATM   26  C   UNK N   1      25.734  26.520  -5.747  0.00  0.00     0.123 C 
HETATM   27  C   UNK N   1      26.971  27.119  -6.389  0.00  0.00     0.020 C 
HETATM   28  C   UNK N   1      27.197  28.545  -5.919  0.00  0.00     0.002 C 
HETATM   29  C   UNK N   1      27.607  28.582  -4.458  0.00  0.00     0.002 C 
HETATM   30  C   UNK N   1      26.396  28.317  -3.579  0.00  0.00     0.020 C 
HETATM   31  C   UNK N   1      26.250  26.830  -3.272  0.00  0.00     0.123 C 
ENDBRANCH  23  25
ENDBRANCH   1  22
TORSDOF 8
ENDMDL
