REMARK  9 active torsions:
REMARK  status: ('A' for Active; 'I' for Inactive)
REMARK    1  A    between atoms: C_13  and  O_3 
REMARK    2  A    between atoms: O_5  and  C_19 
REMARK    3  A    between atoms: O_5  and  C_26 
REMARK    4  A    between atoms: O_6  and  C_21 
REMARK    5  A    between atoms: N_11  and  C_13 
REMARK       I    between atoms: N_11  and  C_20 
REMARK       I    between atoms: N_12  and  C_26 
REMARK    6  A    between atoms: C_16  and  C_21 
REMARK    7  A    between atoms: C_17  and  C_19 
REMARK    8  A    between atoms: C_20  and  C_23 
REMARK    9  A    between atoms: C_23  and  C_24 
ROOT
HETATM    1  S   UNK N   1       4.828  -1.021  -0.763  0.00  0.00    -0.133 SA
HETATM    2  O   UNK N   1       8.315   1.638  -0.680  0.00  0.00    -0.267 OA
HETATM    3  N   UNK N   1       6.261   0.994   0.055  0.00  0.00    -0.288 N 
HETATM    4  C   UNK N   1       7.616  -0.610   0.112  0.00  0.00     0.250 A 
HETATM    5  C   UNK N   1       6.031  -0.360   0.430  0.00  0.00     0.221 A 
HETATM    6  C   UNK N   1       7.529   0.840  -0.200  0.00  0.00     0.285 A 
HETATM    7  C   UNK N   1       5.320   2.044  -0.175  0.00  0.00     0.118 C 
HETATM    8  C   UNK N   1       4.019   1.685  -0.379  0.00  0.00    -0.013 C 
HETATM    9  C   UNK N   1       3.579   0.233  -0.285  0.00  0.00     0.115 C 
ENDROOT
BRANCH   4  10
HETATM   10  O   UNK N   1       7.902  -1.390  -1.026  0.00  0.00    -0.355 OA
HETATM   11  C   UNK N   1       7.537  -2.711  -0.731  0.00  0.00     0.205 C 
ENDBRANCH   4  10
BRANCH   4  12
HETATM   12  N   UNK N   1       8.462  -0.860   1.265  0.00  0.00    -0.319 N 
HETATM   13  C   UNK N   1       9.820  -0.895   1.225  0.00  0.00     0.225 C 
HETATM   14  O   UNK N   1      10.439  -1.076   2.261  0.00  0.00    -0.273 OA
HETATM   15  H   UNK N   1       8.023  -1.015   2.133  0.00  0.00     0.166 HD
BRANCH  13  16
HETATM   16  C   UNK N   1      10.586  -0.724  -0.058  0.00  0.00     0.148 C 
BRANCH  16  17
HETATM   17  C   UNK N   1      11.374  -1.961  -0.339  0.00  0.00    -0.009 A 
HETATM   18  S   UNK N   1      10.789  -3.386  -0.935  0.00  0.00    -0.106 SA
HETATM   19  C   UNK N   1      12.171  -4.301  -0.902  0.00  0.00     0.050 A 
HETATM   20  C   UNK N   1      13.174  -3.463  -0.391  0.00  0.00     0.008 A 
HETATM   21  C   UNK N   1      12.727  -2.148  -0.073  0.00  0.00     0.015 A 
ENDBRANCH  16  17
ENDBRANCH  13  16
ENDBRANCH   4  12
BRANCH   7  22
HETATM   22  C   UNK N   1       5.783   3.471  -0.210  0.00  0.00     0.194 C 
HETATM   23  O   UNK N   1       6.942   3.743   0.056  0.00  0.00    -0.645 OA
BRANCH  22  24
HETATM   24  O   UNK N   1       4.923   4.483  -0.439  0.00  0.00    -0.772 OA
HETATM   25  H   UNK N   1       5.233   5.353  -0.597  0.00  0.00     0.167 HD
ENDBRANCH  22  24
ENDBRANCH   7  22
BRANCH   8  26
HETATM   26  C   UNK N   1       2.959   2.689  -0.733  0.00  0.00     0.218 C 
BRANCH  26  27
HETATM   27  O   UNK N   1       2.072   2.866   0.304  0.00  0.00    -0.300 OA
BRANCH  27  28
HETATM   28  C   UNK N   1       0.937   2.140   0.445  0.00  0.00     0.358 C 
HETATM   29  O   UNK N   1       0.159   2.414   1.342  0.00  0.00    -0.239 OA
HETATM   30  N   UNK N   1       0.658   1.114  -0.387  0.00  0.00    -0.346 N 
HETATM   31  H   UNK N   1      -0.092   0.916  -0.994  0.00  0.00     0.161 HD
HETATM   32  H   UNK N   1       1.352   0.416  -0.387  0.00  0.00     0.161 HD
ENDBRANCH  27  28
ENDBRANCH  26  27
ENDBRANCH   8  26
TORSDOF 9
