MODEL 1
REMARK VINA RESULT:      -6.5      0.000      0.000
REMARK  12 active torsions:
REMARK  status: ('A' for Active; 'I' for Inactive)
REMARK    1  A    between atoms: C_6  and  C_5 
REMARK    2  A    between atoms: C_10  and  C_6 
REMARK    3  A    between atoms: C_12  and  C_9 
REMARK    4  A    between atoms: C_9  and  O_22 
REMARK    5  A    between atoms: C_11  and  C_17 
REMARK    6  A    between atoms: C_16  and  C_12 
REMARK    7  A    between atoms: C_12  and  N_19 
REMARK    8  A    between atoms: C_13  and  O_23 
REMARK    9  A    between atoms: C_14  and  O_24 
REMARK   10  A    between atoms: C_15  and  O_25 
REMARK   11  A    between atoms: C_17  and  O_26 
REMARK   12  A    between atoms: C_18  and  S_28 
ROOT
HETATM    1  C   UNK N   1      31.947  16.158   5.644  0.00  0.00     0.143 C 
ENDROOT
BRANCH   1   2
HETATM    2  C   UNK N   1      32.334  14.758   5.129  0.00  0.00     0.139 C 
HETATM    3  C   UNK N   1      31.394  14.260   4.041  0.00  0.00     0.041 C 
BRANCH   2   4
HETATM    4  O   UNK N   1      33.635  14.782   4.624  0.00  0.00    -0.394 OA
HETATM    5  H   UNK N   1      34.159  13.970   4.541  0.00  0.00     0.210 HD
ENDBRANCH   2   4
ENDBRANCH   1   2
BRANCH   1   6
HETATM    6  C   UNK N   1      32.618  16.507   6.996  0.00  0.00     0.179 C 
HETATM    7  C   UNK N   1      33.557  17.758   6.912  0.00  0.00     0.180 C 
HETATM    8  C   UNK N   1      34.566  17.781   8.082  0.00  0.00     0.181 C 
HETATM    9  C   UNK N   1      33.943  17.084   9.287  0.00  0.00     0.188 C 
HETATM   10  C   UNK N   1      33.650  15.593   8.892  0.00  0.00     0.214 C 
HETATM   11  O   UNK N   1      33.326  15.402   7.510  0.00  0.00    -0.363 OA
BRANCH   7  12
HETATM   12  O   UNK N   1      34.275  17.807   5.715  0.00  0.00    -0.390 OA
HETATM   13  H   UNK N   1      34.395  18.363   4.928  0.00  0.00     0.210 HD
ENDBRANCH   7  12
BRANCH   8  14
HETATM   14  O   UNK N   1      34.927  19.100   8.375  0.00  0.00    -0.390 OA
HETATM   15  H   UNK N   1      35.781  19.492   8.136  0.00  0.00     0.210 HD
ENDBRANCH   8  14
BRANCH   9  16
HETATM   16  O   UNK N   1      34.769  17.162  10.413  0.00  0.00    -0.389 OA
HETATM   17  H   UNK N   1      34.458  16.831  11.270  0.00  0.00     0.210 HD
ENDBRANCH   9  16
BRANCH  10  18
HETATM   18  S   UNK N   1      35.097  14.525   9.240  0.00  0.00    -0.139 SA
HETATM   19  C   UNK N   1      35.527  14.282   7.486  0.00  0.00     0.092 C 
ENDBRANCH  10  18
ENDBRANCH   1   6
BRANCH   1  20
HETATM   20  N   UNK N   1      30.509  16.269   5.830  0.00  0.00    -0.363 N 
HETATM   21  C   UNK N   1      29.777  17.165   5.259  0.00  0.00     0.146 C 
ATOM     22  HN  UNK N   1      30.052  15.600   6.449  1.00  0.00     0.162 HD
BRANCH  21  23
HETATM   23  C   UNK N   1      28.351  17.357   5.741  0.00  0.00     0.296 C 
HETATM   24  C   UNK N   1      28.167  18.828   6.044  0.00  0.00     0.050 C 
HETATM   25  C   UNK N   1      27.703  19.390   4.730  0.00  0.00     0.016 C 
HETATM   26  C   UNK N   1      26.801  18.282   4.208  0.00  0.00     0.277 C 
HETATM   27  N   UNK N   1      27.277  17.020   4.785  0.00  0.00     0.097 N 
HETATM   28  C   UNK N   1      27.662  16.096   3.725  0.00  0.00     0.310 C 
BRANCH  25  29
HETATM   29  C   UNK N   1      27.001  20.719   4.959  0.00  0.00     0.006 C 
BRANCH  29  30
HETATM   30  C   UNK N   1      27.431  21.377   6.256  0.00  0.00    -0.004 C 
HETATM   31  C   UNK N   1      26.206  21.642   7.103  0.00  0.00     0.005 C 
ENDBRANCH  29  30
ENDBRANCH  25  29
ENDBRANCH  21  23
BRANCH  21  32
HETATM   32  O   UNK N   1      30.309  18.017   4.353  0.00  0.00    -0.348 OA
HETATM   33  H   UNK N   1      30.587  18.758   3.853  0.00  0.00     0.219 HD
ENDBRANCH  21  32
ENDBRANCH   1  20
TORSDOF 12
ENDMDL
MODEL 2
REMARK VINA RESULT:      -6.4      5.249      9.500
REMARK  12 active torsions:
REMARK  status: ('A' for Active; 'I' for Inactive)
REMARK    1  A    between atoms: C_6  and  C_5 
REMARK    2  A    between atoms: C_10  and  C_6 
REMARK    3  A    between atoms: C_12  and  C_9 
REMARK    4  A    between atoms: C_9  and  O_22 
REMARK    5  A    between atoms: C_11  and  C_17 
REMARK    6  A    between atoms: C_16  and  C_12 
REMARK    7  A    between atoms: C_12  and  N_19 
REMARK    8  A    between atoms: C_13  and  O_23 
REMARK    9  A    between atoms: C_14  and  O_24 
REMARK   10  A    between atoms: C_15  and  O_25 
REMARK   11  A    between atoms: C_17  and  O_26 
REMARK   12  A    between atoms: C_18  and  S_28 
ROOT
HETATM    1  C   UNK N   1      34.188  13.499   9.805  0.00  0.00     0.143 C 
ENDROOT
BRANCH   1   2
HETATM    2  C   UNK N   1      33.964  12.176   9.047  0.00  0.00     0.139 C 
HETATM    3  C   UNK N   1      35.269  11.528   8.610  0.00  0.00     0.041 C 
BRANCH   2   4
HETATM    4  O   UNK N   1      33.264  11.280   9.856  0.00  0.00    -0.394 OA
HETATM    5  H   UNK N   1      33.530  10.349   9.924  0.00  0.00     0.210 HD
ENDBRANCH   2   4
ENDBRANCH   1   2
BRANCH   1   6
HETATM    6  C   UNK N   1      34.320  14.718   8.858  0.00  0.00     0.179 C 
HETATM    7  C   UNK N   1      34.774  16.024   9.595  0.00  0.00     0.180 C 
HETATM    8  C   UNK N   1      34.419  17.283   8.775  0.00  0.00     0.181 C 
HETATM    9  C   UNK N   1      34.424  16.926   7.292  0.00  0.00     0.188 C 
HETATM   10  C   UNK N   1      33.325  15.831   7.050  0.00  0.00     0.214 C 
HETATM   11  O   UNK N   1      33.117  14.948   8.159  0.00  0.00    -0.363 OA
BRANCH   7  12
HETATM   12  O   UNK N   1      34.196  16.150  10.862  0.00  0.00    -0.390 OA
HETATM   13  H   UNK N   1      33.442  16.564  11.310  0.00  0.00     0.210 HD
ENDBRANCH   7  12
BRANCH   8  14
HETATM   14  O   UNK N   1      35.323  18.311   9.063  0.00  0.00    -0.390 OA
HETATM   15  H   UNK N   1      36.273  18.264   8.871  0.00  0.00     0.210 HD
ENDBRANCH   8  14
BRANCH   9  16
HETATM   16  O   UNK N   1      34.210  18.051   6.488  0.00  0.00    -0.389 OA
HETATM   17  H   UNK N   1      33.396  18.132   5.969  0.00  0.00     0.210 HD
ENDBRANCH   9  16
BRANCH  10  18
HETATM   18  S   UNK N   1      31.702  16.598   6.684  0.00  0.00    -0.139 SA
HETATM   19  C   UNK N   1      30.963  15.070   6.020  0.00  0.00     0.092 C 
ENDBRANCH  10  18
ENDBRANCH   1   6
BRANCH   1  20
HETATM   20  N   UNK N   1      35.397  13.443  10.612  0.00  0.00    -0.363 N 
HETATM   21  C   UNK N   1      35.414  13.111  11.858  0.00  0.00     0.146 C 
ATOM     22  HN  UNK N   1      36.283  13.680  10.166  1.00  0.00     0.162 HD
BRANCH  21  23
HETATM   23  C   UNK N   1      36.679  13.356  12.660  0.00  0.00     0.296 C 
HETATM   24  C   UNK N   1      36.288  14.126  13.903  0.00  0.00     0.050 C 
HETATM   25  C   UNK N   1      35.978  13.039  14.893  0.00  0.00     0.016 C 
HETATM   26  C   UNK N   1      37.037  11.998  14.566  0.00  0.00     0.277 C 
HETATM   27  N   UNK N   1      37.394  12.162  13.153  0.00  0.00     0.097 N 
HETATM   28  C   UNK N   1      37.119  10.933  12.419  0.00  0.00     0.310 C 
BRANCH  25  29
HETATM   29  C   UNK N   1      36.055  13.594  16.306  0.00  0.00     0.006 C 
BRANCH  29  30
HETATM   30  C   UNK N   1      34.917  13.098  17.178  0.00  0.00    -0.004 C 
HETATM   31  C   UNK N   1      35.190  13.492  18.613  0.00  0.00     0.005 C 
ENDBRANCH  29  30
ENDBRANCH  25  29
ENDBRANCH  21  23
BRANCH  21  32
HETATM   32  O   UNK N   1      34.287  12.693  12.478  0.00  0.00    -0.348 OA
HETATM   33  H   UNK N   1      33.485  12.613  12.955  0.00  0.00     0.219 HD
ENDBRANCH  21  32
ENDBRANCH   1  20
TORSDOF 12
ENDMDL
MODEL 3
REMARK VINA RESULT:      -5.9      4.562      7.038
REMARK  12 active torsions:
REMARK  status: ('A' for Active; 'I' for Inactive)
REMARK    1  A    between atoms: C_6  and  C_5 
REMARK    2  A    between atoms: C_10  and  C_6 
REMARK    3  A    between atoms: C_12  and  C_9 
REMARK    4  A    between atoms: C_9  and  O_22 
REMARK    5  A    between atoms: C_11  and  C_17 
REMARK    6  A    between atoms: C_16  and  C_12 
REMARK    7  A    between atoms: C_12  and  N_19 
REMARK    8  A    between atoms: C_13  and  O_23 
REMARK    9  A    between atoms: C_14  and  O_24 
REMARK   10  A    between atoms: C_15  and  O_25 
REMARK   11  A    between atoms: C_17  and  O_26 
REMARK   12  A    between atoms: C_18  and  S_28 
ROOT
HETATM    1  C   UNK N   1      36.043  13.889  10.707  0.00  0.00     0.143 C 
ENDROOT
BRANCH   1   2
HETATM    2  C   UNK N   1      37.345  13.237  10.205  0.00  0.00     0.139 C 
HETATM    3  C   UNK N   1      37.870  13.890   8.935  0.00  0.00     0.041 C 
BRANCH   2   4
HETATM    4  O   UNK N   1      38.327  13.318  11.192  0.00  0.00    -0.394 OA
HETATM    5  H   UNK N   1      38.687  14.173  11.476  0.00  0.00     0.210 HD
ENDBRANCH   2   4
ENDBRANCH   1   2
BRANCH   1   6
HETATM    6  C   UNK N   1      35.339  13.056  11.807  0.00  0.00     0.179 C 
HETATM    7  C   UNK N   1      35.460  13.693  13.233  0.00  0.00     0.180 C 
HETATM    8  C   UNK N   1      35.210  12.643  14.338  0.00  0.00     0.181 C 
HETATM    9  C   UNK N   1      34.261  11.576  13.803  0.00  0.00     0.188 C 
HETATM   10  C   UNK N   1      34.953  10.877  12.579  0.00  0.00     0.214 C 
HETATM   11  O   UNK N   1      35.819  11.731  11.824  0.00  0.00    -0.363 OA
BRANCH   7  12
HETATM   12  O   UNK N   1      36.712  14.272  13.454  0.00  0.00    -0.390 OA
HETATM   13  H   UNK N   1      37.535  14.126  13.947  0.00  0.00     0.210 HD
ENDBRANCH   7  12
BRANCH   8  14
HETATM   14  O   UNK N   1      34.698  13.266  15.481  0.00  0.00    -0.390 OA
HETATM   15  H   UNK N   1      35.186  13.922  16.003  0.00  0.00     0.210 HD
ENDBRANCH   8  14
BRANCH   9  16
HETATM   16  O   UNK N   1      33.914  10.650  14.792  0.00  0.00    -0.389 OA
HETATM   17  H   UNK N   1      34.019  10.874  15.730  0.00  0.00     0.210 HD
ENDBRANCH   9  16
BRANCH  10  18
HETATM   18  S   UNK N   1      35.970   9.454  13.124  0.00  0.00    -0.139 SA
HETATM   19  C   UNK N   1      37.559  10.228  12.677  0.00  0.00     0.092 C 
ENDBRANCH  10  18
ENDBRANCH   1   6
BRANCH   1  20
HETATM   20  N   UNK N   1      35.093  14.067   9.620  0.00  0.00    -0.363 N 
HETATM   21  C   UNK N   1      34.294  15.075   9.521  0.00  0.00     0.146 C 
ATOM     22  HN  UNK N   1      35.056  13.353   8.893  1.00  0.00     0.162 HD
BRANCH  21  23
HETATM   23  C   UNK N   1      33.165  15.014   8.508  0.00  0.00     0.296 C 
HETATM   24  C   UNK N   1      32.011  15.820   9.063  0.00  0.00     0.050 C 
HETATM   25  C   UNK N   1      32.282  17.203   8.544  0.00  0.00     0.016 C 
HETATM   26  C   UNK N   1      32.820  16.922   7.150  0.00  0.00     0.277 C 
HETATM   27  N   UNK N   1      33.437  15.592   7.177  0.00  0.00     0.097 N 
HETATM   28  C   UNK N   1      34.848  15.685   6.821  0.00  0.00     0.310 C 
BRANCH  25  29
HETATM   29  C   UNK N   1      31.001  18.022   8.572  0.00  0.00     0.006 C 
BRANCH  29  30
HETATM   30  C   UNK N   1      29.863  17.281   9.246  0.00  0.00    -0.004 C 
HETATM   31  C   UNK N   1      28.642  18.174   9.273  0.00  0.00     0.005 C 
ENDBRANCH  29  30
ENDBRANCH  25  29
ENDBRANCH  21  23
BRANCH  21  32
HETATM   32  O   UNK N   1      34.364  16.101  10.400  0.00  0.00    -0.348 OA
HETATM   33  H   UNK N   1      34.581  16.701  11.085  0.00  0.00     0.219 HD
ENDBRANCH  21  32
ENDBRANCH   1  20
TORSDOF 12
ENDMDL
MODEL 4
REMARK VINA RESULT:      -5.9      2.636      4.036
REMARK  12 active torsions:
REMARK  status: ('A' for Active; 'I' for Inactive)
REMARK    1  A    between atoms: C_6  and  C_5 
REMARK    2  A    between atoms: C_10  and  C_6 
REMARK    3  A    between atoms: C_12  and  C_9 
REMARK    4  A    between atoms: C_9  and  O_22 
REMARK    5  A    between atoms: C_11  and  C_17 
REMARK    6  A    between atoms: C_16  and  C_12 
REMARK    7  A    between atoms: C_12  and  N_19 
REMARK    8  A    between atoms: C_13  and  O_23 
REMARK    9  A    between atoms: C_14  and  O_24 
REMARK   10  A    between atoms: C_15  and  O_25 
REMARK   11  A    between atoms: C_17  and  O_26 
REMARK   12  A    between atoms: C_18  and  S_28 
ROOT
HETATM    1  C   UNK N   1      29.373  17.278   7.825  0.00  0.00     0.143 C 
ENDROOT
BRANCH   1   2
HETATM    2  C   UNK N   1      28.971  17.700   9.252  0.00  0.00     0.139 C 
HETATM    3  C   UNK N   1      29.754  18.909   9.743  0.00  0.00     0.041 C 
BRANCH   2   4
HETATM    4  O   UNK N   1      27.609  17.999   9.291  0.00  0.00    -0.394 OA
HETATM    5  H   UNK N   1      26.947  17.387   8.930  0.00  0.00     0.210 HD
ENDBRANCH   2   4
ENDBRANCH   1   2
BRANCH   1   6
HETATM    6  C   UNK N   1      30.905  17.130   7.653  0.00  0.00     0.179 C 
HETATM    7  C   UNK N   1      31.336  16.884   6.167  0.00  0.00     0.180 C 
HETATM    8  C   UNK N   1      32.746  16.257   6.088  0.00  0.00     0.181 C 
HETATM    9  C   UNK N   1      33.558  16.711   7.297  0.00  0.00     0.188 C 
HETATM   10  C   UNK N   1      32.837  16.191   8.592  0.00  0.00     0.214 C 
HETATM   11  O   UNK N   1      31.412  16.108   8.481  0.00  0.00    -0.363 OA
BRANCH   7  12
HETATM   12  O   UNK N   1      30.447  16.050   5.485  0.00  0.00    -0.390 OA
HETATM   13  H   UNK N   1      29.627  15.548   5.619  0.00  0.00     0.210 HD
ENDBRANCH   7  12
BRANCH   8  14
HETATM   14  O   UNK N   1      33.362  16.617   4.886  0.00  0.00    -0.390 OA
HETATM   15  H   UNK N   1      34.290  16.889   4.815  0.00  0.00     0.210 HD
ENDBRANCH   8  14
BRANCH   9  16
HETATM   16  O   UNK N   1      34.880  16.258   7.231  0.00  0.00    -0.389 OA
HETATM   17  H   UNK N   1      35.336  15.965   8.035  0.00  0.00     0.210 HD
ENDBRANCH   9  16
BRANCH  10  18
HETATM   18  S   UNK N   1      33.423  14.516   9.044  0.00  0.00    -0.139 SA
HETATM   19  C   UNK N   1      34.188  15.044  10.611  0.00  0.00     0.092 C 
ENDBRANCH  10  18
ENDBRANCH   1   6
BRANCH   1  20
HETATM   20  N   UNK N   1      28.916  18.249   6.843  0.00  0.00    -0.363 N 
HETATM   21  C   UNK N   1      27.796  18.159   6.210  0.00  0.00     0.146 C 
ATOM     22  HN  UNK N   1      29.517  19.049   6.643  1.00  0.00     0.162 HD
BRANCH  21  23
HETATM   23  C   UNK N   1      27.557  19.069   5.019  0.00  0.00     0.296 C 
HETATM   24  C   UNK N   1      26.431  18.468   4.206  0.00  0.00     0.050 C 
HETATM   25  C   UNK N   1      25.205  19.089   4.813  0.00  0.00     0.016 C 
HETATM   26  C   UNK N   1      25.676  20.504   5.110  0.00  0.00     0.277 C 
HETATM   27  N   UNK N   1      27.127  20.449   5.316  0.00  0.00     0.097 N 
HETATM   28  C   UNK N   1      27.463  20.926   6.652  0.00  0.00     0.310 C 
BRANCH  25  29
HETATM   29  C   UNK N   1      24.046  19.002   3.832  0.00  0.00     0.006 C 
BRANCH  29  30
HETATM   30  C   UNK N   1      23.850  20.295   3.063  0.00  0.00    -0.004 C 
HETATM   31  C   UNK N   1      22.384  20.448   2.726  0.00  0.00     0.005 C 
ENDBRANCH  29  30
ENDBRANCH  25  29
ENDBRANCH  21  23
BRANCH  21  32
HETATM   32  O   UNK N   1      26.915  17.175   6.502  0.00  0.00    -0.348 OA
HETATM   33  H   UNK N   1      26.482  16.386   6.760  0.00  0.00     0.219 HD
ENDBRANCH  21  32
ENDBRANCH   1  20
TORSDOF 12
ENDMDL
MODEL 5
REMARK VINA RESULT:      -5.9      1.493      2.279
REMARK  12 active torsions:
REMARK  status: ('A' for Active; 'I' for Inactive)
REMARK    1  A    between atoms: C_6  and  C_5 
REMARK    2  A    between atoms: C_10  and  C_6 
REMARK    3  A    between atoms: C_12  and  C_9 
REMARK    4  A    between atoms: C_9  and  O_22 
REMARK    5  A    between atoms: C_11  and  C_17 
REMARK    6  A    between atoms: C_16  and  C_12 
REMARK    7  A    between atoms: C_12  and  N_19 
REMARK    8  A    between atoms: C_13  and  O_23 
REMARK    9  A    between atoms: C_14  and  O_24 
REMARK   10  A    between atoms: C_15  and  O_25 
REMARK   11  A    between atoms: C_17  and  O_26 
REMARK   12  A    between atoms: C_18  and  S_28 
ROOT
HETATM    1  C   UNK N   1      31.921  16.210   5.453  0.00  0.00     0.143 C 
ENDROOT
BRANCH   1   2
HETATM    2  C   UNK N   1      32.351  14.851   4.867  0.00  0.00     0.139 C 
HETATM    3  C   UNK N   1      31.510  14.443   3.667  0.00  0.00     0.041 C 
BRANCH   2   4
HETATM    4  O   UNK N   1      33.691  14.905   4.482  0.00  0.00    -0.394 OA
HETATM    5  H   UNK N   1      34.158  15.752   4.397  0.00  0.00     0.210 HD
ENDBRANCH   2   4
ENDBRANCH   1   2
BRANCH   1   6
HETATM    6  C   UNK N   1      32.588  16.515   6.817  0.00  0.00     0.179 C 
HETATM    7  C   UNK N   1      33.480  17.802   6.791  0.00  0.00     0.180 C 
HETATM    8  C   UNK N   1      34.496  17.803   7.955  0.00  0.00     0.181 C 
HETATM    9  C   UNK N   1      33.908  17.025   9.127  0.00  0.00     0.188 C 
HETATM   10  C   UNK N   1      33.667  15.546   8.659  0.00  0.00     0.214 C 
HETATM   11  O   UNK N   1      33.339  15.412   7.271  0.00  0.00    -0.363 OA
BRANCH   7  12
HETATM   12  O   UNK N   1      34.187  17.937   5.594  0.00  0.00    -0.390 OA
HETATM   13  H   UNK N   1      34.187  17.621   4.676  0.00  0.00     0.210 HD
ENDBRANCH   7  12
BRANCH   8  14
HETATM   14  O   UNK N   1      34.811  19.118   8.312  0.00  0.00    -0.390 OA
HETATM   15  H   UNK N   1      34.246  19.676   8.870  0.00  0.00     0.210 HD
ENDBRANCH   8  14
BRANCH   9  16
HETATM   16  O   UNK N   1      34.738  17.076  10.251  0.00  0.00    -0.389 OA
HETATM   17  H   UNK N   1      35.051  17.930  10.589  0.00  0.00     0.210 HD
ENDBRANCH   9  16
BRANCH  10  18
HETATM   18  S   UNK N   1      35.154  14.515   8.944  0.00  0.00    -0.139 SA
HETATM   19  C   UNK N   1      34.408  13.550  10.298  0.00  0.00     0.092 C 
ENDBRANCH  10  18
ENDBRANCH   1   6
BRANCH   1  20
HETATM   20  N   UNK N   1      30.481  16.263   5.651  0.00  0.00    -0.363 N 
HETATM   21  C   UNK N   1      29.694  17.053   5.003  0.00  0.00     0.146 C 
ATOM     22  HN  UNK N   1      30.069  15.638   6.344  1.00  0.00     0.162 HD
BRANCH  21  23
HETATM   23  C   UNK N   1      28.265  17.218   5.488  0.00  0.00     0.296 C 
HETATM   24  C   UNK N   1      28.223  16.785   6.938  0.00  0.00     0.050 C 
HETATM   25  C   UNK N   1      28.526  18.056   7.680  0.00  0.00     0.016 C 
HETATM   26  C   UNK N   1      27.790  19.095   6.850  0.00  0.00     0.277 C 
HETATM   27  N   UNK N   1      27.715  18.588   5.476  0.00  0.00     0.097 N 
HETATM   28  C   UNK N   1      28.378  19.511   4.562  0.00  0.00     0.310 C 
BRANCH  25  29
HETATM   29  C   UNK N   1      28.043  17.938   9.117  0.00  0.00     0.006 C 
BRANCH  29  30
HETATM   30  C   UNK N   1      29.186  18.005  10.111  0.00  0.00    -0.004 C 
HETATM   31  C   UNK N   1      30.438  18.459   9.392  0.00  0.00     0.005 C 
ENDBRANCH  29  30
ENDBRANCH  25  29
ENDBRANCH  21  23
BRANCH  21  32
HETATM   32  O   UNK N   1      30.167  17.834   4.005  0.00  0.00    -0.348 OA
HETATM   33  H   UNK N   1      30.289  18.372   3.249  0.00  0.00     0.219 HD
ENDBRANCH  21  32
ENDBRANCH   1  20
TORSDOF 12
ENDMDL
MODEL 6
REMARK VINA RESULT:      -5.8     11.542     13.415
REMARK  12 active torsions:
REMARK  status: ('A' for Active; 'I' for Inactive)
REMARK    1  A    between atoms: C_6  and  C_5 
REMARK    2  A    between atoms: C_10  and  C_6 
REMARK    3  A    between atoms: C_12  and  C_9 
REMARK    4  A    between atoms: C_9  and  O_22 
REMARK    5  A    between atoms: C_11  and  C_17 
REMARK    6  A    between atoms: C_16  and  C_12 
REMARK    7  A    between atoms: C_12  and  N_19 
REMARK    8  A    between atoms: C_13  and  O_23 
REMARK    9  A    between atoms: C_14  and  O_24 
REMARK   10  A    between atoms: C_15  and  O_25 
REMARK   11  A    between atoms: C_17  and  O_26 
REMARK   12  A    between atoms: C_18  and  S_28 
ROOT
HETATM    1  C   UNK N   1      29.888  22.204  -6.625  0.00  0.00     0.143 C 
ENDROOT
BRANCH   1   2
HETATM    2  C   UNK N   1      30.056  21.154  -7.740  0.00  0.00     0.139 C 
HETATM    3  C   UNK N   1      29.392  19.829  -7.395  0.00  0.00     0.041 C 
BRANCH   2   4
HETATM    4  O   UNK N   1      29.511  21.635  -8.930  0.00  0.00    -0.394 OA
HETATM    5  H   UNK N   1      29.806  22.476  -9.316  0.00  0.00     0.210 HD
ENDBRANCH   2   4
ENDBRANCH   1   2
BRANCH   1   6
HETATM    6  C   UNK N   1      30.595  21.800  -5.307  0.00  0.00     0.179 C 
HETATM    7  C   UNK N   1      30.315  22.793  -4.129  0.00  0.00     0.180 C 
HETATM    8  C   UNK N   1      31.385  22.667  -3.022  0.00  0.00     0.181 C 
HETATM    9  C   UNK N   1      31.922  21.239  -3.013  0.00  0.00     0.188 C 
HETATM   10  C   UNK N   1      32.589  20.959  -4.407  0.00  0.00     0.214 C 
HETATM   11  O   UNK N   1      31.984  21.656  -5.502  0.00  0.00    -0.363 OA
BRANCH   7  12
HETATM   12  O   UNK N   1      30.277  24.125  -4.551  0.00  0.00    -0.390 OA
HETATM   13  H   UNK N   1      29.747  24.731  -5.092  0.00  0.00     0.210 HD
ENDBRANCH   7  12
BRANCH   8  14
HETATM   14  O   UNK N   1      30.838  23.022  -1.786  0.00  0.00    -0.390 OA
HETATM   15  H   UNK N   1      30.339  23.840  -1.631  0.00  0.00     0.210 HD
ENDBRANCH   8  14
BRANCH   9  16
HETATM   16  O   UNK N   1      32.823  21.032  -1.964  0.00  0.00    -0.389 OA
HETATM   17  H   UNK N   1      32.834  20.186  -1.489  0.00  0.00     0.210 HD
ENDBRANCH   9  16
BRANCH  10  18
HETATM   18  S   UNK N   1      34.357  21.440  -4.397  0.00  0.00    -0.139 SA
HETATM   19  C   UNK N   1      34.132  22.855  -5.523  0.00  0.00     0.092 C 
ENDBRANCH  10  18
ENDBRANCH   1   6
BRANCH   1  20
HETATM   20  N   UNK N   1      28.483  22.420  -6.316  0.00  0.00    -0.363 N 
HETATM   21  C   UNK N   1      27.880  23.551  -6.465  0.00  0.00     0.146 C 
ATOM     22  HN  UNK N   1      27.943  21.631  -5.961  1.00  0.00     0.162 HD
BRANCH  21  23
HETATM   23  C   UNK N   1      26.502  23.728  -5.852  0.00  0.00     0.296 C 
HETATM   24  C   UNK N   1      26.682  24.419  -4.518  0.00  0.00     0.050 C 
HETATM   25  C   UNK N   1      26.612  25.876  -4.878  0.00  0.00     0.016 C 
HETATM   26  C   UNK N   1      25.538  25.888  -5.955  0.00  0.00     0.277 C 
HETATM   27  N   UNK N   1      25.548  24.571  -6.600  0.00  0.00     0.097 N 
HETATM   28  C   UNK N   1      25.832  24.710  -8.023  0.00  0.00     0.310 C 
BRANCH  25  29
HETATM   29  C   UNK N   1      26.274  26.695  -3.642  0.00  0.00     0.006 C 
BRANCH  29  30
HETATM   30  C   UNK N   1      25.506  27.957  -3.984  0.00  0.00    -0.004 C 
HETATM   31  C   UNK N   1      26.325  29.159  -3.568  0.00  0.00     0.005 C 
ENDBRANCH  29  30
ENDBRANCH  25  29
ENDBRANCH  21  23
BRANCH  21  32
HETATM   32  O   UNK N   1      28.517  24.606  -7.022  0.00  0.00    -0.348 OA
HETATM   33  H   UNK N   1      29.115  25.283  -7.269  0.00  0.00     0.219 HD
ENDBRANCH  21  32
ENDBRANCH   1  20
TORSDOF 12
ENDMDL
MODEL 7
REMARK VINA RESULT:      -5.7      9.105     11.792
REMARK  12 active torsions:
REMARK  status: ('A' for Active; 'I' for Inactive)
REMARK    1  A    between atoms: C_6  and  C_5 
REMARK    2  A    between atoms: C_10  and  C_6 
REMARK    3  A    between atoms: C_12  and  C_9 
REMARK    4  A    between atoms: C_9  and  O_22 
REMARK    5  A    between atoms: C_11  and  C_17 
REMARK    6  A    between atoms: C_16  and  C_12 
REMARK    7  A    between atoms: C_12  and  N_19 
REMARK    8  A    between atoms: C_13  and  O_23 
REMARK    9  A    between atoms: C_14  and  O_24 
REMARK   10  A    between atoms: C_15  and  O_25 
REMARK   11  A    between atoms: C_17  and  O_26 
REMARK   12  A    between atoms: C_18  and  S_28 
ROOT
HETATM    1  C   UNK N   1      20.602  16.383   2.710  0.00  0.00     0.143 C 
ENDROOT
BRANCH   1   2
HETATM    2  C   UNK N   1      21.649  15.682   1.821  0.00  0.00     0.139 C 
HETATM    3  C   UNK N   1      22.250  14.455   2.490  0.00  0.00     0.041 C 
BRANCH   2   4
HETATM    4  O   UNK N   1      21.064  15.298   0.615  0.00  0.00    -0.394 OA
HETATM    5  H   UNK N   1      20.880  14.365   0.418  0.00  0.00     0.210 HD
ENDBRANCH   2   4
ENDBRANCH   1   2
BRANCH   1   6
HETATM    6  C   UNK N   1      20.826  17.912   2.809  0.00  0.00     0.179 C 
HETATM    7  C   UNK N   1      20.281  18.695   1.566  0.00  0.00     0.180 C 
HETATM    8  C   UNK N   1      20.938  20.088   1.449  0.00  0.00     0.181 C 
HETATM    9  C   UNK N   1      21.317  20.576   2.843  0.00  0.00     0.188 C 
HETATM   10  C   UNK N   1      22.358  19.567   3.447  0.00  0.00     0.214 C 
HETATM   11  O   UNK N   1      22.188  18.213   3.014  0.00  0.00    -0.363 OA
BRANCH   7  12
HETATM   12  O   UNK N   1      20.494  18.009   0.368  0.00  0.00    -0.390 OA
HETATM   13  H   UNK N   1      20.395  17.128  -0.026  0.00  0.00     0.210 HD
ENDBRANCH   7  12
BRANCH   8  14
HETATM   14  O   UNK N   1      20.066  20.975   0.809  0.00  0.00    -0.390 OA
HETATM   15  H   UNK N   1      20.099  21.938   0.920  0.00  0.00     0.210 HD
ENDBRANCH   8  14
BRANCH   9  16
HETATM   16  O   UNK N   1      21.825  21.879   2.815  0.00  0.00    -0.389 OA
HETATM   17  H   UNK N   1      22.660  22.068   2.360  0.00  0.00     0.210 HD
ENDBRANCH   9  16
BRANCH  10  18
HETATM   18  S   UNK N   1      24.070  20.045   3.002  0.00  0.00    -0.139 SA
HETATM   19  C   UNK N   1      24.844  18.634   3.858  0.00  0.00     0.092 C 
ENDBRANCH  10  18
ENDBRANCH   1   6
BRANCH   1  20
HETATM   20  N   UNK N   1      20.624  15.851   4.063  0.00  0.00    -0.363 N 
HETATM   21  C   UNK N   1      19.640  15.952   4.891  0.00  0.00     0.146 C 
ATOM     22  HN  UNK N   1      21.467  15.370   4.377  1.00  0.00     0.162 HD
BRANCH  21  23
HETATM   23  C   UNK N   1      19.878  15.611   6.351  0.00  0.00     0.296 C 
HETATM   24  C   UNK N   1      20.344  14.173   6.414  0.00  0.00     0.050 C 
HETATM   25  C   UNK N   1      21.836  14.294   6.291  0.00  0.00     0.016 C 
HETATM   26  C   UNK N   1      22.123  15.549   7.100  0.00  0.00     0.277 C 
HETATM   27  N   UNK N   1      20.920  16.387   7.051  0.00  0.00     0.097 N 
HETATM   28  C   UNK N   1      21.233  17.680   6.454  0.00  0.00     0.310 C 
BRANCH  25  29
HETATM   29  C   UNK N   1      22.499  13.034   6.826  0.00  0.00     0.006 C 
BRANCH  29  30
HETATM   30  C   UNK N   1      21.749  12.451   8.008  0.00  0.00    -0.004 C 
HETATM   31  C   UNK N   1      22.734  12.150   9.116  0.00  0.00     0.005 C 
ENDBRANCH  29  30
ENDBRANCH  25  29
ENDBRANCH  21  23
BRANCH  21  32
HETATM   32  O   UNK N   1      18.462  16.492   4.502  0.00  0.00    -0.348 OA
HETATM   33  H   UNK N   1      17.568  16.749   4.397  0.00  0.00     0.219 HD
ENDBRANCH  21  32
ENDBRANCH   1  20
TORSDOF 12
ENDMDL
MODEL 8
REMARK VINA RESULT:      -5.6      1.958      2.922
REMARK  12 active torsions:
REMARK  status: ('A' for Active; 'I' for Inactive)
REMARK    1  A    between atoms: C_6  and  C_5 
REMARK    2  A    between atoms: C_10  and  C_6 
REMARK    3  A    between atoms: C_12  and  C_9 
REMARK    4  A    between atoms: C_9  and  O_22 
REMARK    5  A    between atoms: C_11  and  C_17 
REMARK    6  A    between atoms: C_16  and  C_12 
REMARK    7  A    between atoms: C_12  and  N_19 
REMARK    8  A    between atoms: C_13  and  O_23 
REMARK    9  A    between atoms: C_14  and  O_24 
REMARK   10  A    between atoms: C_15  and  O_25 
REMARK   11  A    between atoms: C_17  and  O_26 
REMARK   12  A    between atoms: C_18  and  S_28 
ROOT
HETATM    1  C   UNK N   1      32.525  16.993   7.172  0.00  0.00     0.143 C 
ENDROOT
BRANCH   1   2
HETATM    2  C   UNK N   1      33.104  17.034   5.744  0.00  0.00     0.139 C 
HETATM    3  C   UNK N   1      32.124  17.617   4.737  0.00  0.00     0.041 C 
BRANCH   2   4
HETATM    4  O   UNK N   1      34.273  17.795   5.728  0.00  0.00    -0.394 OA
HETATM    5  H   UNK N   1      34.251  18.750   5.553  0.00  0.00     0.210 HD
ENDBRANCH   2   4
ENDBRANCH   1   2
BRANCH   1   6
HETATM    6  C   UNK N   1      32.919  15.709   7.943  0.00  0.00     0.179 C 
HETATM    7  C   UNK N   1      33.179  15.962   9.467  0.00  0.00     0.180 C 
HETATM    8  C   UNK N   1      34.028  14.830  10.087  0.00  0.00     0.181 C 
HETATM    9  C   UNK N   1      33.760  13.536   9.325  0.00  0.00     0.188 C 
HETATM   10  C   UNK N   1      34.200  13.749   7.833  0.00  0.00     0.214 C 
HETATM   11  O   UNK N   1      34.041  15.090   7.356  0.00  0.00    -0.363 OA
BRANCH   7  12
HETATM   12  O   UNK N   1      33.829  17.176   9.704  0.00  0.00    -0.390 OA
HETATM   13  H   UNK N   1      34.017  18.028   9.278  0.00  0.00     0.210 HD
ENDBRANCH   7  12
BRANCH   8  14
HETATM   14  O   UNK N   1      33.732  14.701  11.447  0.00  0.00    -0.390 OA
HETATM   15  H   UNK N   1      32.953  14.235  11.788  0.00  0.00     0.210 HD
ENDBRANCH   8  14
BRANCH   9  16
HETATM   16  O   UNK N   1      34.424  12.449   9.904  0.00  0.00    -0.389 OA
HETATM   17  H   UNK N   1      34.323  12.263  10.850  0.00  0.00     0.210 HD
ENDBRANCH   9  16
BRANCH  10  18
HETATM   18  S   UNK N   1      35.965  13.318   7.599  0.00  0.00    -0.139 SA
HETATM   19  C   UNK N   1      36.217  14.474   6.214  0.00  0.00     0.092 C 
ENDBRANCH  10  18
ENDBRANCH   1   6
BRANCH   1  20
HETATM   20  N   UNK N   1      31.073  17.060   7.151  0.00  0.00    -0.363 N 
HETATM   21  C   UNK N   1      30.367  17.661   8.048  0.00  0.00     0.146 C 
ATOM     22  HN  UNK N   1      30.582  16.604   6.381  1.00  0.00     0.162 HD
BRANCH  21  23
HETATM   23  C   UNK N   1      28.868  17.427   8.074  0.00  0.00     0.296 C 
HETATM   24  C   UNK N   1      28.196  18.782   8.148  0.00  0.00     0.050 C 
HETATM   25  C   UNK N   1      28.024  19.154   6.702  0.00  0.00     0.016 C 
HETATM   26  C   UNK N   1      27.673  17.818   6.067  0.00  0.00     0.277 C 
HETATM   27  N   UNK N   1      28.279  16.767   6.892  0.00  0.00     0.097 N 
HETATM   28  C   UNK N   1      29.214  15.981   6.096  0.00  0.00     0.310 C 
BRANCH  25  29
HETATM   29  C   UNK N   1      26.944  20.217   6.572  0.00  0.00     0.006 C 
BRANCH  29  30
HETATM   30  C   UNK N   1      27.086  21.023   5.295  0.00  0.00    -0.004 C 
HETATM   31  C   UNK N   1      26.092  20.510   4.277  0.00  0.00     0.005 C 
ENDBRANCH  29  30
ENDBRANCH  25  29
ENDBRANCH  21  23
BRANCH  21  32
HETATM   32  O   UNK N   1      30.962  18.365   9.038  0.00  0.00    -0.348 OA
HETATM   33  H   UNK N   1      31.184  18.954   9.731  0.00  0.00     0.219 HD
ENDBRANCH  21  32
ENDBRANCH   1  20
TORSDOF 12
ENDMDL
MODEL 9
REMARK VINA RESULT:      -5.6      4.457      5.872
REMARK  12 active torsions:
REMARK  status: ('A' for Active; 'I' for Inactive)
REMARK    1  A    between atoms: C_6  and  C_5 
REMARK    2  A    between atoms: C_10  and  C_6 
REMARK    3  A    between atoms: C_12  and  C_9 
REMARK    4  A    between atoms: C_9  and  O_22 
REMARK    5  A    between atoms: C_11  and  C_17 
REMARK    6  A    between atoms: C_16  and  C_12 
REMARK    7  A    between atoms: C_12  and  N_19 
REMARK    8  A    between atoms: C_13  and  O_23 
REMARK    9  A    between atoms: C_14  and  O_24 
REMARK   10  A    between atoms: C_15  and  O_25 
REMARK   11  A    between atoms: C_17  and  O_26 
REMARK   12  A    between atoms: C_18  and  S_28 
ROOT
HETATM    1  C   UNK N   1      27.712  16.642   5.855  0.00  0.00     0.143 C 
ENDROOT
BRANCH   1   2
HETATM    2  C   UNK N   1      28.112  17.043   4.422  0.00  0.00     0.139 C 
HETATM    3  C   UNK N   1      26.975  16.857   3.428  0.00  0.00     0.041 C 
BRANCH   2   4
HETATM    4  O   UNK N   1      28.516  18.378   4.399  0.00  0.00    -0.394 OA
HETATM    5  H   UNK N   1      28.485  18.928   5.198  0.00  0.00     0.210 HD
ENDBRANCH   2   4
ENDBRANCH   1   2
BRANCH   1   6
HETATM    6  C   UNK N   1      28.905  16.670   6.842  0.00  0.00     0.179 C 
HETATM    7  C   UNK N   1      28.795  17.812   7.908  0.00  0.00     0.180 C 
HETATM    8  C   UNK N   1      30.172  18.134   8.530  0.00  0.00     0.181 C 
HETATM    9  C   UNK N   1      31.032  16.874   8.507  0.00  0.00     0.188 C 
HETATM   10  C   UNK N   1      31.232  16.447   7.009  0.00  0.00     0.214 C 
HETATM   11  O   UNK N   1      30.130  16.766   6.152  0.00  0.00    -0.363 OA
BRANCH   7  12
HETATM   12  O   UNK N   1      28.270  18.992   7.374  0.00  0.00    -0.390 OA
HETATM   13  H   UNK N   1      27.837  19.332   6.575  0.00  0.00     0.210 HD
ENDBRANCH   7  12
BRANCH   8  14
HETATM   14  O   UNK N   1      30.006  18.625   9.828  0.00  0.00    -0.390 OA
HETATM   15  H   UNK N   1      29.209  19.086  10.134  0.00  0.00     0.210 HD
ENDBRANCH   8  14
BRANCH   9  16
HETATM   16  O   UNK N   1      32.257  17.074   9.151  0.00  0.00    -0.389 OA
HETATM   17  H   UNK N   1      33.088  16.983   8.658  0.00  0.00     0.210 HD
ENDBRANCH   9  16
BRANCH  10  18
HETATM   18  S   UNK N   1      32.707  17.259   6.286  0.00  0.00    -0.139 SA
HETATM   19  C   UNK N   1      31.956  17.491   4.642  0.00  0.00     0.092 C 
ENDBRANCH  10  18
ENDBRANCH   1   6
BRANCH   1  20
HETATM   20  N   UNK N   1      27.152  15.300   5.886  0.00  0.00    -0.363 N 
HETATM   21  C   UNK N   1      25.964  15.026   6.308  0.00  0.00     0.146 C 
ATOM     22  HN  UNK N   1      27.733  14.530   5.555  1.00  0.00     0.162 HD
BRANCH  21  23
HETATM   23  C   UNK N   1      25.595  13.574   6.555  0.00  0.00     0.296 C 
HETATM   24  C   UNK N   1      25.049  13.476   7.963  0.00  0.00     0.050 C 
HETATM   25  C   UNK N   1      23.579  13.724   7.775  0.00  0.00     0.016 C 
HETATM   26  C   UNK N   1      23.298  13.007   6.464  0.00  0.00     0.277 C 
HETATM   27  N   UNK N   1      24.544  13.001   5.691  0.00  0.00     0.097 N 
HETATM   28  C   UNK N   1      24.350  13.688   4.419  0.00  0.00     0.310 C 
BRANCH  25  29
HETATM   29  C   UNK N   1      22.810  13.181   8.968  0.00  0.00     0.006 C 
BRANCH  29  30
HETATM   30  C   UNK N   1      23.475  11.957   9.568  0.00  0.00    -0.004 C 
HETATM   31  C   UNK N   1      23.085  11.850  11.026  0.00  0.00     0.005 C 
ENDBRANCH  29  30
ENDBRANCH  25  29
ENDBRANCH  21  23
BRANCH  21  32
HETATM   32  O   UNK N   1      25.113  16.014   6.668  0.00  0.00    -0.348 OA
HETATM   33  H   UNK N   1      24.373  16.552   6.866  0.00  0.00     0.219 HD
ENDBRANCH  21  32
ENDBRANCH   1  20
TORSDOF 12
ENDMDL
