MODEL 1
REMARK VINA RESULT:      -7.8      0.000      0.000
REMARK  6 active torsions:
REMARK  status: ('A' for Active; 'I' for Inactive)
REMARK    1  A    between atoms: C_7  and  O_14 
REMARK    2  A    between atoms: C_10  and  N_15 
REMARK    3  A    between atoms: O_14  and  C_19 
REMARK    4  A    between atoms: C_24  and  N_30 
REMARK    5  A    between atoms: C_29  and  O_32 
REMARK    6  A    between atoms: O_32  and  C_36 
ROOT
HETATM    1  C   UNK N   1      33.801  13.254   7.601  0.00  0.00     0.003 C 
HETATM    2  C   UNK N   1      34.126  11.970   8.421  0.00  0.00    -0.005 C 
HETATM    3  C   UNK N   1      34.942  14.318   7.791  0.00  0.00    -0.011 C 
HETATM    4  C   UNK N   1      32.492  14.031   7.738  0.00  0.00     0.042 C 
HETATM    5  C   UNK N   1      34.534  12.199   9.909  0.00  0.00    -0.002 C 
HETATM    6  C   UNK N   1      33.220  10.737   8.378  0.00  0.00     0.006 C 
HETATM    7  C   UNK N   1      34.246  15.691   7.786  0.00  0.00     0.171 C 
HETATM    8  C   UNK N   1      35.837  14.128   9.027  0.00  0.00     0.012 C 
HETATM    9  C   UNK N   1      35.938  14.237   6.649  0.00  0.00     0.018 C 
HETATM   10  C   UNK N   1      32.833  15.471   7.253  0.00  0.00     0.220 C 
HETATM   11  C   UNK N   1      35.542  11.052  10.292  0.00  0.00    -0.034 C 
HETATM   12  C   UNK N   1      35.052  13.606  10.192  0.00  0.00     0.007 C 
HETATM   13  C   UNK N   1      34.010   9.505   8.915  0.00  0.00     0.006 C 
HETATM   14  C   UNK N   1      34.760   9.711  10.267  0.00  0.00    -0.004 C 
HETATM   15  C   UNK N   1      36.212  11.246  11.646  0.00  0.00     0.046 C 
HETATM   16  C   UNK N   1      36.739  10.983   9.338  0.00  0.00     0.016 C 
HETATM   17  C   UNK N   1      33.777   9.634  11.461  0.00  0.00     0.040 C 
HETATM   18  C   UNK N   1      35.208  11.277  12.783  0.00  0.00     0.220 C 
HETATM   19  C   UNK N   1      34.447   9.922  12.837  0.00  0.00     0.163 C 
ENDROOT
BRANCH  10  20
HETATM   20  N   UNK N   1      32.772  15.806   5.794  0.00  0.00    -0.064 N 
HETATM   21  C   UNK N   1      32.635  14.616   4.942  0.00  0.00     0.237 C 
HETATM   22  C   UNK N   1      32.469  15.003   3.452  0.00  0.00     0.028 C 
HETATM   23  C   UNK N   1      31.269  15.929   3.258  0.00  0.00     0.003 C 
HETATM   24  C   UNK N   1      31.352  17.124   4.193  0.00  0.00     0.028 C 
HETATM   25  C   UNK N   1      31.557  16.633   5.626  0.00  0.00     0.237 C 
HETATM   26  C   UNK N   1      33.943  16.563   5.341  0.00  0.00     0.273 C 
ENDBRANCH  10  20
BRANCH   7  27
HETATM   27  O   UNK N   1      34.204  16.285   9.027  0.00  0.00    -0.313 OA
BRANCH  27  28
HETATM   28  C   UNK N   1      34.836  17.467   9.241  0.00  0.00     0.255 C 
HETATM   29  C   UNK N   1      34.657  18.585   8.277  0.00  0.00     0.126 C 
HETATM   30  O   UNK N   1      35.530  17.634  10.233  0.00  0.00    -0.266 OA
ENDBRANCH  27  28
ENDBRANCH   7  27
BRANCH  18  31
HETATM   31  N   UNK N   1      35.816  11.761  14.053  0.00  0.00    -0.064 N 
HETATM   32  C   UNK N   1      35.012  11.247  15.185  0.00  0.00     0.237 C 
HETATM   33  C   UNK N   1      35.454  11.785  16.552  0.00  0.00     0.028 C 
HETATM   34  C   UNK N   1      35.474  13.305  16.541  0.00  0.00     0.003 C 
HETATM   35  C   UNK N   1      36.391  13.778  15.428  0.00  0.00     0.028 C 
HETATM   36  C   UNK N   1      35.877  13.237  14.093  0.00  0.00     0.237 C 
HETATM   37  C   UNK N   1      37.159  11.197  14.147  0.00  0.00     0.273 C 
ENDBRANCH  18  31
BRANCH  19  38
HETATM   38  O   UNK N   1      35.255   8.906  13.350  0.00  0.00    -0.314 OA
BRANCH  38  39
HETATM   39  C   UNK N   1      35.884   7.878  12.727  0.00  0.00     0.255 C 
HETATM   40  C   UNK N   1      35.160   6.591  12.535  0.00  0.00     0.126 C 
HETATM   41  O   UNK N   1      37.022   7.993  12.284  0.00  0.00    -0.266 OA
ENDBRANCH  38  39
ENDBRANCH  19  38
TORSDOF 6
ENDMDL
MODEL 2
REMARK VINA RESULT:      -7.7      4.001     10.524
REMARK  6 active torsions:
REMARK  status: ('A' for Active; 'I' for Inactive)
REMARK    1  A    between atoms: C_7  and  O_14 
REMARK    2  A    between atoms: C_10  and  N_15 
REMARK    3  A    between atoms: O_14  and  C_19 
REMARK    4  A    between atoms: C_24  and  N_30 
REMARK    5  A    between atoms: C_29  and  O_32 
REMARK    6  A    between atoms: O_32  and  C_36 
ROOT
HETATM    1  C   UNK N   1      32.403  15.757   8.147  0.00  0.00     0.003 C 
HETATM    2  C   UNK N   1      31.195  16.500   7.502  0.00  0.00    -0.005 C 
HETATM    3  C   UNK N   1      33.333  15.168   7.027  0.00  0.00    -0.011 C 
HETATM    4  C   UNK N   1      32.249  14.640   9.180  0.00  0.00     0.042 C 
HETATM    5  C   UNK N   1      30.428  15.716   6.392  0.00  0.00    -0.002 C 
HETATM    6  C   UNK N   1      30.152  17.230   8.352  0.00  0.00     0.006 C 
HETATM    7  C   UNK N   1      33.869  13.835   7.579  0.00  0.00     0.171 C 
HETATM    8  C   UNK N   1      32.691  15.003   5.639  0.00  0.00     0.012 C 
HETATM    9  C   UNK N   1      34.488  16.113   6.744  0.00  0.00     0.018 C 
HETATM   10  C   UNK N   1      33.569  13.821   9.076  0.00  0.00     0.220 C 
HETATM   11  C   UNK N   1      29.878  16.781   5.372  0.00  0.00    -0.034 C 
HETATM   12  C   UNK N   1      31.252  14.603   5.750  0.00  0.00     0.007 C 
HETATM   13  C   UNK N   1      29.357  18.218   7.446  0.00  0.00     0.006 C 
HETATM   14  C   UNK N   1      28.808  17.629   6.110  0.00  0.00    -0.004 C 
HETATM   15  C   UNK N   1      29.289  16.174   4.105  0.00  0.00     0.046 C 
HETATM   16  C   UNK N   1      30.983  17.688   4.821  0.00  0.00     0.016 C 
HETATM   17  C   UNK N   1      27.530  16.790   6.361  0.00  0.00     0.040 C 
HETATM   18  C   UNK N   1      28.106  15.270   4.399  0.00  0.00     0.220 C 
HETATM   19  C   UNK N   1      26.980  16.097   5.079  0.00  0.00     0.163 C 
ENDROOT
BRANCH  10  20
HETATM   20  N   UNK N   1      34.780  14.245   9.850  0.00  0.00    -0.064 N 
HETATM   21  C   UNK N   1      34.649  15.596  10.416  0.00  0.00     0.237 C 
HETATM   22  C   UNK N   1      35.869  15.961  11.296  0.00  0.00     0.028 C 
HETATM   23  C   UNK N   1      36.063  14.938  12.415  0.00  0.00     0.003 C 
HETATM   24  C   UNK N   1      36.116  13.527  11.854  0.00  0.00     0.028 C 
HETATM   25  C   UNK N   1      34.892  13.287  10.971  0.00  0.00     0.237 C 
HETATM   26  C   UNK N   1      36.006  14.202   9.047  0.00  0.00     0.273 C 
ENDBRANCH  10  20
BRANCH   7  27
HETATM   27  O   UNK N   1      33.317  12.731   6.969  0.00  0.00    -0.313 OA
BRANCH  27  28
HETATM   28  C   UNK N   1      33.582  11.486   7.438  0.00  0.00     0.255 C 
HETATM   29  C   UNK N   1      34.982  10.981   7.443  0.00  0.00     0.126 C 
HETATM   30  O   UNK N   1      32.688  10.782   7.884  0.00  0.00    -0.266 OA
ENDBRANCH  27  28
ENDBRANCH   7  27
BRANCH  18  31
HETATM   31  N   UNK N   1      27.723  14.450   3.216  0.00  0.00    -0.064 N 
HETATM   32  C   UNK N   1      26.328  13.987   3.398  0.00  0.00     0.237 C 
HETATM   33  C   UNK N   1      25.852  13.017   2.310  0.00  0.00     0.028 C 
HETATM   34  C   UNK N   1      26.808  11.840   2.194  0.00  0.00     0.003 C 
HETATM   35  C   UNK N   1      28.203  12.364   1.908  0.00  0.00     0.028 C 
HETATM   36  C   UNK N   1      28.629  13.296   3.044  0.00  0.00     0.237 C 
HETATM   37  C   UNK N   1      27.773  15.312   2.040  0.00  0.00     0.273 C 
ENDBRANCH  18  31
BRANCH  19  38
HETATM   38  O   UNK N   1      26.335  16.928   4.161  0.00  0.00    -0.314 OA
BRANCH  38  39
HETATM   39  C   UNK N   1      25.752  18.142   4.326  0.00  0.00     0.255 C 
HETATM   40  C   UNK N   1      26.443  19.356   3.813  0.00  0.00     0.126 C 
HETATM   41  O   UNK N   1      24.650  18.260   4.852  0.00  0.00    -0.266 OA
ENDBRANCH  38  39
ENDBRANCH  19  38
TORSDOF 6
ENDMDL
MODEL 3
REMARK VINA RESULT:      -7.6      8.529     13.821
REMARK  6 active torsions:
REMARK  status: ('A' for Active; 'I' for Inactive)
REMARK    1  A    between atoms: C_7  and  O_14 
REMARK    2  A    between atoms: C_10  and  N_15 
REMARK    3  A    between atoms: O_14  and  C_19 
REMARK    4  A    between atoms: C_24  and  N_30 
REMARK    5  A    between atoms: C_29  and  O_32 
REMARK    6  A    between atoms: O_32  and  C_36 
ROOT
HETATM    1  C   UNK N   1      27.581  14.757   3.195  0.00  0.00     0.003 C 
HETATM    2  C   UNK N   1      26.178  14.168   2.862  0.00  0.00    -0.005 C 
HETATM    3  C   UNK N   1      27.528  15.535   4.559  0.00  0.00    -0.011 C 
HETATM    4  C   UNK N   1      28.363  15.660   2.240  0.00  0.00     0.042 C 
HETATM    5  C   UNK N   1      24.979  15.160   2.977  0.00  0.00    -0.002 C 
HETATM    6  C   UNK N   1      25.941  13.305   1.620  0.00  0.00     0.006 C 
HETATM    7  C   UNK N   1      28.485  16.731   4.402  0.00  0.00     0.171 C 
HETATM    8  C   UNK N   1      26.130  15.970   5.030  0.00  0.00     0.012 C 
HETATM    9  C   UNK N   1      27.995  14.644   5.697  0.00  0.00     0.018 C 
HETATM   10  C   UNK N   1      29.329  16.464   3.159  0.00  0.00     0.220 C 
HETATM   11  C   UNK N   1      23.723  14.316   3.412  0.00  0.00    -0.034 C 
HETATM   12  C   UNK N   1      25.264  16.363   3.872  0.00  0.00     0.007 C 
HETATM   13  C   UNK N   1      24.607  12.519   1.791  0.00  0.00     0.006 C 
HETATM   14  C   UNK N   1      23.372  13.359   2.242  0.00  0.00    -0.004 C 
HETATM   15  C   UNK N   1      22.512  15.161   3.784  0.00  0.00     0.046 C 
HETATM   16  C   UNK N   1      23.973  13.514   4.693  0.00  0.00     0.016 C 
HETATM   17  C   UNK N   1      22.781  14.153   1.050  0.00  0.00     0.040 C 
HETATM   18  C   UNK N   1      22.026  16.010   2.624  0.00  0.00     0.220 C 
HETATM   19  C   UNK N   1      21.599  15.085   1.450  0.00  0.00     0.163 C 
ENDROOT
BRANCH  10  20
HETATM   20  N   UNK N   1      30.654  15.884   3.549  0.00  0.00    -0.064 N 
HETATM   21  C   UNK N   1      30.784  14.466   3.180  0.00  0.00     0.237 C 
HETATM   22  C   UNK N   1      32.199  13.926   3.500  0.00  0.00     0.028 C 
HETATM   23  C   UNK N   1      33.273  14.754   2.794  0.00  0.00     0.003 C 
HETATM   24  C   UNK N   1      33.101  16.233   3.096  0.00  0.00     0.028 C 
HETATM   25  C   UNK N   1      31.664  16.650   2.786  0.00  0.00     0.237 C 
HETATM   26  C   UNK N   1      30.925  16.012   4.983  0.00  0.00     0.273 C 
ENDBRANCH  10  20
BRANCH   7  27
HETATM   27  O   UNK N   1      27.832  17.939   4.290  0.00  0.00    -0.313 OA
BRANCH  27  28
HETATM   28  C   UNK N   1      28.111  18.949   5.151  0.00  0.00     0.255 C 
HETATM   29  C   UNK N   1      28.325  18.652   6.594  0.00  0.00     0.126 C 
HETATM   30  O   UNK N   1      28.217  20.100   4.753  0.00  0.00    -0.266 OA
ENDBRANCH  27  28
ENDBRANCH   7  27
BRANCH  18  31
HETATM   31  N   UNK N   1      21.049  17.045   3.060  0.00  0.00    -0.064 N 
HETATM   32  C   UNK N   1      20.239  17.449   1.888  0.00  0.00     0.237 C 
HETATM   33  C   UNK N   1      19.280  18.613   2.171  0.00  0.00     0.028 C 
HETATM   34  C   UNK N   1      20.039  19.797   2.746  0.00  0.00     0.003 C 
HETATM   35  C   UNK N   1      20.768  19.353   4.000  0.00  0.00     0.028 C 
HETATM   36  C   UNK N   1      21.730  18.219   3.644  0.00  0.00     0.237 C 
HETATM   37  C   UNK N   1      20.162  16.434   4.045  0.00  0.00     0.273 C 
ENDBRANCH  18  31
BRANCH  19  38
HETATM   38  O   UNK N   1      20.383  14.453   1.719  0.00  0.00    -0.314 OA
BRANCH  38  39
HETATM   39  C   UNK N   1      19.495  13.855   0.886  0.00  0.00     0.255 C 
HETATM   40  C   UNK N   1      19.569  12.382   0.680  0.00  0.00     0.126 C 
HETATM   41  O   UNK N   1      18.607  14.491   0.328  0.00  0.00    -0.266 OA
ENDBRANCH  38  39
ENDBRANCH  19  38
TORSDOF 6
ENDMDL
MODEL 4
REMARK VINA RESULT:      -7.5      3.746     10.047
REMARK  6 active torsions:
REMARK  status: ('A' for Active; 'I' for Inactive)
REMARK    1  A    between atoms: C_7  and  O_14 
REMARK    2  A    between atoms: C_10  and  N_15 
REMARK    3  A    between atoms: O_14  and  C_19 
REMARK    4  A    between atoms: C_24  and  N_30 
REMARK    5  A    between atoms: C_29  and  O_32 
REMARK    6  A    between atoms: O_32  and  C_36 
ROOT
HETATM    1  C   UNK N   1      33.780  14.884   7.947  0.00  0.00     0.003 C 
HETATM    2  C   UNK N   1      32.664  15.951   7.735  0.00  0.00    -0.005 C 
HETATM    3  C   UNK N   1      34.138  14.200   6.579  0.00  0.00    -0.011 C 
HETATM    4  C   UNK N   1      33.672  13.743   8.959  0.00  0.00     0.042 C 
HETATM    5  C   UNK N   1      31.420  15.480   6.919  0.00  0.00    -0.002 C 
HETATM    6  C   UNK N   1      32.155  16.823   8.885  0.00  0.00     0.006 C 
HETATM    7  C   UNK N   1      34.460  12.732   6.911  0.00  0.00     0.171 C 
HETATM    8  C   UNK N   1      33.081  14.325   5.469  0.00  0.00     0.012 C 
HETATM    9  C   UNK N   1      35.351  14.867   5.953  0.00  0.00     0.018 C 
HETATM   10  C   UNK N   1      34.641  12.648   8.424  0.00  0.00     0.220 C 
HETATM   11  C   UNK N   1      30.874  16.736   6.145  0.00  0.00    -0.034 C 
HETATM   12  C   UNK N   1      31.694  14.269   6.031  0.00  0.00     0.007 C 
HETATM   13  C   UNK N   1      31.400  18.053   8.296  0.00  0.00     0.006 C 
HETATM   14  C   UNK N   1      30.335  17.740   7.199  0.00  0.00    -0.004 C 
HETATM   15  C   UNK N   1      29.790  16.410   5.127  0.00  0.00     0.046 C 
HETATM   16  C   UNK N   1      31.948  17.403   5.281  0.00  0.00     0.016 C 
HETATM   17  C   UNK N   1      29.027  17.209   7.836  0.00  0.00     0.040 C 
HETATM   18  C   UNK N   1      28.565  15.788   5.772  0.00  0.00     0.220 C 
HETATM   19  C   UNK N   1      27.952  16.791   6.789  0.00  0.00     0.163 C 
ENDROOT
BRANCH  10  20
HETATM   20  N   UNK N   1      36.097  12.697   8.774  0.00  0.00    -0.064 N 
HETATM   21  C   UNK N   1      36.522  14.021   9.253  0.00  0.00     0.237 C 
HETATM   22  C   UNK N   1      38.003  14.009   9.705  0.00  0.00     0.028 C 
HETATM   23  C   UNK N   1      38.236  12.958  10.789  0.00  0.00     0.003 C 
HETATM   24  C   UNK N   1      37.724  11.599  10.342  0.00  0.00     0.028 C 
HETATM   25  C   UNK N   1      36.274  11.731   9.879  0.00  0.00     0.237 C 
HETATM   26  C   UNK N   1      36.959  12.317   7.651  0.00  0.00     0.273 C 
ENDBRANCH  10  20
BRANCH   7  27
HETATM   27  O   UNK N   1      33.484  11.853   6.495  0.00  0.00    -0.313 OA
BRANCH  27  28
HETATM   28  C   UNK N   1      33.701  10.515   6.547  0.00  0.00     0.255 C 
HETATM   29  C   UNK N   1      32.719   9.633   7.233  0.00  0.00     0.126 C 
HETATM   30  O   UNK N   1      34.683  10.020   6.013  0.00  0.00    -0.266 OA
ENDBRANCH  27  28
ENDBRANCH   7  27
BRANCH  18  31
HETATM   31  N   UNK N   1      27.641  15.198   4.764  0.00  0.00    -0.064 N 
HETATM   32  C   UNK N   1      28.210  13.912   4.302  0.00  0.00     0.237 C 
HETATM   33  C   UNK N   1      27.421  13.263   3.158  0.00  0.00     0.028 C 
HETATM   34  C   UNK N   1      27.263  14.238   2.002  0.00  0.00     0.003 C 
HETATM   35  C   UNK N   1      26.584  15.497   2.509  0.00  0.00     0.028 C 
HETATM   36  C   UNK N   1      27.436  16.111   3.621  0.00  0.00     0.237 C 
HETATM   37  C   UNK N   1      26.370  14.928   5.428  0.00  0.00     0.273 C 
ENDBRANCH  18  31
BRANCH  19  38
HETATM   38  O   UNK N   1      27.291  17.834   6.139  0.00  0.00    -0.314 OA
BRANCH  38  39
HETATM   39  C   UNK N   1      27.591  19.155   6.056  0.00  0.00     0.255 C 
HETATM   40  C   UNK N   1      28.109  19.703   4.773  0.00  0.00     0.126 C 
HETATM   41  O   UNK N   1      27.410  19.916   7.000  0.00  0.00    -0.266 OA
ENDBRANCH  38  39
ENDBRANCH  19  38
TORSDOF 6
ENDMDL
MODEL 5
REMARK VINA RESULT:      -7.5      3.307      5.517
REMARK  6 active torsions:
REMARK  status: ('A' for Active; 'I' for Inactive)
REMARK    1  A    between atoms: C_7  and  O_14 
REMARK    2  A    between atoms: C_10  and  N_15 
REMARK    3  A    between atoms: O_14  and  C_19 
REMARK    4  A    between atoms: C_24  and  N_30 
REMARK    5  A    between atoms: C_29  and  O_32 
REMARK    6  A    between atoms: O_32  and  C_36 
ROOT
HETATM    1  C   UNK N   1      30.235  15.443   5.020  0.00  0.00     0.003 C 
HETATM    2  C   UNK N   1      31.461  14.484   5.089  0.00  0.00    -0.005 C 
HETATM    3  C   UNK N   1      30.598  16.829   5.665  0.00  0.00    -0.011 C 
HETATM    4  C   UNK N   1      28.855  15.084   5.572  0.00  0.00     0.042 C 
HETATM    5  C   UNK N   1      32.158  14.370   6.480  0.00  0.00    -0.002 C 
HETATM    6  C   UNK N   1      31.421  13.080   4.480  0.00  0.00     0.006 C 
HETATM    7  C   UNK N   1      29.316  17.320   6.362  0.00  0.00     0.171 C 
HETATM    8  C   UNK N   1      31.809  16.831   6.612  0.00  0.00     0.012 C 
HETATM    9  C   UNK N   1      31.017  17.819   4.594  0.00  0.00     0.018 C 
HETATM   10  C   UNK N   1      28.170  16.456   5.844  0.00  0.00     0.220 C 
HETATM   11  C   UNK N   1      33.684  14.098   6.211  0.00  0.00    -0.034 C 
HETATM   12  C   UNK N   1      31.887  15.559   7.399  0.00  0.00     0.007 C 
HETATM   13  C   UNK N   1      32.879  12.556   4.311  0.00  0.00     0.006 C 
HETATM   14  C   UNK N   1      33.804  12.695   5.559  0.00  0.00    -0.004 C 
HETATM   15  C   UNK N   1      34.554  14.176   7.458  0.00  0.00     0.046 C 
HETATM   16  C   UNK N   1      34.315  15.158   5.302  0.00  0.00     0.016 C 
HETATM   17  C   UNK N   1      33.498  11.587   6.598  0.00  0.00     0.040 C 
HETATM   18  C   UNK N   1      34.155  13.149   8.501  0.00  0.00     0.220 C 
HETATM   19  C   UNK N   1      34.325  11.721   7.911  0.00  0.00     0.163 C 
ENDROOT
BRANCH  10  20
HETATM   20  N   UNK N   1      27.444  17.166   4.743  0.00  0.00    -0.064 N 
HETATM   21  C   UNK N   1      25.982  17.047   4.857  0.00  0.00     0.237 C 
HETATM   22  C   UNK N   1      25.261  17.878   3.768  0.00  0.00     0.028 C 
HETATM   23  C   UNK N   1      25.677  19.347   3.835  0.00  0.00     0.003 C 
HETATM   24  C   UNK N   1      27.190  19.482   3.803  0.00  0.00     0.028 C 
HETATM   25  C   UNK N   1      27.801  18.594   4.886  0.00  0.00     0.237 C 
HETATM   26  C   UNK N   1      27.839  16.694   3.412  0.00  0.00     0.273 C 
ENDBRANCH  10  20
BRANCH   7  27
HETATM   27  O   UNK N   1      29.385  17.255   7.736  0.00  0.00    -0.313 OA
BRANCH  27  28
HETATM   28  C   UNK N   1      29.075  18.341   8.488  0.00  0.00     0.255 C 
HETATM   29  C   UNK N   1      30.056  18.856   9.481  0.00  0.00     0.126 C 
HETATM   30  O   UNK N   1      28.009  18.920   8.341  0.00  0.00    -0.266 OA
ENDBRANCH  27  28
ENDBRANCH   7  27
BRANCH  18  31
HETATM   31  N   UNK N   1      34.792  13.415   9.821  0.00  0.00    -0.064 N 
HETATM   32  C   UNK N   1      36.207  13.785   9.592  0.00  0.00     0.237 C 
HETATM   33  C   UNK N   1      37.018  13.955  10.884  0.00  0.00     0.028 C 
HETATM   34  C   UNK N   1      36.911  12.707  11.744  0.00  0.00     0.003 C 
HETATM   35  C   UNK N   1      35.447  12.431  12.033  0.00  0.00     0.028 C 
HETATM   36  C   UNK N   1      34.705  12.238  10.709  0.00  0.00     0.237 C 
HETATM   37  C   UNK N   1      34.109  14.555  10.424  0.00  0.00     0.273 C 
ENDBRANCH  18  31
BRANCH  19  38
HETATM   38  O   UNK N   1      35.672  11.363   7.826  0.00  0.00    -0.314 OA
BRANCH  38  39
HETATM   39  C   UNK N   1      36.293  10.188   8.095  0.00  0.00     0.255 C 
HETATM   40  C   UNK N   1      37.423  10.168   9.064  0.00  0.00     0.126 C 
HETATM   41  O   UNK N   1      35.923   9.134   7.590  0.00  0.00    -0.266 OA
ENDBRANCH  38  39
ENDBRANCH  19  38
TORSDOF 6
ENDMDL
MODEL 6
REMARK VINA RESULT:      -7.3      8.218     12.523
REMARK  6 active torsions:
REMARK  status: ('A' for Active; 'I' for Inactive)
REMARK    1  A    between atoms: C_7  and  O_14 
REMARK    2  A    between atoms: C_10  and  N_15 
REMARK    3  A    between atoms: O_14  and  C_19 
REMARK    4  A    between atoms: C_24  and  N_30 
REMARK    5  A    between atoms: C_29  and  O_32 
REMARK    6  A    between atoms: O_32  and  C_36 
ROOT
HETATM    1  C   UNK N   1      23.206  14.915   3.402  0.00  0.00     0.003 C 
HETATM    2  C   UNK N   1      24.680  15.378   3.202  0.00  0.00    -0.005 C 
HETATM    3  C   UNK N   1      22.443  15.929   4.328  0.00  0.00    -0.011 C 
HETATM    4  C   UNK N   1      22.822  13.526   3.914  0.00  0.00     0.042 C 
HETATM    5  C   UNK N   1      25.457  15.753   4.502  0.00  0.00    -0.002 C 
HETATM    6  C   UNK N   1      25.648  14.615   2.294  0.00  0.00     0.006 C 
HETATM    7  C   UNK N   1      21.469  15.085   5.170  0.00  0.00     0.171 C 
HETATM    8  C   UNK N   1      23.327  16.836   5.201  0.00  0.00     0.012 C 
HETATM    9  C   UNK N   1      21.669  16.933   3.492  0.00  0.00     0.018 C 
HETATM   10  C   UNK N   1      21.398  13.707   4.517  0.00  0.00     0.220 C 
HETATM   11  C   UNK N   1      26.484  16.881   4.117  0.00  0.00    -0.034 C 
HETATM   12  C   UNK N   1      24.549  16.110   5.676  0.00  0.00     0.007 C 
HETATM   13  C   UNK N   1      26.858  15.535   1.952  0.00  0.00     0.006 C 
HETATM   14  C   UNK N   1      27.534  16.253   3.161  0.00  0.00    -0.004 C 
HETATM   15  C   UNK N   1      27.177  17.520   5.313  0.00  0.00     0.046 C 
HETATM   16  C   UNK N   1      25.810  18.082   3.446  0.00  0.00     0.016 C 
HETATM   17  C   UNK N   1      28.458  15.281   3.934  0.00  0.00     0.040 C 
HETATM   18  C   UNK N   1      27.985  16.515   6.113  0.00  0.00     0.220 C 
HETATM   19  C   UNK N   1      29.096  15.910   5.209  0.00  0.00     0.163 C 
ENDROOT
BRANCH  10  20
HETATM   20  N   UNK N   1      20.191  13.614   3.635  0.00  0.00    -0.064 N 
HETATM   21  C   UNK N   1      20.505  13.838   2.216  0.00  0.00     0.237 C 
HETATM   22  C   UNK N   1      19.258  13.631   1.322  0.00  0.00     0.028 C 
HETATM   23  C   UNK N   1      18.671  12.234   1.516  0.00  0.00     0.003 C 
HETATM   24  C   UNK N   1      18.419  11.954   2.988  0.00  0.00     0.028 C 
HETATM   25  C   UNK N   1      19.696  12.228   3.782  0.00  0.00     0.237 C 
HETATM   26  C   UNK N   1      19.135  14.554   4.024  0.00  0.00     0.273 C 
ENDBRANCH  10  20
BRANCH   7  27
HETATM   27  O   UNK N   1      21.847  14.973   6.489  0.00  0.00    -0.313 OA
BRANCH  27  28
HETATM   28  C   UNK N   1      20.913  15.012   7.473  0.00  0.00     0.255 C 
HETATM   29  C   UNK N   1      20.748  16.247   8.286  0.00  0.00     0.126 C 
HETATM   30  O   UNK N   1      20.185  14.053   7.682  0.00  0.00    -0.266 OA
ENDBRANCH  27  28
ENDBRANCH   7  27
BRANCH  18  31
HETATM   31  N   UNK N   1      28.410  17.061   7.431  0.00  0.00    -0.064 N 
HETATM   32  C   UNK N   1      28.359  18.540   7.365  0.00  0.00     0.237 C 
HETATM   33  C   UNK N   1      28.904  19.234   8.619  0.00  0.00     0.028 C 
HETATM   34  C   UNK N   1      30.312  18.747   8.925  0.00  0.00     0.003 C 
HETATM   35  C   UNK N   1      30.289  17.239   9.083  0.00  0.00     0.028 C 
HETATM   36  C   UNK N   1      29.770  16.609   7.790  0.00  0.00     0.237 C 
HETATM   37  C   UNK N   1      27.447  16.611   8.431  0.00  0.00     0.273 C 
ENDBRANCH  18  31
BRANCH  19  38
HETATM   38  O   UNK N   1      30.128  16.824   4.990  0.00  0.00    -0.314 OA
BRANCH  38  39
HETATM   39  C   UNK N   1      31.408  16.632   4.585  0.00  0.00     0.255 C 
HETATM   40  C   UNK N   1      31.820  17.098   3.233  0.00  0.00     0.126 C 
HETATM   41  O   UNK N   1      32.245  16.118   5.320  0.00  0.00    -0.266 OA
ENDBRANCH  38  39
ENDBRANCH  19  38
TORSDOF 6
ENDMDL
MODEL 7
REMARK VINA RESULT:      -7.1      8.136     12.352
REMARK  6 active torsions:
REMARK  status: ('A' for Active; 'I' for Inactive)
REMARK    1  A    between atoms: C_7  and  O_14 
REMARK    2  A    between atoms: C_10  and  N_15 
REMARK    3  A    between atoms: O_14  and  C_19 
REMARK    4  A    between atoms: C_24  and  N_30 
REMARK    5  A    between atoms: C_29  and  O_32 
REMARK    6  A    between atoms: O_32  and  C_36 
ROOT
HETATM    1  C   UNK N   1      23.499  13.766   4.083  0.00  0.00     0.003 C 
HETATM    2  C   UNK N   1      24.835  14.428   3.630  0.00  0.00    -0.005 C 
HETATM    3  C   UNK N   1      22.647  14.787   4.919  0.00  0.00    -0.011 C 
HETATM    4  C   UNK N   1      23.433  12.449   4.857  0.00  0.00     0.042 C 
HETATM    5  C   UNK N   1      25.643  15.160   4.746  0.00  0.00    -0.002 C 
HETATM    6  C   UNK N   1      25.841  13.688   2.745  0.00  0.00     0.006 C 
HETATM    7  C   UNK N   1      21.932  13.957   6.000  0.00  0.00     0.171 C 
HETATM    8  C   UNK N   1      23.421  15.974   5.517  0.00  0.00     0.012 C 
HETATM    9  C   UNK N   1      21.624  15.475   4.033  0.00  0.00     0.018 C 
HETATM   10  C   UNK N   1      22.063  12.492   5.594  0.00  0.00     0.220 C 
HETATM   11  C   UNK N   1      26.399  16.357   4.058  0.00  0.00    -0.034 C 
HETATM   12  C   UNK N   1      24.796  15.565   5.949  0.00  0.00     0.007 C 
HETATM   13  C   UNK N   1      26.819  14.723   2.111  0.00  0.00     0.006 C 
HETATM   14  C   UNK N   1      27.455  15.753   3.094  0.00  0.00    -0.004 C 
HETATM   15  C   UNK N   1      27.065  17.311   5.040  0.00  0.00     0.046 C 
HETATM   16  C   UNK N   1      25.451  17.283   3.289  0.00  0.00     0.016 C 
HETATM   17  C   UNK N   1      28.614  15.109   3.894  0.00  0.00     0.040 C 
HETATM   18  C   UNK N   1      28.120  16.621   5.886  0.00  0.00     0.220 C 
HETATM   19  C   UNK N   1      29.236  16.058   4.961  0.00  0.00     0.163 C 
ENDROOT
BRANCH  10  20
HETATM   20  N   UNK N   1      20.818  12.036   4.895  0.00  0.00    -0.064 N 
HETATM   21  C   UNK N   1      19.747  13.043   4.929  0.00  0.00     0.237 C 
HETATM   22  C   UNK N   1      18.515  12.585   4.109  0.00  0.00     0.028 C 
HETATM   23  C   UNK N   1      18.904  12.279   2.663  0.00  0.00     0.003 C 
HETATM   24  C   UNK N   1      20.068  11.304   2.611  0.00  0.00     0.028 C 
HETATM   25  C   UNK N   1      21.208  11.829   3.483  0.00  0.00     0.237 C 
HETATM   26  C   UNK N   1      20.290  10.784   5.444  0.00  0.00     0.273 C 
ENDBRANCH  10  20
BRANCH   7  27
HETATM   27  O   UNK N   1      22.444  14.153   7.264  0.00  0.00    -0.313 OA
BRANCH  27  28
HETATM   28  C   UNK N   1      21.728  13.783   8.356  0.00  0.00     0.255 C 
HETATM   29  C   UNK N   1      22.429  13.501   9.637  0.00  0.00     0.126 C 
HETATM   30  O   UNK N   1      20.509  13.706   8.308  0.00  0.00    -0.266 OA
ENDBRANCH  27  28
ENDBRANCH   7  27
BRANCH  18  31
HETATM   31  N   UNK N   1      28.553  17.462   7.035  0.00  0.00    -0.064 N 
HETATM   32  C   UNK N   1      29.976  17.168   7.321  0.00  0.00     0.237 C 
HETATM   33  C   UNK N   1      30.512  17.872   8.574  0.00  0.00     0.028 C 
HETATM   34  C   UNK N   1      29.636  17.556   9.775  0.00  0.00     0.003 C 
HETATM   35  C   UNK N   1      28.209  17.970   9.467  0.00  0.00     0.028 C 
HETATM   36  C   UNK N   1      27.725  17.209   8.231  0.00  0.00     0.237 C 
HETATM   37  C   UNK N   1      28.443  18.860   6.631  0.00  0.00     0.273 C 
ENDBRANCH  18  31
BRANCH  19  38
HETATM   38  O   UNK N   1      30.052  17.080   4.472  0.00  0.00    -0.314 OA
BRANCH  38  39
HETATM   39  C   UNK N   1      31.282  17.031   3.900  0.00  0.00     0.255 C 
HETATM   40  C   UNK N   1      32.477  17.382   4.715  0.00  0.00     0.126 C 
HETATM   41  O   UNK N   1      31.437  16.669   2.739  0.00  0.00    -0.266 OA
ENDBRANCH  38  39
ENDBRANCH  19  38
TORSDOF 6
ENDMDL
MODEL 8
REMARK VINA RESULT:      -7.0      4.674      9.046
REMARK  6 active torsions:
REMARK  status: ('A' for Active; 'I' for Inactive)
REMARK    1  A    between atoms: C_7  and  O_14 
REMARK    2  A    between atoms: C_10  and  N_15 
REMARK    3  A    between atoms: O_14  and  C_19 
REMARK    4  A    between atoms: C_24  and  N_30 
REMARK    5  A    between atoms: C_29  and  O_32 
REMARK    6  A    between atoms: O_32  and  C_36 
ROOT
HETATM    1  C   UNK N   1      35.826  11.696  15.411  0.00  0.00     0.003 C 
HETATM    2  C   UNK N   1      35.650  11.416  16.933  0.00  0.00    -0.005 C 
HETATM    3  C   UNK N   1      35.546  10.388  14.587  0.00  0.00    -0.011 C 
HETATM    4  C   UNK N   1      37.096  12.295  14.807  0.00  0.00     0.042 C 
HETATM    5  C   UNK N   1      36.386  10.154  17.482  0.00  0.00    -0.002 C 
HETATM    6  C   UNK N   1      35.799  12.524  17.979  0.00  0.00     0.006 C 
HETATM    7  C   UNK N   1      36.521  10.421  13.395  0.00  0.00     0.171 C 
HETATM    8  C   UNK N   1      35.636   9.068  15.371  0.00  0.00     0.012 C 
HETATM    9  C   UNK N   1      34.114  10.374  14.084  0.00  0.00     0.018 C 
HETATM   10  C   UNK N   1      37.079  11.840  13.318  0.00  0.00     0.220 C 
HETATM   11  C   UNK N   1      35.516   9.591  18.666  0.00  0.00    -0.034 C 
HETATM   12  C   UNK N   1      36.718   9.124  16.406  0.00  0.00     0.007 C 
HETATM   13  C   UNK N   1      35.145  12.057  19.314  0.00  0.00     0.006 C 
HETATM   14  C   UNK N   1      35.551  10.636  19.813  0.00  0.00    -0.004 C 
HETATM   15  C   UNK N   1      35.975   8.232  19.177  0.00  0.00     0.046 C 
HETATM   16  C   UNK N   1      34.068   9.315  18.248  0.00  0.00     0.016 C 
HETATM   17  C   UNK N   1      36.950  10.664  20.478  0.00  0.00     0.040 C 
HETATM   18  C   UNK N   1      37.391   8.272  19.720  0.00  0.00     0.220 C 
HETATM   19  C   UNK N   1      37.457   9.259  20.919  0.00  0.00     0.163 C 
ENDROOT
BRANCH  10  20
HETATM   20  N   UNK N   1      36.328  12.637  12.296  0.00  0.00    -0.064 N 
HETATM   21  C   UNK N   1      35.476  13.673  12.898  0.00  0.00     0.237 C 
HETATM   22  C   UNK N   1      34.796  14.546  11.815  0.00  0.00     0.028 C 
HETATM   23  C   UNK N   1      35.836  15.188  10.898  0.00  0.00     0.003 C 
HETATM   24  C   UNK N   1      36.780  14.139  10.333  0.00  0.00     0.028 C 
HETATM   25  C   UNK N   1      37.360  13.310  11.478  0.00  0.00     0.237 C 
HETATM   26  C   UNK N   1      35.490  11.799  11.433  0.00  0.00     0.273 C 
ENDBRANCH  10  20
BRANCH   7  27
HETATM   27  O   UNK N   1      37.545   9.507  13.503  0.00  0.00    -0.313 OA
BRANCH  27  28
HETATM   28  C   UNK N   1      37.823   8.667  12.475  0.00  0.00     0.255 C 
HETATM   29  C   UNK N   1      36.714   8.127  11.642  0.00  0.00     0.126 C 
HETATM   30  O   UNK N   1      38.977   8.370  12.204  0.00  0.00    -0.266 OA
ENDBRANCH  27  28
ENDBRANCH   7  27
BRANCH  18  31
HETATM   31  N   UNK N   1      37.945   6.906  19.938  0.00  0.00    -0.064 N 
HETATM   32  C   UNK N   1      38.324   6.339  18.624  0.00  0.00     0.237 C 
HETATM   33  C   UNK N   1      38.785   4.878  18.692  0.00  0.00     0.028 C 
HETATM   34  C   UNK N   1      37.731   4.021  19.375  0.00  0.00     0.003 C 
HETATM   35  C   UNK N   1      37.454   4.587  20.755  0.00  0.00     0.028 C 
HETATM   36  C   UNK N   1      36.967   6.030  20.614  0.00  0.00     0.237 C 
HETATM   37  C   UNK N   1      39.151   7.038  20.749  0.00  0.00     0.273 C 
ENDBRANCH  18  31
BRANCH  19  38
HETATM   38  O   UNK N   1      36.853   8.719  22.056  0.00  0.00    -0.314 OA
BRANCH  38  39
HETATM   39  C   UNK N   1      36.308   9.325  23.141  0.00  0.00     0.255 C 
HETATM   40  C   UNK N   1      34.828   9.338  23.299  0.00  0.00     0.126 C 
HETATM   41  O   UNK N   1      37.005   9.830  24.013  0.00  0.00    -0.266 OA
ENDBRANCH  38  39
ENDBRANCH  19  38
TORSDOF 6
ENDMDL
MODEL 9
REMARK VINA RESULT:      -7.0      2.041      9.642
REMARK  6 active torsions:
REMARK  status: ('A' for Active; 'I' for Inactive)
REMARK    1  A    between atoms: C_7  and  O_14 
REMARK    2  A    between atoms: C_10  and  N_15 
REMARK    3  A    between atoms: O_14  and  C_19 
REMARK    4  A    between atoms: C_24  and  N_30 
REMARK    5  A    between atoms: C_29  and  O_32 
REMARK    6  A    between atoms: O_32  and  C_36 
ROOT
HETATM    1  C   UNK N   1      36.118  11.553  13.604  0.00  0.00     0.003 C 
HETATM    2  C   UNK N   1      36.191  12.905  12.833  0.00  0.00    -0.005 C 
HETATM    3  C   UNK N   1      36.473  10.364  12.640  0.00  0.00    -0.011 C 
HETATM    4  C   UNK N   1      34.884  11.093  14.381  0.00  0.00     0.042 C 
HETATM    5  C   UNK N   1      35.437  12.951  11.468  0.00  0.00    -0.002 C 
HETATM    6  C   UNK N   1      35.953  14.245  13.534  0.00  0.00     0.006 C 
HETATM    7  C   UNK N   1      35.584   9.185  13.076  0.00  0.00     0.171 C 
HETATM    8  C   UNK N   1      36.348  10.659  11.136  0.00  0.00     0.012 C 
HETATM    9  C   UNK N   1      37.938   9.987  12.780  0.00  0.00     0.018 C 
HETATM   10  C   UNK N   1      35.012   9.543  14.445  0.00  0.00     0.220 C 
HETATM   11  C   UNK N   1      36.230  13.941  10.537  0.00  0.00    -0.034 C 
HETATM   12  C   UNK N   1      35.196  11.574  10.856  0.00  0.00     0.007 C 
HETATM   13  C   UNK N   1      36.519  15.393  12.645  0.00  0.00     0.006 C 
HETATM   14  C   UNK N   1      36.099  15.364  11.143  0.00  0.00    -0.004 C 
HETATM   15  C   UNK N   1      35.757  13.939   9.089  0.00  0.00     0.046 C 
HETATM   16  C   UNK N   1      37.708  13.558  10.401  0.00  0.00     0.016 C 
HETATM   17  C   UNK N   1      34.658  15.900  10.962  0.00  0.00     0.040 C 
HETATM   18  C   UNK N   1      34.305  14.363   8.960  0.00  0.00     0.220 C 
HETATM   19  C   UNK N   1      34.142  15.813   9.495  0.00  0.00     0.163 C 
ENDROOT
BRANCH  10  20
HETATM   20  N   UNK N   1      35.821   8.899  15.528  0.00  0.00    -0.064 N 
HETATM   21  C   UNK N   1      35.027   8.600  16.729  0.00  0.00     0.237 C 
HETATM   22  C   UNK N   1      35.866   7.841  17.787  0.00  0.00     0.028 C 
HETATM   23  C   UNK N   1      36.444   6.552  17.204  0.00  0.00     0.003 C 
HETATM   24  C   UNK N   1      37.197   6.831  15.914  0.00  0.00     0.028 C 
HETATM   25  C   UNK N   1      36.297   7.617  14.962  0.00  0.00     0.237 C 
HETATM   26  C   UNK N   1      36.973   9.712  15.930  0.00  0.00     0.273 C 
ENDBRANCH  10  20
BRANCH   7  27
HETATM   27  O   UNK N   1      34.569   8.911  12.187  0.00  0.00    -0.313 OA
BRANCH  27  28
HETATM   28  C   UNK N   1      34.551   7.736  11.510  0.00  0.00     0.255 C 
HETATM   29  C   UNK N   1      33.408   7.417  10.613  0.00  0.00     0.126 C 
HETATM   30  O   UNK N   1      35.478   6.945  11.607  0.00  0.00    -0.266 OA
ENDBRANCH  27  28
ENDBRANCH   7  27
BRANCH  18  31
HETATM   31  N   UNK N   1      33.758  14.076   7.605  0.00  0.00    -0.064 N 
HETATM   32  C   UNK N   1      34.686  14.635   6.596  0.00  0.00     0.237 C 
HETATM   33  C   UNK N   1      34.171  14.526   5.155  0.00  0.00     0.028 C 
HETATM   34  C   UNK N   1      32.792  15.155   5.037  0.00  0.00     0.003 C 
HETATM   35  C   UNK N   1      31.856  14.478   6.020  0.00  0.00     0.028 C 
HETATM   36  C   UNK N   1      32.408  14.652   7.436  0.00  0.00     0.237 C 
HETATM   37  C   UNK N   1      33.714  12.627   7.439  0.00  0.00     0.273 C 
ENDBRANCH  18  31
BRANCH  19  38
HETATM   38  O   UNK N   1      34.673  16.747   8.603  0.00  0.00    -0.314 OA
BRANCH  38  39
HETATM   39  C   UNK N   1      34.278  18.011   8.307  0.00  0.00     0.255 C 
HETATM   40  C   UNK N   1      32.844  18.272   8.002  0.00  0.00     0.126 C 
HETATM   41  O   UNK N   1      35.065  18.951   8.322  0.00  0.00    -0.266 OA
ENDBRANCH  38  39
ENDBRANCH  19  38
TORSDOF 6
ENDMDL
