REMARK  10 active torsions:
REMARK  status: ('A' for Active; 'I' for Inactive)
REMARK    1  A    between atoms: C_1  and  C_28 
REMARK    2  A    between atoms: C_2  and  O_32 
REMARK    3  A    between atoms: C_4  and  S_11 
REMARK    4  A    between atoms: C_5  and  C_8 
REMARK    5  A    between atoms: S_11  and  C_23 
REMARK    6  A    between atoms: S_12  and  C_13 
REMARK    7  A    between atoms: C_23  and  S_12 
REMARK    8  A    between atoms: C_15  and  O_33 
REMARK    9  A    between atoms: C_16  and  C_24 
REMARK   10  A    between atoms: C_17  and  C_20 
ROOT
HETATM    1  C   UNK N   1       8.256  -7.077  -0.291  0.00  0.00     0.058 C 
HETATM    2  C   UNK N   1       8.385  -5.949  -1.306  0.00  0.00     0.039 C 
HETATM    3  C   UNK N   1       7.218  -8.047  -0.822  0.00  0.00     0.039 C 
ENDROOT
BRANCH   1   4
HETATM    4  S   UNK N   1       7.782  -6.486   1.387  0.00  0.00    -0.109 SA
BRANCH   4   5
HETATM    5  C   UNK N   1       6.274  -5.686   0.858  0.00  0.00     0.003 A 
HETATM    6  C   UNK N   1       6.288  -4.334   0.559  0.00  0.00     0.029 A 
HETATM    7  C   UNK N   1       5.168  -3.697   0.011  0.00  0.00    -0.016 A 
HETATM    8  C   UNK N   1       3.997  -4.474  -0.245  0.00  0.00     0.079 A 
HETATM    9  C   UNK N   1       3.979  -5.865   0.074  0.00  0.00    -0.016 A 
HETATM   10  C   UNK N   1       5.130  -6.438   0.630  0.00  0.00     0.029 A 
BRANCH   7  11
HETATM   11  C   UNK N   1       5.311  -2.204  -0.296  0.00  0.00    -0.021 C 
HETATM   12  C   UNK N   1       6.489  -1.994  -1.235  0.00  0.00     0.019 C 
HETATM   13  C   UNK N   1       4.108  -1.545  -0.948  0.00  0.00     0.019 C 
HETATM   14  C   UNK N   1       5.589  -1.450   0.992  0.00  0.00     0.019 C 
ENDBRANCH   7  11
BRANCH   8  15
HETATM   15  O   UNK N   1       2.913  -3.895  -0.788  0.00  0.00    -0.360 OA
HETATM   16  H   UNK N   1       2.884  -3.039  -1.166  0.00  0.00     0.217 HD
ENDBRANCH   8  15
BRANCH   9  17
HETATM   17  C   UNK N   1       2.794  -6.804  -0.177  0.00  0.00    -0.021 C 
HETATM   18  C   UNK N   1       3.240  -7.946  -1.076  0.00  0.00     0.019 C 
HETATM   19  C   UNK N   1       1.581  -6.176  -0.841  0.00  0.00     0.019 C 
HETATM   20  C   UNK N   1       2.326  -7.395   1.142  0.00  0.00     0.019 C 
ENDBRANCH   9  17
ENDBRANCH   4   5
ENDBRANCH   1   4
BRANCH   1  21
HETATM   21  S   UNK N   1       9.795  -8.052  -0.151  0.00  0.00    -0.109 SA
BRANCH  21  22
HETATM   22  C   UNK N   1      11.100  -6.806  -0.119  0.00  0.00     0.003 A 
HETATM   23  C   UNK N   1      12.401  -7.250  -0.316  0.00  0.00     0.029 A 
HETATM   24  C   UNK N   1      13.488  -6.371  -0.297  0.00  0.00    -0.016 A 
HETATM   25  C   UNK N   1      13.248  -4.992  -0.080  0.00  0.00     0.079 A 
HETATM   26  C   UNK N   1      11.927  -4.520   0.123  0.00  0.00    -0.016 A 
HETATM   27  C   UNK N   1      10.868  -5.446   0.112  0.00  0.00     0.029 A 
BRANCH  24  28
HETATM   28  C   UNK N   1      14.899  -6.910  -0.504  0.00  0.00    -0.021 C 
HETATM   29  C   UNK N   1      15.531  -6.268  -1.726  0.00  0.00     0.019 C 
HETATM   30  C   UNK N   1      14.930  -8.419  -0.717  0.00  0.00     0.019 C 
HETATM   31  C   UNK N   1      15.754  -6.609   0.714  0.00  0.00     0.019 C 
ENDBRANCH  24  28
BRANCH  25  32
HETATM   32  O   UNK N   1      14.280  -4.127  -0.066  0.00  0.00    -0.360 OA
HETATM   33  H   UNK N   1      15.161  -4.448  -0.056  0.00  0.00     0.217 HD
ENDBRANCH  25  32
BRANCH  26  34
HETATM   34  C   UNK N   1      11.650  -3.035   0.345  0.00  0.00    -0.021 C 
HETATM   35  C   UNK N   1      12.379  -2.544   1.583  0.00  0.00     0.019 C 
HETATM   36  C   UNK N   1      10.169  -2.731   0.535  0.00  0.00     0.019 C 
HETATM   37  C   UNK N   1      12.125  -2.233  -0.855  0.00  0.00     0.019 C 
ENDBRANCH  26  34
ENDBRANCH  21  22
ENDBRANCH   1  21
TORSDOF 10
