REMARK  15 active torsions:
REMARK  status: ('A' for Active; 'I' for Inactive)
REMARK    1  A    between atoms: C_8  and  C_4 
REMARK    2  A    between atoms: C_9  and  C_5 
REMARK    3  A    between atoms: O_28  and  C_5 
REMARK    4  A    between atoms: O_29  and  C_6 
REMARK       I    between atoms: N_26  and  C_7 
REMARK    5  A    between atoms: C_16  and  C_8 
REMARK    6  A    between atoms: C_8  and  N_24 
REMARK    7  A    between atoms: C_17  and  C_9 
REMARK    8  A    between atoms: C_9  and  O_31 
REMARK    9  A    between atoms: C_18  and  C_10 
REMARK   10  A    between atoms: N_22  and  C_14 
REMARK   11  A    between atoms: N_26  and  C_15 
REMARK   12  A    between atoms: C_17  and  C_16 
REMARK   13  A    between atoms: C_16  and  O_32 
REMARK   14  A    between atoms: C_17  and  O_33 
REMARK   15  A    between atoms: C_18  and  O_34 
ROOT
HETATM    1  C   UNK N   1      -1.425  -0.335  -0.282  0.00  0.00     0.052 C 
HETATM    2  C   UNK N   1      -1.437   1.074  -0.163  0.00  0.00     0.050 C 
HETATM    3  C   UNK N   1      -2.577  -1.066   0.101  0.00  0.00     0.050 C 
HETATM    4  C   UNK N   1      -3.769   1.043   0.558  0.00  0.00     0.062 C 
HETATM    5  C   UNK N   1      -2.575   1.754   0.301  0.00  0.00     0.070 C 
HETATM    6  C   UNK N   1      -3.788  -0.380   0.433  0.00  0.00     0.073 C 
HETATM    7  I   UNK N   1       0.291   2.234  -0.670  0.00  0.00    -0.041 I 
HETATM    8  I   UNK N   1      -2.554  -3.206   0.244  0.00  0.00    -0.041 I 
HETATM    9  I   UNK N   1      -5.526   2.170   1.080  0.00  0.00    -0.040 I 
ENDROOT
BRANCH   1  10
HETATM   10  C   UNK N   1      -0.307  -0.964  -1.075  0.00  0.00     0.149 C 
HETATM   11  N   UNK N   1       0.514  -1.898  -0.718  0.00  0.00    -0.357 N 
ATOM     12  HN  UNK N   1       1.118  -2.231  -1.469  1.00  0.00     0.162 HD
BRANCH  11  13
HETATM   13  C   UNK N   1       0.734  -2.556   0.550  0.00  0.00     0.176 C 
BRANCH  13  14
HETATM   14  C   UNK N   1       0.807  -4.055   0.351  0.00  0.00     0.258 C 
HETATM   15  O   UNK N   1      -0.047  -4.683  -0.251  0.00  0.00    -0.305 OA
ENDBRANCH  13  14
BRANCH  13  16
HETATM   16  C   UNK N   1       2.112  -2.065   1.051  0.00  0.00     0.178 C 
BRANCH  16  17
HETATM   17  C   UNK N   1       3.267  -2.414   0.049  0.00  0.00     0.180 C 
BRANCH  17  18
HETATM   18  C   UNK N   1       4.576  -1.665   0.339  0.00  0.00     0.173 C 
BRANCH  18  19
HETATM   19  C   UNK N   1       5.668  -2.131  -0.619  0.00  0.00     0.198 C 
BRANCH  19  20
HETATM   20  O   UNK N   1       6.857  -1.444  -0.370  0.00  0.00    -0.398 OA
HETATM   21  H   UNK N   1       7.684  -1.921  -0.197  0.00  0.00     0.209 HD
ENDBRANCH  19  20
ENDBRANCH  18  19
BRANCH  18  22
HETATM   22  O   UNK N   1       4.389  -0.291   0.157  0.00  0.00    -0.391 OA
HETATM   23  H   UNK N   1       5.150   0.297   0.030  0.00  0.00     0.210 HD
ENDBRANCH  18  22
ENDBRANCH  17  18
BRANCH  17  24
HETATM   24  O   UNK N   1       3.517  -3.791   0.087  0.00  0.00    -0.390 OA
HETATM   25  H   UNK N   1       2.777  -4.418   0.114  0.00  0.00     0.210 HD
ENDBRANCH  17  24
ENDBRANCH  16  17
BRANCH  16  26
HETATM   26  O   UNK N   1       2.023  -0.681   1.228  0.00  0.00    -0.390 OA
HETATM   27  H   UNK N   1       2.824  -0.147   1.350  0.00  0.00     0.210 HD
ENDBRANCH  16  26
ENDBRANCH  13  16
ENDBRANCH  11  13
BRANCH  10  28
HETATM   28  O   UNK N   1      -0.137  -0.461  -2.313  0.00  0.00    -0.346 OA
HETATM   29  H   UNK N   1       0.225  -0.389  -3.174  0.00  0.00     0.219 HD
ENDBRANCH  10  28
ENDBRANCH   1  10
BRANCH   5  30
HETATM   30  N   UNK N   1      -2.494   3.168   0.482  0.00  0.00    -0.339 N 
HETATM   31  C   UNK N   1      -3.106   4.044  -0.240  0.00  0.00     0.111 C 
HETATM   32  C   UNK N   1      -2.948   5.492   0.080  0.00  0.00     0.097 C 
ATOM     33  HN  UNK N   1      -1.907   3.512   1.242  1.00  0.00     0.168 HD
BRANCH  31  34
HETATM   34  O   UNK N   1      -3.863   3.675  -1.293  0.00  0.00    -0.350 OA
HETATM   35  H   UNK N   1      -4.348   4.002  -2.024  0.00  0.00     0.219 HD
ENDBRANCH  31  34
ENDBRANCH   5  30
BRANCH   6  36
HETATM   36  N   UNK N   1      -5.013  -1.131   0.558  0.00  0.00    -0.320 N 
HETATM   37  C   UNK N   1      -5.915  -0.882   1.664  0.00  0.00     0.159 C 
HETATM   38  C   UNK N   1      -5.396  -2.045  -0.401  0.00  0.00     0.220 C 
HETATM   39  C   UNK N   1      -6.634  -2.867  -0.259  0.00  0.00     0.117 C 
HETATM   40  O   UNK N   1      -4.729  -2.188  -1.424  0.00  0.00    -0.274 OA
ENDBRANCH   6  36
TORSDOF 15
