MODEL 1
REMARK VINA RESULT:      -8.0      0.000      0.000
REMARK  11 active torsions:
REMARK  status: ('A' for Active; 'I' for Inactive)
REMARK    1  A    between atoms: C_1  and  C_29 
REMARK    2  A    between atoms: C_4  and  C_9 
REMARK    3  A    between atoms: C_7  and  N_13 
REMARK    4  A    between atoms: C_7  and  O_14 
REMARK    5  A    between atoms: C_9  and  O_10 
REMARK       I    between atoms: N_13  and  C_16 
REMARK    6  A    between atoms: C_16  and  C_17 
REMARK    7  A    between atoms: C_22  and  C_23 
REMARK    8  A    between atoms: C_22  and  C_24 
REMARK    9  A    between atoms: C_23  and  O_27 
REMARK       I    between atoms: C_24  and  N_25 
REMARK   10  A    between atoms: C_29  and  S_30 
REMARK   11  A    between atoms: S_30  and  C_31 
ROOT
HETATM    1  C   UNK N   1      31.043  17.004   6.128  0.00  0.00    -0.027 C 
HETATM    2  C   UNK N   1      30.209  17.493   7.309  0.00  0.00     0.113 C 
HETATM    3  S   UNK N   1      28.391  17.203   7.213  0.00  0.00    -0.133 SA
HETATM    4  C   UNK N   1      30.482  16.821   4.892  0.00  0.00     0.116 C 
HETATM    5  N   UNK N   1      29.120  17.215   4.745  0.00  0.00    -0.288 N 
HETATM    6  C   UNK N   1      28.367  18.053   5.626  0.00  0.00     0.221 A 
HETATM    7  C   UNK N   1      27.128  17.862   4.593  0.00  0.00     0.250 A 
HETATM    8  C   UNK N   1      28.142  17.013   3.909  0.00  0.00     0.285 A 
HETATM    9  O   UNK N   1      28.130  16.347   2.886  0.00  0.00    -0.267 OA
ENDROOT
BRANCH   7  10
HETATM   10  N   UNK N   1      25.897  17.251   5.067  0.00  0.00    -0.317 N 
HETATM   11  C   UNK N   1      24.867  16.785   4.320  0.00  0.00     0.244 C 
HETATM   12  O   UNK N   1      25.011  16.509   3.140  0.00  0.00    -0.271 OA
HETATM   13  H   UNK N   1      25.801  17.166   6.043  0.00  0.00     0.166 HD
BRANCH  11  14
HETATM   14  C   UNK N   1      23.480  16.919   4.877  0.00  0.00     0.211 A 
HETATM   15  S   UNK N   1      22.352  16.405   3.501  0.00  0.00    -0.096 SA
HETATM   16  C   UNK N   1      22.011  18.144   3.661  0.00  0.00     0.062 A 
HETATM   17  S   UNK N   1      22.984  18.694   5.048  0.00  0.00    -0.096 SA
HETATM   18  C   UNK N   1      21.144  18.904   2.909  0.00  0.00     0.128 C 
BRANCH  18  19
HETATM   19  C   UNK N   1      20.954  20.372   3.211  0.00  0.00     0.183 C 
HETATM   20  O   UNK N   1      20.031  20.740   3.920  0.00  0.00    -0.646 OA
BRANCH  19  21
HETATM   21  O   UNK N   1      21.780  21.305   2.704  0.00  0.00    -0.772 OA
HETATM   22  H   UNK N   1      22.694  21.377   2.514  0.00  0.00     0.167 HD
ENDBRANCH  19  21
ENDBRANCH  18  19
BRANCH  18  23
HETATM   23  C   UNK N   1      20.342  18.310   1.769  0.00  0.00     0.258 C 
HETATM   24  N   UNK N   1      19.364  17.410   1.987  0.00  0.00    -0.366 N 
HETATM   25  H   UNK N   1      18.502  17.454   1.513  0.00  0.00     0.159 HD
HETATM   26  H   UNK N   1      19.516  16.687   2.637  0.00  0.00     0.159 HD
HETATM   27  O   UNK N   1      20.584  18.634   0.617  0.00  0.00    -0.268 OA
ENDBRANCH  18  23
ENDBRANCH  11  14
ENDBRANCH   7  10
BRANCH   7  28
HETATM   28  O   UNK N   1      26.860  18.998   3.810  0.00  0.00    -0.355 OA
HETATM   29  C   UNK N   1      26.347  19.989   4.663  0.00  0.00     0.205 C 
ENDBRANCH   7  28
BRANCH   4  30
HETATM   30  C   UNK N   1      31.245  16.261   3.724  0.00  0.00     0.194 C 
HETATM   31  O   UNK N   1      31.709  15.133   3.757  0.00  0.00    -0.645 OA
BRANCH  30  32
HETATM   32  O   UNK N   1      31.435  17.000   2.616  0.00  0.00    -0.772 OA
HETATM   33  H   UNK N   1      31.981  16.797   1.881  0.00  0.00     0.167 HD
ENDBRANCH  30  32
ENDBRANCH   4  30
BRANCH   1  34
HETATM   34  C   UNK N   1      32.495  16.755   6.423  0.00  0.00     0.120 C 
BRANCH  34  35
HETATM   35  S   UNK N   1      32.749  16.156   8.142  0.00  0.00    -0.087 SA
BRANCH  35  36
HETATM   36  C   UNK N   1      34.028  17.344   8.593  0.00  0.00     0.172 A 
HETATM   37  N   UNK N   1      34.242  18.505   7.947  0.00  0.00    -0.265 N 
HETATM   38  N   UNK N   1      35.239  19.097   8.597  0.00  0.00    -0.007 NA
ATOM     39  HN  UNK N   1      33.744  18.856   7.130  1.00  0.00     0.186 HD
HETATM   40  N   UNK N   1      35.627  18.329   9.606  0.00  0.00    -0.005 NA
HETATM   41  N   UNK N   1      34.886  17.236   9.616  0.00  0.00    -0.260 N 
HETATM   42  C   UNK N   1      35.011  16.160  10.582  0.00  0.00     0.177 C 
ENDBRANCH  35  36
ENDBRANCH  34  35
ENDBRANCH   1  34
TORSDOF 11
ENDMDL
MODEL 2
REMARK VINA RESULT:      -7.8      4.318     11.506
REMARK  11 active torsions:
REMARK  status: ('A' for Active; 'I' for Inactive)
REMARK    1  A    between atoms: C_1  and  C_29 
REMARK    2  A    between atoms: C_4  and  C_9 
REMARK    3  A    between atoms: C_7  and  N_13 
REMARK    4  A    between atoms: C_7  and  O_14 
REMARK    5  A    between atoms: C_9  and  O_10 
REMARK       I    between atoms: N_13  and  C_16 
REMARK    6  A    between atoms: C_16  and  C_17 
REMARK    7  A    between atoms: C_22  and  C_23 
REMARK    8  A    between atoms: C_22  and  C_24 
REMARK    9  A    between atoms: C_23  and  O_27 
REMARK       I    between atoms: C_24  and  N_25 
REMARK   10  A    between atoms: C_29  and  S_30 
REMARK   11  A    between atoms: S_30  and  C_31 
ROOT
HETATM    1  C   UNK N   1      28.929  16.267   5.691  0.00  0.00    -0.027 C 
HETATM    2  C   UNK N   1      29.871  15.420   4.839  0.00  0.00     0.113 C 
HETATM    3  S   UNK N   1      31.429  14.854   5.645  0.00  0.00    -0.133 SA
HETATM    4  C   UNK N   1      29.390  16.970   6.771  0.00  0.00     0.116 C 
HETATM    5  N   UNK N   1      30.800  16.959   6.985  0.00  0.00    -0.288 N 
HETATM    6  C   UNK N   1      31.809  16.566   6.051  0.00  0.00     0.221 A 
HETATM    7  C   UNK N   1      32.888  16.933   7.208  0.00  0.00     0.250 A 
HETATM    8  C   UNK N   1      31.632  17.234   7.948  0.00  0.00     0.285 A 
HETATM    9  O   UNK N   1      31.396  17.637   9.076  0.00  0.00    -0.267 OA
ENDROOT
BRANCH   7  10
HETATM   10  N   UNK N   1      33.773  15.894   7.708  0.00  0.00    -0.317 N 
HETATM   11  C   UNK N   1      34.724  15.219   7.019  0.00  0.00     0.244 C 
HETATM   12  O   UNK N   1      35.184  15.655   5.976  0.00  0.00    -0.271 OA
HETATM   13  H   UNK N   1      33.670  15.654   8.658  0.00  0.00     0.166 HD
BRANCH  11  14
HETATM   14  C   UNK N   1      34.968  13.784   7.384  0.00  0.00     0.211 A 
HETATM   15  S   UNK N   1      33.956  13.490   8.907  0.00  0.00    -0.096 SA
HETATM   16  C   UNK N   1      35.624  13.374   9.514  0.00  0.00     0.062 A 
HETATM   17  S   UNK N   1      36.666  13.537   8.078  0.00  0.00    -0.096 SA
HETATM   18  C   UNK N   1      36.034  13.156  10.809  0.00  0.00     0.128 C 
BRANCH  18  19
HETATM   19  C   UNK N   1      37.504  13.052  11.140  0.00  0.00     0.183 C 
HETATM   20  O   UNK N   1      37.934  12.079  11.739  0.00  0.00    -0.646 OA
BRANCH  19  21
HETATM   21  O   UNK N   1      38.371  14.023  10.795  0.00  0.00    -0.772 OA
HETATM   22  H   UNK N   1      39.257  14.249  10.997  0.00  0.00     0.167 HD
ENDBRANCH  19  21
ENDBRANCH  18  19
BRANCH  18  23
HETATM   23  C   UNK N   1      35.044  12.999  11.946  0.00  0.00     0.258 C 
HETATM   24  N   UNK N   1      34.615  11.787  12.348  0.00  0.00    -0.366 N 
HETATM   25  H   UNK N   1      34.529  11.555  13.300  0.00  0.00     0.159 HD
HETATM   26  H   UNK N   1      34.381  11.114  11.668  0.00  0.00     0.159 HD
HETATM   27  O   UNK N   1      34.604  13.986  12.514  0.00  0.00    -0.268 OA
ENDBRANCH  18  23
ENDBRANCH  11  14
ENDBRANCH   7  10
BRANCH   7  28
HETATM   28  O   UNK N   1      33.592  18.126   6.972  0.00  0.00    -0.355 OA
HETATM   29  C   UNK N   1      34.469  18.321   8.052  0.00  0.00     0.205 C 
ENDBRANCH   7  28
BRANCH   4  30
HETATM   30  C   UNK N   1      28.486  17.749   7.686  0.00  0.00     0.194 C 
HETATM   31  O   UNK N   1      27.931  17.209   8.629  0.00  0.00    -0.645 OA
BRANCH  30  32
HETATM   32  O   UNK N   1      28.269  19.059   7.477  0.00  0.00    -0.772 OA
HETATM   33  H   UNK N   1      27.641  19.448   6.900  0.00  0.00     0.167 HD
ENDBRANCH  30  32
ENDBRANCH   4  30
BRANCH   1  34
HETATM   34  C   UNK N   1      27.491  16.272   5.252  0.00  0.00     0.120 C 
BRANCH  34  35
HETATM   35  S   UNK N   1      27.266  17.165   3.662  0.00  0.00    -0.087 SA
BRANCH  35  36
HETATM   36  C   UNK N   1      27.147  18.821   4.365  0.00  0.00     0.172 A 
HETATM   37  N   UNK N   1      28.191  19.658   4.508  0.00  0.00    -0.265 N 
HETATM   38  N   UNK N   1      27.687  20.771   5.030  0.00  0.00    -0.007 NA
ATOM     39  HN  UNK N   1      29.164  19.476   4.266  1.00  0.00     0.186 HD
HETATM   40  N   UNK N   1      26.380  20.627   5.205  0.00  0.00    -0.005 NA
HETATM   41  N   UNK N   1      26.030  19.420   4.799  0.00  0.00    -0.260 N 
HETATM   42  C   UNK N   1      24.676  18.897   4.826  0.00  0.00     0.177 C 
ENDBRANCH  35  36
ENDBRANCH  34  35
ENDBRANCH   1  34
TORSDOF 11
ENDMDL
MODEL 3
REMARK VINA RESULT:      -7.4      4.453     11.907
REMARK  11 active torsions:
REMARK  status: ('A' for Active; 'I' for Inactive)
REMARK    1  A    between atoms: C_1  and  C_29 
REMARK    2  A    between atoms: C_4  and  C_9 
REMARK    3  A    between atoms: C_7  and  N_13 
REMARK    4  A    between atoms: C_7  and  O_14 
REMARK    5  A    between atoms: C_9  and  O_10 
REMARK       I    between atoms: N_13  and  C_16 
REMARK    6  A    between atoms: C_16  and  C_17 
REMARK    7  A    between atoms: C_22  and  C_23 
REMARK    8  A    between atoms: C_22  and  C_24 
REMARK    9  A    between atoms: C_23  and  O_27 
REMARK       I    between atoms: C_24  and  N_25 
REMARK   10  A    between atoms: C_29  and  S_30 
REMARK   11  A    between atoms: S_30  and  C_31 
ROOT
HETATM    1  C   UNK N   1      27.814  17.496   5.738  0.00  0.00    -0.027 C 
HETATM    2  C   UNK N   1      28.448  16.528   4.742  0.00  0.00     0.113 C 
HETATM    3  S   UNK N   1      29.798  15.449   5.384  0.00  0.00    -0.133 SA
HETATM    4  C   UNK N   1      28.489  17.902   6.858  0.00  0.00     0.116 C 
HETATM    5  N   UNK N   1      29.841  17.465   6.983  0.00  0.00    -0.288 N 
HETATM    6  C   UNK N   1      30.667  16.921   5.951  0.00  0.00     0.221 A 
HETATM    7  C   UNK N   1      31.837  16.821   7.073  0.00  0.00     0.250 A 
HETATM    8  C   UNK N   1      30.743  17.374   7.917  0.00  0.00     0.285 A 
HETATM    9  O   UNK N   1      30.664  17.686   9.095  0.00  0.00    -0.267 OA
ENDROOT
BRANCH   7  10
HETATM   10  N   UNK N   1      32.398  15.521   7.401  0.00  0.00    -0.317 N 
HETATM   11  C   UNK N   1      33.285  15.230   8.382  0.00  0.00     0.244 C 
HETATM   12  O   UNK N   1      33.452  15.978   9.332  0.00  0.00    -0.271 OA
HETATM   13  H   UNK N   1      32.096  14.765   6.847  0.00  0.00     0.166 HD
BRANCH  11  14
HETATM   14  C   UNK N   1      34.286  14.142   8.122  0.00  0.00     0.211 A 
HETATM   15  S   UNK N   1      33.685  12.686   9.095  0.00  0.00    -0.096 SA
HETATM   16  C   UNK N   1      35.186  13.133   9.940  0.00  0.00     0.062 A 
HETATM   17  S   UNK N   1      35.887  14.468   8.991  0.00  0.00    -0.096 SA
HETATM   18  C   UNK N   1      35.726  12.547  11.062  0.00  0.00     0.128 C 
BRANCH  18  19
HETATM   19  C   UNK N   1      37.037  13.039  11.627  0.00  0.00     0.183 C 
HETATM   20  O   UNK N   1      38.095  12.627  11.180  0.00  0.00    -0.646 OA
BRANCH  19  21
HETATM   21  O   UNK N   1      37.076  13.930  12.636  0.00  0.00    -0.772 OA
HETATM   22  H   UNK N   1      37.723  14.464  13.050  0.00  0.00     0.167 HD
ENDBRANCH  19  21
ENDBRANCH  18  19
BRANCH  18  23
HETATM   23  C   UNK N   1      35.047  11.388  11.764  0.00  0.00     0.258 C 
HETATM   24  N   UNK N   1      34.262  11.576  12.842  0.00  0.00    -0.366 N 
HETATM   25  H   UNK N   1      33.405  11.104  12.951  0.00  0.00     0.159 HD
HETATM   26  H   UNK N   1      34.554  12.204  13.542  0.00  0.00     0.159 HD
HETATM   27  O   UNK N   1      35.216  10.247  11.364  0.00  0.00    -0.268 OA
ENDBRANCH  18  23
ENDBRANCH  11  14
ENDBRANCH   7  10
BRANCH   7  28
HETATM   28  O   UNK N   1      32.849  17.786   6.925  0.00  0.00    -0.355 OA
HETATM   29  C   UNK N   1      33.693  17.358   5.887  0.00  0.00     0.205 C 
ENDBRANCH   7  28
BRANCH   4  30
HETATM   30  C   UNK N   1      27.874  18.787   7.906  0.00  0.00     0.194 C 
HETATM   31  O   UNK N   1      27.663  19.969   7.688  0.00  0.00    -0.645 OA
BRANCH  30  32
HETATM   32  O   UNK N   1      27.548  18.290   9.113  0.00  0.00    -0.772 OA
HETATM   33  H   UNK N   1      27.933  17.554   9.549  0.00  0.00     0.167 HD
ENDBRANCH  30  32
ENDBRANCH   4  30
BRANCH   1  34
HETATM   34  C   UNK N   1      26.428  17.962   5.392  0.00  0.00     0.120 C 
BRANCH  34  35
HETATM   35  S   UNK N   1      25.986  17.556   3.654  0.00  0.00    -0.087 SA
BRANCH  35  36
HETATM   36  C   UNK N   1      25.044  19.057   3.321  0.00  0.00     0.172 A 
HETATM   37  N   UNK N   1      25.512  20.101   2.613  0.00  0.00    -0.265 N 
HETATM   38  N   UNK N   1      24.516  20.980   2.571  0.00  0.00    -0.007 NA
ATOM     39  HN  UNK N   1      26.438  20.198   2.197  1.00  0.00     0.186 HD
HETATM   40  N   UNK N   1      23.472  20.497   3.229  0.00  0.00    -0.005 NA
HETATM   41  N   UNK N   1      23.784  19.304   3.703  0.00  0.00    -0.260 N 
HETATM   42  C   UNK N   1      22.891  18.458   4.473  0.00  0.00     0.177 C 
ENDBRANCH  35  36
ENDBRANCH  34  35
ENDBRANCH   1  34
TORSDOF 11
ENDMDL
MODEL 4
REMARK VINA RESULT:      -7.4      1.935      2.478
REMARK  11 active torsions:
REMARK  status: ('A' for Active; 'I' for Inactive)
REMARK    1  A    between atoms: C_1  and  C_29 
REMARK    2  A    between atoms: C_4  and  C_9 
REMARK    3  A    between atoms: C_7  and  N_13 
REMARK    4  A    between atoms: C_7  and  O_14 
REMARK    5  A    between atoms: C_9  and  O_10 
REMARK       I    between atoms: N_13  and  C_16 
REMARK    6  A    between atoms: C_16  and  C_17 
REMARK    7  A    between atoms: C_22  and  C_23 
REMARK    8  A    between atoms: C_22  and  C_24 
REMARK    9  A    between atoms: C_23  and  O_27 
REMARK       I    between atoms: C_24  and  N_25 
REMARK   10  A    between atoms: C_29  and  S_30 
REMARK   11  A    between atoms: S_30  and  C_31 
ROOT
HETATM    1  C   UNK N   1      31.094  17.456   7.617  0.00  0.00    -0.027 C 
HETATM    2  C   UNK N   1      30.040  17.763   8.678  0.00  0.00     0.113 C 
HETATM    3  S   UNK N   1      28.302  17.304   8.273  0.00  0.00    -0.133 SA
HETATM    4  C   UNK N   1      30.752  17.321   6.298  0.00  0.00     0.116 C 
HETATM    5  N   UNK N   1      29.393  17.590   5.960  0.00  0.00    -0.288 N 
HETATM    6  C   UNK N   1      28.427  18.274   6.761  0.00  0.00     0.221 A 
HETATM    7  C   UNK N   1      27.389  18.048   5.533  0.00  0.00     0.250 A 
HETATM    8  C   UNK N   1      28.583  17.363   4.966  0.00  0.00     0.285 A 
HETATM    9  O   UNK N   1      28.801  16.785   3.913  0.00  0.00    -0.267 OA
ENDROOT
BRANCH   7  10
HETATM   10  N   UNK N   1      26.175  17.282   5.761  0.00  0.00    -0.317 N 
HETATM   11  C   UNK N   1      26.027  15.937   5.713  0.00  0.00     0.244 C 
HETATM   12  O   UNK N   1      26.985  15.187   5.812  0.00  0.00    -0.271 OA
HETATM   13  H   UNK N   1      25.367  17.802   5.977  0.00  0.00     0.166 HD
BRANCH  11  14
HETATM   14  C   UNK N   1      24.721  15.392   5.215  0.00  0.00     0.211 A 
HETATM   15  S   UNK N   1      24.174  16.571   3.895  0.00  0.00    -0.096 SA
HETATM   16  C   UNK N   1      22.968  16.829   5.178  0.00  0.00     0.062 A 
HETATM   17  S   UNK N   1      23.364  15.644   6.448  0.00  0.00    -0.096 SA
HETATM   18  C   UNK N   1      21.919  17.720   5.179  0.00  0.00     0.128 C 
BRANCH  18  19
HETATM   19  C   UNK N   1      20.967  17.779   6.349  0.00  0.00     0.183 C 
HETATM   20  O   UNK N   1      20.989  18.730   7.114  0.00  0.00    -0.646 OA
BRANCH  19  21
HETATM   21  O   UNK N   1      20.083  16.792   6.586  0.00  0.00    -0.772 OA
HETATM   22  H   UNK N   1      19.408  16.351   6.109  0.00  0.00     0.167 HD
ENDBRANCH  19  21
ENDBRANCH  18  19
BRANCH  18  23
HETATM   23  C   UNK N   1      21.666  18.659   4.017  0.00  0.00     0.258 C 
HETATM   24  N   UNK N   1      20.748  18.383   3.071  0.00  0.00    -0.366 N 
HETATM   25  H   UNK N   1      20.136  19.071   2.724  0.00  0.00     0.159 HD
HETATM   26  H   UNK N   1      20.688  17.466   2.717  0.00  0.00     0.159 HD
HETATM   27  O   UNK N   1      22.312  19.690   3.913  0.00  0.00    -0.268 OA
ENDBRANCH  18  23
ENDBRANCH  11  14
ENDBRANCH   7  10
BRANCH   7  28
HETATM   28  O   UNK N   1      27.121  19.213   4.793  0.00  0.00    -0.355 OA
HETATM   29  C   UNK N   1      25.804  19.606   5.084  0.00  0.00     0.205 C 
ENDBRANCH   7  28
BRANCH   4  30
HETATM   30  C   UNK N   1      31.741  16.937   5.233  0.00  0.00     0.194 C 
HETATM   31  O   UNK N   1      32.249  17.781   4.512  0.00  0.00    -0.645 OA
BRANCH  30  32
HETATM   32  O   UNK N   1      32.082  15.649   5.050  0.00  0.00    -0.772 OA
HETATM   33  H   UNK N   1      32.904  15.313   4.751  0.00  0.00     0.167 HD
ENDBRANCH  30  32
ENDBRANCH   4  30
BRANCH   1  34
HETATM   34  C   UNK N   1      32.503  17.328   8.125  0.00  0.00     0.120 C 
BRANCH  34  35
HETATM   35  S   UNK N   1      32.856  15.630   8.734  0.00  0.00    -0.087 SA
BRANCH  35  36
HETATM   36  C   UNK N   1      34.403  16.025   9.571  0.00  0.00     0.172 A 
HETATM   37  N   UNK N   1      34.680  17.220  10.123  0.00  0.00    -0.265 N 
HETATM   38  N   UNK N   1      35.891  17.095  10.657  0.00  0.00    -0.007 NA
ATOM     39  HN  UNK N   1      34.085  18.048  10.130  1.00  0.00     0.186 HD
HETATM   40  N   UNK N   1      36.346  15.869  10.441  0.00  0.00    -0.005 NA
HETATM   41  N   UNK N   1      35.435  15.192   9.766  0.00  0.00    -0.260 N 
HETATM   42  C   UNK N   1      35.570  13.808   9.351  0.00  0.00     0.177 C 
ENDBRANCH  35  36
ENDBRANCH  34  35
ENDBRANCH   1  34
TORSDOF 11
ENDMDL
MODEL 5
REMARK VINA RESULT:      -7.2      4.843     11.568
REMARK  11 active torsions:
REMARK  status: ('A' for Active; 'I' for Inactive)
REMARK    1  A    between atoms: C_1  and  C_29 
REMARK    2  A    between atoms: C_4  and  C_9 
REMARK    3  A    between atoms: C_7  and  N_13 
REMARK    4  A    between atoms: C_7  and  O_14 
REMARK    5  A    between atoms: C_9  and  O_10 
REMARK       I    between atoms: N_13  and  C_16 
REMARK    6  A    between atoms: C_16  and  C_17 
REMARK    7  A    between atoms: C_22  and  C_23 
REMARK    8  A    between atoms: C_22  and  C_24 
REMARK    9  A    between atoms: C_23  and  O_27 
REMARK       I    between atoms: C_24  and  N_25 
REMARK   10  A    between atoms: C_29  and  S_30 
REMARK   11  A    between atoms: S_30  and  C_31 
ROOT
HETATM    1  C   UNK N   1      29.196  16.741   5.183  0.00  0.00    -0.027 C 
HETATM    2  C   UNK N   1      30.208  15.932   4.375  0.00  0.00     0.113 C 
HETATM    3  S   UNK N   1      31.647  15.248   5.302  0.00  0.00    -0.133 SA
HETATM    4  C   UNK N   1      29.548  17.338   6.364  0.00  0.00     0.116 C 
HETATM    5  N   UNK N   1      30.922  17.258   6.735  0.00  0.00    -0.288 N 
HETATM    6  C   UNK N   1      32.022  16.907   5.892  0.00  0.00     0.221 A 
HETATM    7  C   UNK N   1      32.969  17.140   7.191  0.00  0.00     0.250 A 
HETATM    8  C   UNK N   1      31.644  17.425   7.806  0.00  0.00     0.285 A 
HETATM    9  O   UNK N   1      31.289  17.744   8.930  0.00  0.00    -0.267 OA
ENDROOT
BRANCH   7  10
HETATM   10  N   UNK N   1      33.762  16.033   7.698  0.00  0.00    -0.317 N 
HETATM   11  C   UNK N   1      34.706  15.323   7.035  0.00  0.00     0.244 C 
HETATM   12  O   UNK N   1      35.247  15.764   6.034  0.00  0.00    -0.271 OA
HETATM   13  H   UNK N   1      33.594  15.770   8.632  0.00  0.00     0.166 HD
BRANCH  11  14
HETATM   14  C   UNK N   1      34.845  13.865   7.361  0.00  0.00     0.211 A 
HETATM   15  S   UNK N   1      33.874  13.620   8.919  0.00  0.00    -0.096 SA
HETATM   16  C   UNK N   1      35.550  13.353   9.453  0.00  0.00     0.062 A 
HETATM   17  S   UNK N   1      36.543  13.463   7.978  0.00  0.00    -0.096 SA
HETATM   18  C   UNK N   1      35.993  13.072  10.726  0.00  0.00     0.128 C 
BRANCH  18  19
HETATM   19  C   UNK N   1      37.461  12.840  10.991  0.00  0.00     0.183 C 
HETATM   20  O   UNK N   1      37.856  11.742  11.349  0.00  0.00    -0.646 OA
BRANCH  19  21
HETATM   21  O   UNK N   1      38.364  13.828  10.853  0.00  0.00    -0.772 OA
HETATM   22  H   UNK N   1      38.432  14.628  10.372  0.00  0.00     0.167 HD
ENDBRANCH  19  21
ENDBRANCH  18  19
BRANCH  18  23
HETATM   23  C   UNK N   1      35.040  12.971  11.899  0.00  0.00     0.258 C 
HETATM   24  N   UNK N   1      34.609  11.781  12.360  0.00  0.00    -0.366 N 
HETATM   25  H   UNK N   1      34.552  11.585  13.323  0.00  0.00     0.159 HD
HETATM   26  H   UNK N   1      34.343  11.087  11.714  0.00  0.00     0.159 HD
HETATM   27  O   UNK N   1      34.632  13.985  12.445  0.00  0.00    -0.268 OA
ENDBRANCH  18  23
ENDBRANCH  11  14
ENDBRANCH   7  10
BRANCH   7  28
HETATM   28  O   UNK N   1      33.727  18.323   7.137  0.00  0.00    -0.355 OA
HETATM   29  C   UNK N   1      34.565  18.340   8.265  0.00  0.00     0.205 C 
ENDBRANCH   7  28
BRANCH   4  30
HETATM   30  C   UNK N   1      28.565  18.072   7.233  0.00  0.00     0.194 C 
HETATM   31  O   UNK N   1      28.477  19.288   7.196  0.00  0.00    -0.645 OA
BRANCH  30  32
HETATM   32  O   UNK N   1      27.764  17.396   8.077  0.00  0.00    -0.772 OA
HETATM   33  H   UNK N   1      27.412  16.535   7.963  0.00  0.00     0.167 HD
ENDBRANCH  30  32
ENDBRANCH   4  30
BRANCH   1  34
HETATM   34  C   UNK N   1      27.820  16.833   4.586  0.00  0.00     0.120 C 
BRANCH  34  35
HETATM   35  S   UNK N   1      27.183  15.183   4.084  0.00  0.00    -0.087 SA
BRANCH  35  36
HETATM   36  C   UNK N   1      26.385  14.780   5.650  0.00  0.00     0.172 A 
HETATM   37  N   UNK N   1      26.084  15.684   6.599  0.00  0.00    -0.265 N 
HETATM   38  N   UNK N   1      25.488  14.999   7.570  0.00  0.00    -0.007 NA
ATOM     39  HN  UNK N   1      26.273  16.686   6.578  1.00  0.00     0.186 HD
HETATM   40  N   UNK N   1      25.425  13.718   7.233  0.00  0.00    -0.005 NA
HETATM   41  N   UNK N   1      25.980  13.565   6.044  0.00  0.00    -0.260 N 
HETATM   42  C   UNK N   1      26.092  12.302   5.339  0.00  0.00     0.177 C 
ENDBRANCH  35  36
ENDBRANCH  34  35
ENDBRANCH   1  34
TORSDOF 11
ENDMDL
MODEL 6
REMARK VINA RESULT:      -7.2      5.913      8.373
REMARK  11 active torsions:
REMARK  status: ('A' for Active; 'I' for Inactive)
REMARK    1  A    between atoms: C_1  and  C_29 
REMARK    2  A    between atoms: C_4  and  C_9 
REMARK    3  A    between atoms: C_7  and  N_13 
REMARK    4  A    between atoms: C_7  and  O_14 
REMARK    5  A    between atoms: C_9  and  O_10 
REMARK       I    between atoms: N_13  and  C_16 
REMARK    6  A    between atoms: C_16  and  C_17 
REMARK    7  A    between atoms: C_22  and  C_23 
REMARK    8  A    between atoms: C_22  and  C_24 
REMARK    9  A    between atoms: C_23  and  O_27 
REMARK       I    between atoms: C_24  and  N_25 
REMARK   10  A    between atoms: C_29  and  S_30 
REMARK   11  A    between atoms: S_30  and  C_31 
ROOT
HETATM    1  C   UNK N   1      34.565  14.806   8.760  0.00  0.00    -0.027 C 
HETATM    2  C   UNK N   1      33.780  13.865   7.850  0.00  0.00     0.113 C 
HETATM    3  S   UNK N   1      32.668  14.653   6.609  0.00  0.00    -0.133 SA
HETATM    4  C   UNK N   1      34.135  16.083   8.998  0.00  0.00     0.116 C 
HETATM    5  N   UNK N   1      32.871  16.445   8.445  0.00  0.00    -0.288 N 
HETATM    6  C   UNK N   1      31.867  15.559   7.943  0.00  0.00     0.221 A 
HETATM    7  C   UNK N   1      30.983  16.887   7.640  0.00  0.00     0.250 A 
HETATM    8  C   UNK N   1      32.205  17.534   8.189  0.00  0.00     0.285 A 
HETATM    9  O   UNK N   1      32.527  18.695   8.387  0.00  0.00    -0.267 OA
ENDROOT
BRANCH   7  10
HETATM   10  N   UNK N   1      30.582  17.176   6.273  0.00  0.00    -0.317 N 
HETATM   11  C   UNK N   1      29.879  16.378   5.434  0.00  0.00     0.244 C 
HETATM   12  O   UNK N   1      29.198  15.455   5.854  0.00  0.00    -0.271 OA
HETATM   13  H   UNK N   1      30.851  18.054   5.917  0.00  0.00     0.166 HD
BRANCH  11  14
HETATM   14  C   UNK N   1      30.202  16.442   3.970  0.00  0.00     0.211 A 
HETATM   15  S   UNK N   1      29.913  14.727   3.333  0.00  0.00    -0.096 SA
HETATM   16  C   UNK N   1      31.677  14.909   3.187  0.00  0.00     0.062 A 
HETATM   17  S   UNK N   1      32.024  16.585   3.681  0.00  0.00    -0.096 SA
HETATM   18  C   UNK N   1      32.585  13.976   2.742  0.00  0.00     0.128 C 
BRANCH  18  19
HETATM   19  C   UNK N   1      34.053  14.319   2.652  0.00  0.00     0.183 C 
HETATM   20  O   UNK N   1      34.528  14.721   1.602  0.00  0.00    -0.646 OA
BRANCH  19  21
HETATM   21  O   UNK N   1      34.872  14.182   3.712  0.00  0.00    -0.772 OA
HETATM   22  H   UNK N   1      34.932  13.623   4.460  0.00  0.00     0.167 HD
ENDBRANCH  19  21
ENDBRANCH  18  19
BRANCH  18  23
HETATM   23  C   UNK N   1      32.159  12.586   2.315  0.00  0.00     0.258 C 
HETATM   24  N   UNK N   1      32.117  11.560   3.187  0.00  0.00    -0.366 N 
HETATM   25  H   UNK N   1      31.370  10.918   3.199  0.00  0.00     0.159 HD
HETATM   26  H   UNK N   1      32.854  11.449   3.829  0.00  0.00     0.159 HD
HETATM   27  O   UNK N   1      31.855  12.370   1.152  0.00  0.00    -0.268 OA
ENDBRANCH  18  23
ENDBRANCH  11  14
ENDBRANCH   7  10
BRANCH   7  28
HETATM   28  O   UNK N   1      29.912  17.072   8.532  0.00  0.00    -0.355 OA
HETATM   29  C   UNK N   1      29.155  18.161   8.064  0.00  0.00     0.205 C 
ENDBRANCH   7  28
BRANCH   4  30
HETATM   30  C   UNK N   1      34.918  17.070   9.818  0.00  0.00     0.194 C 
HETATM   31  O   UNK N   1      35.121  16.880  11.007  0.00  0.00    -0.645 OA
BRANCH  30  32
HETATM   32  O   UNK N   1      35.407  18.190   9.255  0.00  0.00    -0.772 OA
HETATM   33  H   UNK N   1      35.636  18.991   9.685  0.00  0.00     0.167 HD
ENDBRANCH  30  32
ENDBRANCH   4  30
BRANCH   1  34
HETATM   34  C   UNK N   1      35.812  14.226   9.367  0.00  0.00     0.120 C 
BRANCH  34  35
HETATM   35  S   UNK N   1      35.456  12.704  10.335  0.00  0.00    -0.087 SA
BRANCH  35  36
HETATM   36  C   UNK N   1      35.738  13.421  11.965  0.00  0.00     0.172 A 
HETATM   37  N   UNK N   1      36.397  14.575  12.179  0.00  0.00    -0.265 N 
HETATM   38  N   UNK N   1      36.363  14.766  13.494  0.00  0.00    -0.007 NA
ATOM     39  HN  UNK N   1      36.830  15.175  11.479  1.00  0.00     0.186 HD
HETATM   40  N   UNK N   1      35.709  13.767  14.070  0.00  0.00    -0.005 NA
HETATM   41  N   UNK N   1      35.316  12.922  13.134  0.00  0.00    -0.260 N 
HETATM   42  C   UNK N   1      34.562  11.707  13.380  0.00  0.00     0.177 C 
ENDBRANCH  35  36
ENDBRANCH  34  35
ENDBRANCH   1  34
TORSDOF 11
ENDMDL
MODEL 7
REMARK VINA RESULT:      -7.1      7.232     10.008
REMARK  11 active torsions:
REMARK  status: ('A' for Active; 'I' for Inactive)
REMARK    1  A    between atoms: C_1  and  C_29 
REMARK    2  A    between atoms: C_4  and  C_9 
REMARK    3  A    between atoms: C_7  and  N_13 
REMARK    4  A    between atoms: C_7  and  O_14 
REMARK    5  A    between atoms: C_9  and  O_10 
REMARK       I    between atoms: N_13  and  C_16 
REMARK    6  A    between atoms: C_16  and  C_17 
REMARK    7  A    between atoms: C_22  and  C_23 
REMARK    8  A    between atoms: C_22  and  C_24 
REMARK    9  A    between atoms: C_23  and  O_27 
REMARK       I    between atoms: C_24  and  N_25 
REMARK   10  A    between atoms: C_29  and  S_30 
REMARK   11  A    between atoms: S_30  and  C_31 
ROOT
HETATM    1  C   UNK N   1      21.752  16.848   6.378  0.00  0.00    -0.027 C 
HETATM    2  C   UNK N   1      22.934  16.078   5.796  0.00  0.00     0.113 C 
HETATM    3  S   UNK N   1      22.936  14.252   6.051  0.00  0.00    -0.133 SA
HETATM    4  C   UNK N   1      21.015  16.340   7.414  0.00  0.00     0.116 C 
HETATM    5  N   UNK N   1      21.478  15.118   7.986  0.00  0.00    -0.288 N 
HETATM    6  C   UNK N   1      22.769  14.526   7.823  0.00  0.00     0.221 A 
HETATM    7  C   UNK N   1      22.246  13.345   8.807  0.00  0.00     0.250 A 
HETATM    8  C   UNK N   1      21.012  14.175   8.754  0.00  0.00     0.285 A 
HETATM    9  O   UNK N   1      19.907  14.074   9.263  0.00  0.00    -0.267 OA
ENDROOT
BRANCH   7  10
HETATM   10  N   UNK N   1      22.202  11.978   8.314  0.00  0.00    -0.317 N 
HETATM   11  C   UNK N   1      23.221  11.260   7.782  0.00  0.00     0.244 C 
HETATM   12  O   UNK N   1      24.386  11.568   7.977  0.00  0.00    -0.271 OA
HETATM   13  H   UNK N   1      21.332  11.521   8.376  0.00  0.00     0.166 HD
BRANCH  11  14
HETATM   14  C   UNK N   1      22.894  10.281   6.693  0.00  0.00     0.211 A 
HETATM   15  S   UNK N   1      24.196  10.538   5.402  0.00  0.00    -0.096 SA
HETATM   16  C   UNK N   1      22.720  11.116   4.594  0.00  0.00     0.062 A 
HETATM   17  S   UNK N   1      21.394  10.797   5.740  0.00  0.00    -0.096 SA
HETATM   18  C   UNK N   1      22.608  11.653   3.332  0.00  0.00     0.128 C 
BRANCH  18  19
HETATM   19  C   UNK N   1      21.258  12.061   2.791  0.00  0.00     0.183 C 
HETATM   20  O   UNK N   1      20.747  11.438   1.875  0.00  0.00    -0.646 OA
BRANCH  19  21
HETATM   21  O   UNK N   1      20.592  13.118   3.293  0.00  0.00    -0.772 OA
HETATM   22  H   UNK N   1      19.901  13.260   3.909  0.00  0.00     0.167 HD
ENDBRANCH  19  21
ENDBRANCH  18  19
BRANCH  18  23
HETATM   23  C   UNK N   1      23.813  11.843   2.433  0.00  0.00     0.258 C 
HETATM   24  N   UNK N   1      24.058  11.021   1.395  0.00  0.00    -0.366 N 
HETATM   25  H   UNK N   1      24.351  11.362   0.519  0.00  0.00     0.159 HD
HETATM   26  H   UNK N   1      23.942  10.051   1.517  0.00  0.00     0.159 HD
HETATM   27  O   UNK N   1      24.599  12.753   2.650  0.00  0.00    -0.268 OA
ENDBRANCH  18  23
ENDBRANCH  11  14
ENDBRANCH   7  10
BRANCH   7  28
HETATM   28  O   UNK N   1      22.794  13.399  10.101  0.00  0.00    -0.355 OA
HETATM   29  C   UNK N   1      22.357  12.257  10.793  0.00  0.00     0.205 C 
ENDBRANCH   7  28
BRANCH   4  30
HETATM   30  C   UNK N   1      19.793  17.024   7.961  0.00  0.00     0.194 C 
HETATM   31  O   UNK N   1      19.886  18.051   8.613  0.00  0.00    -0.645 OA
BRANCH  30  32
HETATM   32  O   UNK N   1      18.569  16.509   7.746  0.00  0.00    -0.772 OA
HETATM   33  H   UNK N   1      18.358  15.643   7.455  0.00  0.00     0.167 HD
ENDBRANCH  30  32
ENDBRANCH   4  30
BRANCH   1  34
HETATM   34  C   UNK N   1      21.475  18.182   5.741  0.00  0.00     0.120 C 
BRANCH  34  35
HETATM   35  S   UNK N   1      21.046  18.012   3.962  0.00  0.00    -0.087 SA
BRANCH  35  36
HETATM   36  C   UNK N   1      21.866  19.518   3.404  0.00  0.00     0.172 A 
HETATM   37  N   UNK N   1      21.220  20.601   2.936  0.00  0.00    -0.265 N 
HETATM   38  N   UNK N   1      22.167  21.493   2.663  0.00  0.00    -0.007 NA
ATOM     39  HN  UNK N   1      20.214  20.714   2.816  1.00  0.00     0.186 HD
HETATM   40  N   UNK N   1      23.355  20.978   2.951  0.00  0.00    -0.005 NA
HETATM   41  N   UNK N   1      23.186  19.752   3.410  0.00  0.00    -0.260 N 
HETATM   42  C   UNK N   1      24.257  18.872   3.839  0.00  0.00     0.177 C 
ENDBRANCH  35  36
ENDBRANCH  34  35
ENDBRANCH   1  34
TORSDOF 11
ENDMDL
MODEL 8
REMARK VINA RESULT:      -7.0      4.611      8.975
REMARK  11 active torsions:
REMARK  status: ('A' for Active; 'I' for Inactive)
REMARK    1  A    between atoms: C_1  and  C_29 
REMARK    2  A    between atoms: C_4  and  C_9 
REMARK    3  A    between atoms: C_7  and  N_13 
REMARK    4  A    between atoms: C_7  and  O_14 
REMARK    5  A    between atoms: C_9  and  O_10 
REMARK       I    between atoms: N_13  and  C_16 
REMARK    6  A    between atoms: C_16  and  C_17 
REMARK    7  A    between atoms: C_22  and  C_23 
REMARK    8  A    between atoms: C_22  and  C_24 
REMARK    9  A    between atoms: C_23  and  O_27 
REMARK       I    between atoms: C_24  and  N_25 
REMARK   10  A    between atoms: C_29  and  S_30 
REMARK   11  A    between atoms: S_30  and  C_31 
ROOT
HETATM    1  C   UNK N   1      23.094  14.591   7.116  0.00  0.00    -0.027 C 
HETATM    2  C   UNK N   1      24.409  14.553   6.341  0.00  0.00     0.113 C 
HETATM    3  S   UNK N   1      25.123  16.178   5.844  0.00  0.00    -0.133 SA
HETATM    4  C   UNK N   1      22.253  15.667   7.029  0.00  0.00     0.116 C 
HETATM    5  N   UNK N   1      22.613  16.687   6.099  0.00  0.00    -0.288 N 
HETATM    6  C   UNK N   1      23.565  16.585   5.038  0.00  0.00     0.221 A 
HETATM    7  C   UNK N   1      23.186  18.122   4.677  0.00  0.00     0.250 A 
HETATM    8  C   UNK N   1      22.304  17.929   5.861  0.00  0.00     0.285 A 
HETATM    9  O   UNK N   1      21.510  18.649   6.445  0.00  0.00    -0.267 OA
ENDROOT
BRANCH   7  10
HETATM   10  N   UNK N   1      24.223  19.139   4.725  0.00  0.00    -0.317 N 
HETATM   11  C   UNK N   1      25.396  19.153   4.047  0.00  0.00     0.244 C 
HETATM   12  O   UNK N   1      25.560  18.475   3.046  0.00  0.00    -0.271 OA
HETATM   13  H   UNK N   1      24.052  19.907   5.317  0.00  0.00     0.166 HD
BRANCH  11  14
HETATM   14  C   UNK N   1      26.589  19.763   4.723  0.00  0.00     0.211 A 
HETATM   15  S   UNK N   1      27.972  18.564   4.441  0.00  0.00    -0.096 SA
HETATM   16  C   UNK N   1      27.703  18.450   6.197  0.00  0.00     0.062 A 
HETATM   17  S   UNK N   1      26.452  19.664   6.566  0.00  0.00    -0.096 SA
HETATM   18  C   UNK N   1      28.351  17.635   7.096  0.00  0.00     0.128 C 
BRANCH  18  19
HETATM   19  C   UNK N   1      28.014  17.697   8.567  0.00  0.00     0.183 C 
HETATM   20  O   UNK N   1      27.340  16.819   9.082  0.00  0.00    -0.646 OA
BRANCH  19  21
HETATM   21  O   UNK N   1      28.434  18.715   9.341  0.00  0.00    -0.772 OA
HETATM   22  H   UNK N   1      28.333  19.646   9.358  0.00  0.00     0.167 HD
ENDBRANCH  19  21
ENDBRANCH  18  19
BRANCH  18  23
HETATM   23  C   UNK N   1      29.428  16.662   6.661  0.00  0.00     0.258 C 
HETATM   24  N   UNK N   1      30.728  16.869   6.949  0.00  0.00    -0.366 N 
HETATM   25  H   UNK N   1      31.314  16.142   7.259  0.00  0.00     0.159 HD
HETATM   26  H   UNK N   1      31.101  17.774   6.846  0.00  0.00     0.159 HD
HETATM   27  O   UNK N   1      29.130  15.665   6.020  0.00  0.00    -0.268 OA
ENDBRANCH  18  23
ENDBRANCH  11  14
ENDBRANCH   7  10
BRANCH   7  28
HETATM   28  O   UNK N   1      22.397  18.257   3.521  0.00  0.00    -0.355 OA
HETATM   29  C   UNK N   1      22.246  19.631   3.270  0.00  0.00     0.205 C 
ENDBRANCH   7  28
BRANCH   4  30
HETATM   30  C   UNK N   1      20.990  15.785   7.837  0.00  0.00     0.194 C 
HETATM   31  O   UNK N   1      20.971  16.409   8.886  0.00  0.00    -0.645 OA
BRANCH  30  32
HETATM   32  O   UNK N   1      19.855  15.197   7.420  0.00  0.00    -0.772 OA
HETATM   33  H   UNK N   1      19.442  15.284   6.583  0.00  0.00     0.167 HD
ENDBRANCH  30  32
ENDBRANCH   4  30
BRANCH   1  34
HETATM   34  C   UNK N   1      22.803  13.378   7.953  0.00  0.00     0.120 C 
BRANCH  34  35
HETATM   35  S   UNK N   1      24.332  12.432   8.338  0.00  0.00    -0.087 SA
BRANCH  35  36
HETATM   36  C   UNK N   1      24.048  12.287  10.112  0.00  0.00     0.172 A 
HETATM   37  N   UNK N   1      25.028  12.223  11.032  0.00  0.00    -0.265 N 
HETATM   38  N   UNK N   1      24.412  12.153  12.207  0.00  0.00    -0.007 NA
ATOM     39  HN  UNK N   1      26.034  12.228  10.861  1.00  0.00     0.186 HD
HETATM   40  N   UNK N   1      23.100  12.170  12.021  0.00  0.00    -0.005 NA
HETATM   41  N   UNK N   1      22.857  12.251  10.725  0.00  0.00    -0.260 N 
HETATM   42  C   UNK N   1      21.533  12.303  10.132  0.00  0.00     0.177 C 
ENDBRANCH  35  36
ENDBRANCH  34  35
ENDBRANCH   1  34
TORSDOF 11
ENDMDL
MODEL 9
REMARK VINA RESULT:      -7.0      3.010      3.917
REMARK  11 active torsions:
REMARK  status: ('A' for Active; 'I' for Inactive)
REMARK    1  A    between atoms: C_1  and  C_29 
REMARK    2  A    between atoms: C_4  and  C_9 
REMARK    3  A    between atoms: C_7  and  N_13 
REMARK    4  A    between atoms: C_7  and  O_14 
REMARK    5  A    between atoms: C_9  and  O_10 
REMARK       I    between atoms: N_13  and  C_16 
REMARK    6  A    between atoms: C_16  and  C_17 
REMARK    7  A    between atoms: C_22  and  C_23 
REMARK    8  A    between atoms: C_22  and  C_24 
REMARK    9  A    between atoms: C_23  and  O_27 
REMARK       I    between atoms: C_24  and  N_25 
REMARK   10  A    between atoms: C_29  and  S_30 
REMARK   11  A    between atoms: S_30  and  C_31 
ROOT
HETATM    1  C   UNK N   1      30.806  17.406   7.422  0.00  0.00    -0.027 C 
HETATM    2  C   UNK N   1      29.763  17.717   8.492  0.00  0.00     0.113 C 
HETATM    3  S   UNK N   1      28.025  17.229   8.118  0.00  0.00    -0.133 SA
HETATM    4  C   UNK N   1      30.449  17.244   6.110  0.00  0.00     0.116 C 
HETATM    5  N   UNK N   1      29.082  17.490   5.786  0.00  0.00    -0.288 N 
HETATM    6  C   UNK N   1      28.117  18.175   6.589  0.00  0.00     0.221 A 
HETATM    7  C   UNK N   1      27.066  17.914   5.379  0.00  0.00     0.250 A 
HETATM    8  C   UNK N   1      28.261  17.235   4.808  0.00  0.00     0.285 A 
HETATM    9  O   UNK N   1      28.472  16.642   3.762  0.00  0.00    -0.267 OA
ENDROOT
BRANCH   7  10
HETATM   10  N   UNK N   1      25.865  17.138   5.636  0.00  0.00    -0.317 N 
HETATM   11  C   UNK N   1      25.766  15.793   5.774  0.00  0.00     0.244 C 
HETATM   12  O   UNK N   1      26.740  15.108   6.042  0.00  0.00    -0.271 OA
HETATM   13  H   UNK N   1      25.027  17.648   5.723  0.00  0.00     0.166 HD
BRANCH  11  14
HETATM   14  C   UNK N   1      24.516  15.128   5.276  0.00  0.00     0.211 A 
HETATM   15  S   UNK N   1      23.165  16.365   5.550  0.00  0.00    -0.096 SA
HETATM   16  C   UNK N   1      22.757  15.073   6.704  0.00  0.00     0.062 A 
HETATM   17  S   UNK N   1      23.957  13.787   6.422  0.00  0.00    -0.096 SA
HETATM   18  C   UNK N   1      21.710  15.043   7.596  0.00  0.00     0.128 C 
BRANCH  18  19
HETATM   19  C   UNK N   1      21.495  13.839   8.483  0.00  0.00     0.183 C 
HETATM   20  O   UNK N   1      20.753  12.937   8.128  0.00  0.00    -0.646 OA
BRANCH  19  21
HETATM   21  O   UNK N   1      22.100  13.733   9.681  0.00  0.00    -0.772 OA
HETATM   22  H   UNK N   1      22.857  13.305  10.027  0.00  0.00     0.167 HD
ENDBRANCH  19  21
ENDBRANCH  18  19
BRANCH  18  23
HETATM   23  C   UNK N   1      20.731  16.192   7.719  0.00  0.00     0.258 C 
HETATM   24  N   UNK N   1      19.777  16.411   6.794  0.00  0.00    -0.366 N 
HETATM   25  H   UNK N   1      18.855  16.647   7.042  0.00  0.00     0.159 HD
HETATM   26  H   UNK N   1      20.011  16.335   5.840  0.00  0.00     0.159 HD
HETATM   27  O   UNK N   1      20.801  16.957   8.670  0.00  0.00    -0.268 OA
ENDBRANCH  18  23
ENDBRANCH  11  14
ENDBRANCH   7  10
BRANCH   7  28
HETATM   28  O   UNK N   1      26.773  19.063   4.623  0.00  0.00    -0.355 OA
HETATM   29  C   UNK N   1      25.625  19.654   5.178  0.00  0.00     0.205 C 
ENDBRANCH   7  28
BRANCH   4  30
HETATM   30  C   UNK N   1      31.428  16.855   5.038  0.00  0.00     0.194 C 
HETATM   31  O   UNK N   1      32.044  15.803   5.101  0.00  0.00    -0.645 OA
BRANCH  30  32
HETATM   32  O   UNK N   1      31.649  17.666   3.988  0.00  0.00    -0.772 OA
HETATM   33  H   UNK N   1      31.675  18.603   3.987  0.00  0.00     0.167 HD
ENDBRANCH  30  32
ENDBRANCH   4  30
BRANCH   1  34
HETATM   34  C   UNK N   1      32.223  17.305   7.912  0.00  0.00     0.120 C 
BRANCH  34  35
HETATM   35  S   UNK N   1      32.596  15.632   8.578  0.00  0.00    -0.087 SA
BRANCH  35  36
HETATM   36  C   UNK N   1      34.145  16.070   9.390  0.00  0.00     0.172 A 
HETATM   37  N   UNK N   1      34.444  17.305   9.833  0.00  0.00    -0.265 N 
HETATM   38  N   UNK N   1      35.648  17.204  10.387  0.00  0.00    -0.007 NA
ATOM     39  HN  UNK N   1      33.867  18.142   9.759  1.00  0.00     0.186 HD
HETATM   40  N   UNK N   1      36.078  15.954  10.288  0.00  0.00    -0.005 NA
HETATM   41  N   UNK N   1      35.157  15.237   9.669  0.00  0.00    -0.260 N 
HETATM   42  C   UNK N   1      35.266  13.819   9.384  0.00  0.00     0.177 C 
ENDBRANCH  35  36
ENDBRANCH  34  35
ENDBRANCH   1  34
TORSDOF 11
ENDMDL
