MODEL 1
REMARK VINA RESULT:      -6.8      0.000      0.000
REMARK  7 active torsions:
REMARK  status: ('A' for Active; 'I' for Inactive)
REMARK    1  A    between atoms: C_2  and  C_3 
REMARK    2  A    between atoms: C_3  and  C_12 
REMARK    3  A    between atoms: O_19  and  C_20 
REMARK    4  A    between atoms: C_23  and  C_31 
REMARK    5  A    between atoms: C_31  and  C_32 
REMARK    6  A    between atoms: C_31  and  O_42 
REMARK    7  A    between atoms: C_39  and  C_40 
ROOT
HETATM    1  C   UNK N   1      36.215  12.870  15.155  0.00  0.00     0.149 C 
HETATM    2  C   UNK N   1      34.990  12.797  14.266  0.00  0.00     0.248 C 
HETATM    3  O   UNK N   1      34.035  12.110  14.583  0.00  0.00    -0.271 OA
HETATM    4  N   UNK N   1      34.983  13.431  13.066  0.00  0.00    -0.278 N 
HETATM    5  C   UNK N   1      35.914  14.371  12.761  0.00  0.00     0.329 C 
HETATM    6  O   UNK N   1      35.920  14.876  11.652  0.00  0.00    -0.247 OA
HETATM    7  N   UNK N   1      36.761  14.835  13.719  0.00  0.00    -0.278 N 
HETATM    8  C   UNK N   1      36.831  14.254  14.945  0.00  0.00     0.248 C 
HETATM    9  O   UNK N   1      37.520  14.771  15.811  0.00  0.00    -0.271 OA
HETATM   10  H   UNK N   1      34.291  13.204  12.404  0.00  0.00     0.173 HD
HETATM   11  H   UNK N   1      37.337  15.608  13.519  0.00  0.00     0.173 HD
ENDROOT
BRANCH   1  12
HETATM   12  C   UNK N   1      37.205  11.858  14.549  0.00  0.00     0.030 C 
HETATM   13  C   UNK N   1      36.535  10.768  13.725  0.00  0.00     0.007 C 
ENDBRANCH   1  12
BRANCH   1  14
HETATM   14  C   UNK N   1      35.888  12.458  16.599  0.00  0.00    -0.031 A 
HETATM   15  C   UNK N   1      36.115  11.154  17.070  0.00  0.00     0.009 A 
HETATM   16  C   UNK N   1      35.809  10.812  18.391  0.00  0.00     0.001 A 
HETATM   17  C   UNK N   1      35.275  11.768  19.259  0.00  0.00     0.000 A 
HETATM   18  C   UNK N   1      35.043  13.067  18.806  0.00  0.00     0.001 A 
HETATM   19  C   UNK N   1      35.345  13.409  17.486  0.00  0.00     0.009 A 
ENDBRANCH   1  14
TORSDOF 7
ENDMDL
MODEL 2
REMARK VINA RESULT:      -6.4      7.003     10.470
REMARK  7 active torsions:
REMARK  status: ('A' for Active; 'I' for Inactive)
REMARK    1  A    between atoms: C_2  and  C_3 
REMARK    2  A    between atoms: C_3  and  C_12 
REMARK    3  A    between atoms: O_19  and  C_20 
REMARK    4  A    between atoms: C_23  and  C_31 
REMARK    5  A    between atoms: C_31  and  C_32 
REMARK    6  A    between atoms: C_31  and  O_42 
REMARK    7  A    between atoms: C_39  and  C_40 
ROOT
HETATM    1  C   UNK N   1      32.221  16.429   7.951  0.00  0.00     0.149 C 
HETATM    2  C   UNK N   1      32.356  14.931   8.139  0.00  0.00     0.248 C 
HETATM    3  O   UNK N   1      31.963  14.162   7.280  0.00  0.00    -0.271 OA
HETATM    4  N   UNK N   1      32.838  14.434   9.305  0.00  0.00    -0.278 N 
HETATM    5  C   UNK N   1      33.483  15.230  10.196  0.00  0.00     0.329 C 
HETATM    6  O   UNK N   1      33.849  14.768  11.263  0.00  0.00    -0.247 OA
HETATM    7  N   UNK N   1      33.825  16.502   9.859  0.00  0.00    -0.278 N 
HETATM    8  C   UNK N   1      33.380  17.075   8.710  0.00  0.00     0.248 C 
HETATM    9  O   UNK N   1      33.802  18.176   8.390  0.00  0.00    -0.271 OA
HETATM   10  H   UNK N   1      32.719  13.479   9.510  0.00  0.00     0.173 HD
HETATM   11  H   UNK N   1      34.407  17.020  10.461  0.00  0.00     0.173 HD
ENDROOT
BRANCH   1  12
HETATM   12  C   UNK N   1      30.938  16.810   8.712  0.00  0.00     0.030 C 
HETATM   13  C   UNK N   1      30.770  18.310   8.912  0.00  0.00     0.007 C 
ENDBRANCH   1  12
BRANCH   1  14
HETATM   14  C   UNK N   1      32.060  16.798   6.468  0.00  0.00    -0.031 A 
HETATM   15  C   UNK N   1      30.797  16.972   5.878  0.00  0.00     0.009 A 
HETATM   16  C   UNK N   1      30.685  17.311   4.525  0.00  0.00     0.001 A 
HETATM   17  C   UNK N   1      31.832  17.482   3.746  0.00  0.00     0.000 A 
HETATM   18  C   UNK N   1      33.094  17.313   4.318  0.00  0.00     0.001 A 
HETATM   19  C   UNK N   1      33.207  16.971   5.667  0.00  0.00     0.009 A 
ENDBRANCH   1  14
TORSDOF 7
ENDMDL
MODEL 3
REMARK VINA RESULT:      -6.4     21.641     24.684
REMARK  7 active torsions:
REMARK  status: ('A' for Active; 'I' for Inactive)
REMARK    1  A    between atoms: C_2  and  C_3 
REMARK    2  A    between atoms: C_3  and  C_12 
REMARK    3  A    between atoms: O_19  and  C_20 
REMARK    4  A    between atoms: C_23  and  C_31 
REMARK    5  A    between atoms: C_31  and  C_32 
REMARK    6  A    between atoms: C_31  and  O_42 
REMARK    7  A    between atoms: C_39  and  C_40 
ROOT
HETATM    1  C   UNK N   1      28.054  24.653  -4.143  0.00  0.00     0.149 C 
HETATM    2  C   UNK N   1      29.410  25.297  -3.933  0.00  0.00     0.248 C 
HETATM    3  O   UNK N   1      29.662  26.383  -4.425  0.00  0.00    -0.271 OA
HETATM    4  N   UNK N   1      30.384  24.628  -3.266  0.00  0.00    -0.278 N 
HETATM    5  C   UNK N   1      30.100  23.529  -2.522  0.00  0.00     0.329 C 
HETATM    6  O   UNK N   1      31.004  22.912  -1.987  0.00  0.00    -0.247 OA
HETATM    7  N   UNK N   1      28.808  23.181  -2.276  0.00  0.00    -0.278 N 
HETATM    8  C   UNK N   1      27.775  23.801  -2.905  0.00  0.00     0.248 C 
HETATM    9  O   UNK N   1      26.630  23.538  -2.571  0.00  0.00    -0.271 OA
HETATM   10  H   UNK N   1      31.314  24.945  -3.324  0.00  0.00     0.173 HD
HETATM   11  H   UNK N   1      28.617  22.466  -1.627  0.00  0.00     0.173 HD
ENDROOT
BRANCH   1  12
HETATM   12  C   UNK N   1      28.259  23.670  -5.310  0.00  0.00     0.030 C 
HETATM   13  C   UNK N   1      29.404  24.053  -6.237  0.00  0.00     0.007 C 
ENDBRANCH   1  12
BRANCH   1  14
HETATM   14  C   UNK N   1      26.992  25.693  -4.535  0.00  0.00    -0.031 A 
HETATM   15  C   UNK N   1      26.620  26.737  -3.673  0.00  0.00     0.009 A 
HETATM   16  C   UNK N   1      25.652  27.669  -4.061  0.00  0.00     0.001 A 
HETATM   17  C   UNK N   1      25.046  27.571  -5.316  0.00  0.00     0.000 A 
HETATM   18  C   UNK N   1      25.405  26.539  -6.184  0.00  0.00     0.001 A 
HETATM   19  C   UNK N   1      26.368  25.606  -5.796  0.00  0.00     0.009 A 
ENDBRANCH   1  14
TORSDOF 7
ENDMDL
MODEL 4
REMARK VINA RESULT:      -6.3      6.706     10.127
REMARK  7 active torsions:
REMARK  status: ('A' for Active; 'I' for Inactive)
REMARK    1  A    between atoms: C_2  and  C_3 
REMARK    2  A    between atoms: C_3  and  C_12 
REMARK    3  A    between atoms: O_19  and  C_20 
REMARK    4  A    between atoms: C_23  and  C_31 
REMARK    5  A    between atoms: C_31  and  C_32 
REMARK    6  A    between atoms: C_31  and  O_42 
REMARK    7  A    between atoms: C_39  and  C_40 
ROOT
HETATM    1  C   UNK N   1      33.787  16.435   7.718  0.00  0.00     0.149 C 
HETATM    2  C   UNK N   1      34.424  17.643   8.374  0.00  0.00     0.248 C 
HETATM    3  O   UNK N   1      34.498  18.703   7.779  0.00  0.00    -0.271 OA
HETATM    4  N   UNK N   1      34.994  17.528   9.600  0.00  0.00    -0.278 N 
HETATM    5  C   UNK N   1      34.756  16.450  10.389  0.00  0.00     0.329 C 
HETATM    6  O   UNK N   1      35.332  16.345  11.458  0.00  0.00    -0.247 OA
HETATM    7  N   UNK N   1      33.794  15.549  10.050  0.00  0.00    -0.278 N 
HETATM    8  C   UNK N   1      33.177  15.593   8.840  0.00  0.00     0.248 C 
HETATM    9  O   UNK N   1      32.242  14.840   8.620  0.00  0.00    -0.271 OA
HETATM   10  H   UNK N   1      35.593  18.240   9.923  0.00  0.00     0.173 HD
HETATM   11  H   UNK N   1      33.540  14.850  10.695  0.00  0.00     0.173 HD
ENDROOT
BRANCH   1  12
HETATM   12  C   UNK N   1      34.966  15.620   7.157  0.00  0.00     0.030 C 
HETATM   13  C   UNK N   1      34.599  14.189   6.790  0.00  0.00     0.007 C 
ENDBRANCH   1  12
BRANCH   1  14
HETATM   14  C   UNK N   1      32.859  16.845   6.564  0.00  0.00    -0.031 A 
HETATM   15  C   UNK N   1      33.347  17.097   5.271  0.00  0.00     0.009 A 
HETATM   16  C   UNK N   1      32.475  17.466   4.241  0.00  0.00     0.001 A 
HETATM   17  C   UNK N   1      31.105  17.585   4.489  0.00  0.00     0.000 A 
HETATM   18  C   UNK N   1      30.605  17.338   5.768  0.00  0.00     0.001 A 
HETATM   19  C   UNK N   1      31.474  16.973   6.797  0.00  0.00     0.009 A 
ENDBRANCH   1  14
TORSDOF 7
ENDMDL
MODEL 5
REMARK VINA RESULT:      -6.0     25.136     26.267
REMARK  7 active torsions:
REMARK  status: ('A' for Active; 'I' for Inactive)
REMARK    1  A    between atoms: C_2  and  C_3 
REMARK    2  A    between atoms: C_3  and  C_12 
REMARK    3  A    between atoms: O_19  and  C_20 
REMARK    4  A    between atoms: C_23  and  C_31 
REMARK    5  A    between atoms: C_31  and  C_32 
REMARK    6  A    between atoms: C_31  and  O_42 
REMARK    7  A    between atoms: C_39  and  C_40 
ROOT
HETATM    1  C   UNK N   1      27.382  27.844  -4.419  0.00  0.00     0.149 C 
HETATM    2  C   UNK N   1      26.608  28.291  -3.195  0.00  0.00     0.248 C 
HETATM    3  O   UNK N   1      25.491  27.855  -2.977  0.00  0.00    -0.271 OA
HETATM    4  N   UNK N   1      27.120  29.246  -2.379  0.00  0.00    -0.278 N 
HETATM    5  C   UNK N   1      28.427  29.604  -2.448  0.00  0.00     0.329 C 
HETATM    6  O   UNK N   1      28.843  30.510  -1.747  0.00  0.00    -0.247 OA
HETATM    7  N   UNK N   1      29.297  28.885  -3.207  0.00  0.00    -0.278 N 
HETATM    8  C   UNK N   1      28.865  27.912  -4.052  0.00  0.00     0.248 C 
HETATM    9  O   UNK N   1      29.686  27.214  -4.627  0.00  0.00    -0.271 OA
HETATM   10  H   UNK N   1      26.532  29.689  -1.725  0.00  0.00     0.173 HD
HETATM   11  H   UNK N   1      30.262  29.072  -3.142  0.00  0.00     0.173 HD
ENDROOT
BRANCH   1  12
HETATM   12  C   UNK N   1      27.143  28.948  -5.465  0.00  0.00     0.030 C 
HETATM   13  C   UNK N   1      28.211  29.005  -6.548  0.00  0.00     0.007 C 
ENDBRANCH   1  12
BRANCH   1  14
HETATM   14  C   UNK N   1      26.854  26.507  -4.962  0.00  0.00    -0.031 A 
HETATM   15  C   UNK N   1      27.068  25.293  -4.287  0.00  0.00     0.009 A 
HETATM   16  C   UNK N   1      26.571  24.094  -4.807  0.00  0.00     0.001 A 
HETATM   17  C   UNK N   1      25.851  24.091  -6.005  0.00  0.00     0.000 A 
HETATM   18  C   UNK N   1      25.631  25.288  -6.687  0.00  0.00     0.001 A 
HETATM   19  C   UNK N   1      26.129  26.486  -6.171  0.00  0.00     0.009 A 
ENDBRANCH   1  14
TORSDOF 7
ENDMDL
MODEL 6
REMARK VINA RESULT:      -5.9     22.049     24.207
REMARK  7 active torsions:
REMARK  status: ('A' for Active; 'I' for Inactive)
REMARK    1  A    between atoms: C_2  and  C_3 
REMARK    2  A    between atoms: C_3  and  C_12 
REMARK    3  A    between atoms: O_19  and  C_20 
REMARK    4  A    between atoms: C_23  and  C_31 
REMARK    5  A    between atoms: C_31  and  C_32 
REMARK    6  A    between atoms: C_31  and  O_42 
REMARK    7  A    between atoms: C_39  and  C_40 
ROOT
HETATM    1  C   UNK N   1      28.165  24.912  -4.415  0.00  0.00     0.149 C 
HETATM    2  C   UNK N   1      27.019  24.986  -3.426  0.00  0.00     0.248 C 
HETATM    3  O   UNK N   1      26.679  23.999  -2.798  0.00  0.00    -0.271 OA
HETATM    4  N   UNK N   1      26.307  26.134  -3.296  0.00  0.00    -0.278 N 
HETATM    5  C   UNK N   1      26.767  27.308  -3.799  0.00  0.00     0.329 C 
HETATM    6  O   UNK N   1      26.075  28.309  -3.722  0.00  0.00    -0.247 OA
HETATM    7  N   UNK N   1      28.036  27.399  -4.281  0.00  0.00    -0.278 N 
HETATM    8  C   UNK N   1      28.813  26.297  -4.444  0.00  0.00     0.248 C 
HETATM    9  O   UNK N   1      29.982  26.435  -4.770  0.00  0.00    -0.271 OA
HETATM   10  H   UNK N   1      25.441  26.115  -2.829  0.00  0.00     0.173 HD
HETATM   11  H   UNK N   1      28.399  28.284  -4.516  0.00  0.00     0.173 HD
ENDROOT
BRANCH   1  12
HETATM   12  C   UNK N   1      27.492  24.719  -5.787  0.00  0.00     0.030 C 
HETATM   13  C   UNK N   1      26.201  23.916  -5.725  0.00  0.00     0.007 C 
ENDBRANCH   1  12
BRANCH   1  14
HETATM   14  C   UNK N   1      29.082  23.713  -4.126  0.00  0.00    -0.031 A 
HETATM   15  C   UNK N   1      29.341  22.726  -5.092  0.00  0.00     0.009 A 
HETATM   16  C   UNK N   1      30.183  21.648  -4.798  0.00  0.00     0.001 A 
HETATM   17  C   UNK N   1      30.778  21.545  -3.537  0.00  0.00     0.000 A 
HETATM   18  C   UNK N   1      30.530  22.518  -2.568  0.00  0.00     0.001 A 
HETATM   19  C   UNK N   1      29.687  23.591  -2.859  0.00  0.00     0.009 A 
ENDBRANCH   1  14
TORSDOF 7
ENDMDL
MODEL 7
REMARK VINA RESULT:      -5.9      2.115      3.171
REMARK  7 active torsions:
REMARK  status: ('A' for Active; 'I' for Inactive)
REMARK    1  A    between atoms: C_2  and  C_3 
REMARK    2  A    between atoms: C_3  and  C_12 
REMARK    3  A    between atoms: O_19  and  C_20 
REMARK    4  A    between atoms: C_23  and  C_31 
REMARK    5  A    between atoms: C_31  and  C_32 
REMARK    6  A    between atoms: C_31  and  O_42 
REMARK    7  A    between atoms: C_39  and  C_40 
ROOT
HETATM    1  C   UNK N   1      35.242  11.810  14.769  0.00  0.00     0.149 C 
HETATM    2  C   UNK N   1      36.550  11.252  14.245  0.00  0.00     0.248 C 
HETATM    3  O   UNK N   1      37.570  11.343  14.906  0.00  0.00    -0.271 OA
HETATM    4  N   UNK N   1      36.613  10.723  12.998  0.00  0.00    -0.278 N 
HETATM    5  C   UNK N   1      35.485  10.403  12.312  0.00  0.00     0.329 C 
HETATM    6  O   UNK N   1      35.572   9.989  11.169  0.00  0.00    -0.247 OA
HETATM    7  N   UNK N   1      34.274  10.430  12.930  0.00  0.00    -0.278 N 
HETATM    8  C   UNK N   1      34.127  10.946  14.179  0.00  0.00     0.248 C 
HETATM    9  O   UNK N   1      33.047  10.847  14.741  0.00  0.00    -0.271 OA
HETATM   10  H   UNK N   1      37.491  10.569  12.581  0.00  0.00     0.173 HD
HETATM   11  H   UNK N   1      33.487  10.067  12.464  0.00  0.00     0.173 HD
ENDROOT
BRANCH   1  12
HETATM   12  C   UNK N   1      35.111  13.196  14.111  0.00  0.00     0.030 C 
HETATM   13  C   UNK N   1      36.447  13.880  13.858  0.00  0.00     0.007 C 
ENDBRANCH   1  12
BRANCH   1  14
HETATM   14  C   UNK N   1      35.271  11.974  16.296  0.00  0.00    -0.031 A 
HETATM   15  C   UNK N   1      35.469  10.881  17.158  0.00  0.00     0.009 A 
HETATM   16  C   UNK N   1      35.493  11.065  18.544  0.00  0.00     0.001 A 
HETATM   17  C   UNK N   1      35.322  12.341  19.087  0.00  0.00     0.000 A 
HETATM   18  C   UNK N   1      35.123  13.435  18.245  0.00  0.00     0.001 A 
HETATM   19  C   UNK N   1      35.096  13.253  16.861  0.00  0.00     0.009 A 
ENDBRANCH   1  14
TORSDOF 7
ENDMDL
MODEL 8
REMARK VINA RESULT:      -5.8      8.793     10.263
REMARK  7 active torsions:
REMARK  status: ('A' for Active; 'I' for Inactive)
REMARK    1  A    between atoms: C_2  and  C_3 
REMARK    2  A    between atoms: C_3  and  C_12 
REMARK    3  A    between atoms: O_19  and  C_20 
REMARK    4  A    between atoms: C_23  and  C_31 
REMARK    5  A    between atoms: C_31  and  C_32 
REMARK    6  A    between atoms: C_31  and  O_42 
REMARK    7  A    between atoms: C_39  and  C_40 
ROOT
HETATM    1  C   UNK N   1      32.980  16.527   7.366  0.00  0.00     0.149 C 
HETATM    2  C   UNK N   1      32.952  15.020   7.531  0.00  0.00     0.248 C 
HETATM    3  O   UNK N   1      32.020  14.478   8.098  0.00  0.00    -0.271 OA
HETATM    4  N   UNK N   1      34.008  14.272   7.123  0.00  0.00    -0.278 N 
HETATM    5  C   UNK N   1      34.960  14.787   6.303  0.00  0.00     0.329 C 
HETATM    6  O   UNK N   1      35.929  14.111   6.006  0.00  0.00    -0.247 OA
HETATM    7  N   UNK N   1      34.781  16.004   5.722  0.00  0.00    -0.278 N 
HETATM    8  C   UNK N   1      33.750  16.815   6.077  0.00  0.00     0.248 C 
HETATM    9  O   UNK N   1      33.560  17.846   5.451  0.00  0.00    -0.271 OA
HETATM   10  H   UNK N   1      34.086  13.340   7.428  0.00  0.00     0.173 HD
HETATM   11  H   UNK N   1      35.412  16.303   5.028  0.00  0.00     0.173 HD
ENDROOT
BRANCH   1  12
HETATM   12  C   UNK N   1      33.862  17.036   8.521  0.00  0.00     0.030 C 
HETATM   13  C   UNK N   1      34.554  18.358   8.223  0.00  0.00     0.007 C 
ENDBRANCH   1  12
BRANCH   1  14
HETATM   14  C   UNK N   1      31.574  17.134   7.495  0.00  0.00    -0.031 A 
HETATM   15  C   UNK N   1      31.173  17.844   8.639  0.00  0.00     0.009 A 
HETATM   16  C   UNK N   1      29.886  18.387   8.723  0.00  0.00     0.001 A 
HETATM   17  C   UNK N   1      28.986  18.229   7.666  0.00  0.00     0.000 A 
HETATM   18  C   UNK N   1      29.370  17.525   6.524  0.00  0.00     0.001 A 
HETATM   19  C   UNK N   1      30.652  16.980   6.440  0.00  0.00     0.009 A 
ENDBRANCH   1  14
TORSDOF 7
ENDMDL
MODEL 9
REMARK VINA RESULT:      -5.7     24.155     26.083
REMARK  7 active torsions:
REMARK  status: ('A' for Active; 'I' for Inactive)
REMARK    1  A    between atoms: C_2  and  C_3 
REMARK    2  A    between atoms: C_3  and  C_12 
REMARK    3  A    between atoms: O_19  and  C_20 
REMARK    4  A    between atoms: C_23  and  C_31 
REMARK    5  A    between atoms: C_31  and  C_32 
REMARK    6  A    between atoms: C_31  and  O_42 
REMARK    7  A    between atoms: C_39  and  C_40 
ROOT
HETATM    1  C   UNK N   1      27.077  25.530  -5.197  0.00  0.00     0.149 C 
HETATM    2  C   UNK N   1      26.404  26.714  -5.863  0.00  0.00     0.248 C 
HETATM    3  O   UNK N   1      26.177  26.703  -7.060  0.00  0.00    -0.271 OA
HETATM    4  N   UNK N   1      26.128  27.830  -5.144  0.00  0.00    -0.278 N 
HETATM    5  C   UNK N   1      26.158  27.819  -3.787  0.00  0.00     0.329 C 
HETATM    6  O   UNK N   1      25.968  28.853  -3.171  0.00  0.00    -0.247 OA
HETATM    7  N   UNK N   1      26.283  26.644  -3.112  0.00  0.00    -0.278 N 
HETATM    8  C   UNK N   1      26.562  25.482  -3.758  0.00  0.00     0.248 C 
HETATM    9  O   UNK N   1      26.552  24.434  -3.131  0.00  0.00    -0.271 OA
HETATM   10  H   UNK N   1      25.902  28.665  -5.615  0.00  0.00     0.173 HD
HETATM   11  H   UNK N   1      26.168  26.636  -2.134  0.00  0.00     0.173 HD
ENDROOT
BRANCH   1  12
HETATM   12  C   UNK N   1      28.565  25.915  -5.114  0.00  0.00     0.030 C 
HETATM   13  C   UNK N   1      29.306  25.240  -3.968  0.00  0.00     0.007 C 
ENDBRANCH   1  12
BRANCH   1  14
HETATM   14  C   UNK N   1      26.929  24.252  -6.039  0.00  0.00    -0.031 A 
HETATM   15  C   UNK N   1      25.716  23.548  -6.115  0.00  0.00     0.009 A 
HETATM   16  C   UNK N   1      25.614  22.390  -6.893  0.00  0.00     0.001 A 
HETATM   17  C   UNK N   1      26.722  21.923  -7.606  0.00  0.00     0.000 A 
HETATM   18  C   UNK N   1      27.933  22.611  -7.540  0.00  0.00     0.001 A 
HETATM   19  C   UNK N   1      28.037  23.764  -6.761  0.00  0.00     0.009 A 
ENDBRANCH   1  14
TORSDOF 7
ENDMDL
