MODEL 1
REMARK VINA RESULT:      -8.0      0.000      0.000
REMARK  7 active torsions:
REMARK  status: ('A' for Active; 'I' for Inactive)
REMARK    1  A    between atoms: C_3  and  C_17 
REMARK    2  A    between atoms: N_6  and  C_8 
REMARK    3  A    between atoms: C_7  and  C_24 
REMARK    4  A    between atoms: C_11  and  C_14 
REMARK    5  A    between atoms: C_14  and  O_16 
REMARK    6  A    between atoms: C_22  and  O_23 
REMARK    7  A    between atoms: C_29  and  O_30 
ROOT
HETATM    1  N   UNK N   1      27.608  16.506   5.471  0.00  0.00    -0.325 N 
ATOM      2  HN  UNK N   1      28.172  15.661   5.561  1.00  0.00     0.169 HD
HETATM    3  C   UNK N   1      27.746  17.658   6.141  0.00  0.00     0.135 A 
HETATM    4  N   UNK N   1      26.823  18.561   5.757  0.00  0.00    -0.276 N 
ATOM      5  HN  UNK N   1      26.726  19.514   6.110  1.00  0.00     0.189 HD
HETATM    6  N   UNK N   1      26.068  17.980   4.839  0.00  0.00    -0.237 N 
HETATM    7  C   UNK N   1      26.559  16.708   4.654  0.00  0.00     0.142 A 
ENDROOT
BRANCH   6   8
HETATM    8  C   UNK N   1      24.933  18.680   4.268  0.00  0.00     0.058 A 
HETATM    9  C   UNK N   1      23.637  18.149   4.407  0.00  0.00     0.032 A 
HETATM   10  C   UNK N   1      22.534  18.808   3.846  0.00  0.00     0.020 A 
HETATM   11  C   UNK N   1      22.717  19.994   3.119  0.00  0.00     0.037 A 
HETATM   12  C   UNK N   1      24.007  20.498   2.951  0.00  0.00     0.020 A 
HETATM   13  C   UNK N   1      25.094  19.841   3.513  0.00  0.00     0.032 A 
BRANCH  11  14
HETATM   14  C   UNK N   1      21.570  20.718   2.541  0.00  0.00     0.176 C 
HETATM   15  O   UNK N   1      21.467  20.837   1.329  0.00  0.00    -0.646 OA
BRANCH  14  16
HETATM   16  O   UNK N   1      20.634  21.261   3.342  0.00  0.00    -0.773 OA
HETATM   17  H   UNK N   1      19.927  21.772   3.001  0.00  0.00     0.167 HD
ENDBRANCH  14  16
ENDBRANCH  11  14
ENDBRANCH   6   8
BRANCH   7  18
HETATM   18  C   UNK N   1      26.129  15.623   3.702  0.00  0.00     0.043 A 
HETATM   19  C   UNK N   1      25.912  15.868   2.342  0.00  0.00     0.018 A 
HETATM   20  C   UNK N   1      25.513  14.856   1.468  0.00  0.00     0.001 A 
HETATM   21  C   UNK N   1      25.335  13.560   1.941  0.00  0.00     0.003 A 
HETATM   22  C   UNK N   1      25.569  13.276   3.284  0.00  0.00     0.037 A 
HETATM   23  C   UNK N   1      25.966  14.287   4.164  0.00  0.00     0.079 A 
BRANCH  23  24
HETATM   24  O   UNK N   1      26.178  13.961   5.452  0.00  0.00    -0.360 OA
HETATM   25  H   UNK N   1      27.046  13.836   5.783  0.00  0.00     0.217 HD
ENDBRANCH  23  24
ENDBRANCH   7  18
BRANCH   3  26
HETATM   26  C   UNK N   1      28.784  17.858   7.170  0.00  0.00     0.042 A 
HETATM   27  C   UNK N   1      30.057  17.313   6.937  0.00  0.00     0.018 A 
HETATM   28  C   UNK N   1      31.081  17.470   7.870  0.00  0.00     0.001 A 
HETATM   29  C   UNK N   1      30.843  18.172   9.051  0.00  0.00     0.003 A 
HETATM   30  C   UNK N   1      29.579  18.715   9.300  0.00  0.00     0.037 A 
HETATM   31  C   UNK N   1      28.546  18.562   8.368  0.00  0.00     0.079 A 
BRANCH  31  32
HETATM   32  O   UNK N   1      27.338  19.087   8.636  0.00  0.00    -0.360 OA
HETATM   33  H   UNK N   1      27.241  19.708   9.330  0.00  0.00     0.217 HD
ENDBRANCH  31  32
ENDBRANCH   3  26
TORSDOF 7
ENDMDL
MODEL 2
REMARK VINA RESULT:      -7.7      3.626      8.695
REMARK  7 active torsions:
REMARK  status: ('A' for Active; 'I' for Inactive)
REMARK    1  A    between atoms: C_3  and  C_17 
REMARK    2  A    between atoms: N_6  and  C_8 
REMARK    3  A    between atoms: C_7  and  C_24 
REMARK    4  A    between atoms: C_11  and  C_14 
REMARK    5  A    between atoms: C_14  and  O_16 
REMARK    6  A    between atoms: C_22  and  O_23 
REMARK    7  A    between atoms: C_29  and  O_30 
ROOT
HETATM    1  N   UNK N   1      27.997  16.466   4.391  0.00  0.00    -0.325 N 
ATOM      2  HN  UNK N   1      27.040  16.627   4.079  1.00  0.00     0.169 HD
HETATM    3  C   UNK N   1      28.792  15.430   4.095  0.00  0.00     0.135 A 
HETATM    4  N   UNK N   1      29.998  15.554   4.682  0.00  0.00    -0.276 N 
ATOM      5  HN  UNK N   1      30.780  14.903   4.602  1.00  0.00     0.189 HD
HETATM    6  N   UNK N   1      29.978  16.679   5.379  0.00  0.00    -0.237 N 
HETATM    7  C   UNK N   1      28.740  17.250   5.193  0.00  0.00     0.142 A 
ENDROOT
BRANCH   6   8
HETATM    8  C   UNK N   1      31.120  17.067   6.184  0.00  0.00     0.058 A 
HETATM    9  C   UNK N   1      32.372  17.273   5.575  0.00  0.00     0.032 A 
HETATM   10  C   UNK N   1      33.488  17.633   6.344  0.00  0.00     0.020 A 
HETATM   11  C   UNK N   1      33.369  17.769   7.735  0.00  0.00     0.037 A 
HETATM   12  C   UNK N   1      32.136  17.527   8.342  0.00  0.00     0.020 A 
HETATM   13  C   UNK N   1      31.035  17.174   7.571  0.00  0.00     0.032 A 
BRANCH  11  14
HETATM   14  C   UNK N   1      34.522  18.170   8.562  0.00  0.00     0.176 C 
HETATM   15  O   UNK N   1      35.130  19.200   8.310  0.00  0.00    -0.646 OA
BRANCH  14  16
HETATM   16  O   UNK N   1      34.919  17.402   9.595  0.00  0.00    -0.773 OA
HETATM   17  H   UNK N   1      35.286  16.550   9.465  0.00  0.00     0.167 HD
ENDBRANCH  14  16
ENDBRANCH  11  14
ENDBRANCH   6   8
BRANCH   7  18
HETATM   18  C   UNK N   1      28.179  18.553   5.700  0.00  0.00     0.043 A 
HETATM   19  C   UNK N   1      28.013  18.812   7.065  0.00  0.00     0.018 A 
HETATM   20  C   UNK N   1      27.491  20.021   7.525  0.00  0.00     0.001 A 
HETATM   21  C   UNK N   1      27.134  21.013   6.618  0.00  0.00     0.003 A 
HETATM   22  C   UNK N   1      27.312  20.798   5.253  0.00  0.00     0.037 A 
HETATM   23  C   UNK N   1      27.831  19.588   4.786  0.00  0.00     0.079 A 
BRANCH  23  24
HETATM   24  O   UNK N   1      27.982  19.430   3.460  0.00  0.00    -0.360 OA
HETATM   25  H   UNK N   1      27.300  19.666   2.863  0.00  0.00     0.217 HD
ENDBRANCH  23  24
ENDBRANCH   7  18
BRANCH   3  26
HETATM   26  C   UNK N   1      28.350  14.309   3.243  0.00  0.00     0.042 A 
HETATM   27  C   UNK N   1      26.977  14.019   3.196  0.00  0.00     0.018 A 
HETATM   28  C   UNK N   1      26.496  12.975   2.407  0.00  0.00     0.001 A 
HETATM   29  C   UNK N   1      27.385  12.205   1.658  0.00  0.00     0.003 A 
HETATM   30  C   UNK N   1      28.755  12.477   1.699  0.00  0.00     0.037 A 
HETATM   31  C   UNK N   1      29.246  13.524   2.489  0.00  0.00     0.079 A 
BRANCH  31  32
HETATM   32  O   UNK N   1      30.568  13.760   2.517  0.00  0.00    -0.360 OA
HETATM   33  H   UNK N   1      31.084  13.448   3.234  0.00  0.00     0.217 HD
ENDBRANCH  31  32
ENDBRANCH   3  26
TORSDOF 7
ENDMDL
MODEL 3
REMARK VINA RESULT:      -7.5      5.605      6.597
REMARK  7 active torsions:
REMARK  status: ('A' for Active; 'I' for Inactive)
REMARK    1  A    between atoms: C_3  and  C_17 
REMARK    2  A    between atoms: N_6  and  C_8 
REMARK    3  A    between atoms: C_7  and  C_24 
REMARK    4  A    between atoms: C_11  and  C_14 
REMARK    5  A    between atoms: C_14  and  O_16 
REMARK    6  A    between atoms: C_22  and  O_23 
REMARK    7  A    between atoms: C_29  and  O_30 
ROOT
HETATM    1  N   UNK N   1      20.834  13.498   5.448  0.00  0.00    -0.325 N 
ATOM      2  HN  UNK N   1      20.648  12.496   5.422  1.00  0.00     0.169 HD
HETATM    3  C   UNK N   1      21.196  14.237   6.505  0.00  0.00     0.135 A 
HETATM    4  N   UNK N   1      21.361  15.530   6.166  0.00  0.00    -0.276 N 
ATOM      5  HN  UNK N   1      21.645  16.287   6.788  1.00  0.00     0.189 HD
HETATM    6  N   UNK N   1      21.087  15.632   4.875  0.00  0.00    -0.237 N 
HETATM    7  C   UNK N   1      20.769  14.371   4.427  0.00  0.00     0.142 A 
ENDROOT
BRANCH   6   8
HETATM    8  C   UNK N   1      21.113  16.924   4.216  0.00  0.00     0.058 A 
HETATM    9  C   UNK N   1      22.266  17.727   4.290  0.00  0.00     0.032 A 
HETATM   10  C   UNK N   1      22.299  18.985   3.671  0.00  0.00     0.020 A 
HETATM   11  C   UNK N   1      21.170  19.464   2.990  0.00  0.00     0.037 A 
HETATM   12  C   UNK N   1      20.014  18.682   2.951  0.00  0.00     0.020 A 
HETATM   13  C   UNK N   1      19.993  17.435   3.564  0.00  0.00     0.032 A 
BRANCH  11  14
HETATM   14  C   UNK N   1      21.187  20.771   2.311  0.00  0.00     0.176 C 
HETATM   15  O   UNK N   1      20.520  20.950   1.302  0.00  0.00    -0.646 OA
BRANCH  14  16
HETATM   16  O   UNK N   1      21.945  21.777   2.789  0.00  0.00    -0.773 OA
HETATM   17  H   UNK N   1      21.939  22.629   2.401  0.00  0.00     0.167 HD
ENDBRANCH  14  16
ENDBRANCH  11  14
ENDBRANCH   6   8
BRANCH   7  18
HETATM   18  C   UNK N   1      20.424  13.883   3.043  0.00  0.00     0.043 A 
HETATM   19  C   UNK N   1      21.341  13.931   1.987  0.00  0.00     0.018 A 
HETATM   20  C   UNK N   1      21.013  13.477   0.710  0.00  0.00     0.001 A 
HETATM   21  C   UNK N   1      19.751  12.946   0.464  0.00  0.00     0.003 A 
HETATM   22  C   UNK N   1      18.824  12.859   1.500  0.00  0.00     0.037 A 
HETATM   23  C   UNK N   1      19.146  13.315   2.781  0.00  0.00     0.079 A 
BRANCH  23  24
HETATM   24  O   UNK N   1      18.216  13.209   3.746  0.00  0.00    -0.360 OA
HETATM   25  H   UNK N   1      17.311  13.094   3.535  0.00  0.00     0.217 HD
ENDBRANCH  23  24
ENDBRANCH   7  18
BRANCH   3  26
HETATM   26  C   UNK N   1      21.364  13.663   7.854  0.00  0.00     0.042 A 
HETATM   27  C   UNK N   1      22.351  12.681   8.034  0.00  0.00     0.018 A 
HETATM   28  C   UNK N   1      22.561  12.102   9.285  0.00  0.00     0.001 A 
HETATM   29  C   UNK N   1      21.783  12.498  10.372  0.00  0.00     0.003 A 
HETATM   30  C   UNK N   1      20.792  13.470  10.208  0.00  0.00     0.037 A 
HETATM   31  C   UNK N   1      20.576  14.056   8.955  0.00  0.00     0.079 A 
BRANCH  31  32
HETATM   32  O   UNK N   1      19.612  14.982   8.822  0.00  0.00    -0.360 OA
HETATM   33  H   UNK N   1      18.735  14.721   8.617  0.00  0.00     0.217 HD
ENDBRANCH  31  32
ENDBRANCH   3  26
TORSDOF 7
ENDMDL
MODEL 4
REMARK VINA RESULT:      -7.4      9.965     13.650
REMARK  7 active torsions:
REMARK  status: ('A' for Active; 'I' for Inactive)
REMARK    1  A    between atoms: C_3  and  C_17 
REMARK    2  A    between atoms: N_6  and  C_8 
REMARK    3  A    between atoms: C_7  and  C_24 
REMARK    4  A    between atoms: C_11  and  C_14 
REMARK    5  A    between atoms: C_14  and  O_16 
REMARK    6  A    between atoms: C_22  and  O_23 
REMARK    7  A    between atoms: C_29  and  O_30 
ROOT
HETATM    1  N   UNK N   1      36.894  12.146  13.591  0.00  0.00    -0.325 N 
ATOM      2  HN  UNK N   1      37.482  11.350  13.840  1.00  0.00     0.169 HD
HETATM    3  C   UNK N   1      36.038  12.809  14.379  0.00  0.00     0.135 A 
HETATM    4  N   UNK N   1      35.434  13.811  13.711  0.00  0.00    -0.276 N 
ATOM      5  HN  UNK N   1      34.751  14.467  14.092  1.00  0.00     0.189 HD
HETATM    6  N   UNK N   1      35.894  13.785  12.470  0.00  0.00    -0.237 N 
HETATM    7  C   UNK N   1      36.806  12.758  12.397  0.00  0.00     0.142 A 
ENDROOT
BRANCH   6   8
HETATM    8  C   UNK N   1      35.384  14.710  11.476  0.00  0.00     0.058 A 
HETATM    9  C   UNK N   1      34.472  14.263  10.503  0.00  0.00     0.032 A 
HETATM   10  C   UNK N   1      33.984  15.143   9.526  0.00  0.00     0.020 A 
HETATM   11  C   UNK N   1      34.421  16.477   9.499  0.00  0.00     0.037 A 
HETATM   12  C   UNK N   1      35.355  16.908  10.441  0.00  0.00     0.020 A 
HETATM   13  C   UNK N   1      35.830  16.029  11.408  0.00  0.00     0.032 A 
BRANCH  11  14
HETATM   14  C   UNK N   1      33.904  17.427   8.498  0.00  0.00     0.176 C 
HETATM   15  O   UNK N   1      32.725  17.749   8.507  0.00  0.00    -0.646 OA
BRANCH  14  16
HETATM   16  O   UNK N   1      34.724  17.941   7.561  0.00  0.00    -0.773 OA
HETATM   17  H   UNK N   1      35.654  17.952   7.669  0.00  0.00     0.167 HD
ENDBRANCH  14  16
ENDBRANCH  11  14
ENDBRANCH   6   8
BRANCH   7  18
HETATM   18  C   UNK N   1      37.673  12.300  11.253  0.00  0.00     0.043 A 
HETATM   19  C   UNK N   1      38.476  13.186  10.525  0.00  0.00     0.018 A 
HETATM   20  C   UNK N   1      39.275  12.753   9.467  0.00  0.00     0.001 A 
HETATM   21  C   UNK N   1      39.299  11.406   9.121  0.00  0.00     0.003 A 
HETATM   22  C   UNK N   1      38.533  10.493   9.842  0.00  0.00     0.037 A 
HETATM   23  C   UNK N   1      37.728  10.922  10.901  0.00  0.00     0.079 A 
BRANCH  23  24
HETATM   24  O   UNK N   1      37.007  10.002  11.565  0.00  0.00    -0.360 OA
HETATM   25  H   UNK N   1      37.306   9.117  11.644  0.00  0.00     0.217 HD
ENDBRANCH  23  24
ENDBRANCH   7  18
BRANCH   3  26
HETATM   26  C   UNK N   1      35.808  12.441  15.788  0.00  0.00     0.042 A 
HETATM   27  C   UNK N   1      35.402  13.451  16.676  0.00  0.00     0.018 A 
HETATM   28  C   UNK N   1      35.166  13.167  18.020  0.00  0.00     0.001 A 
HETATM   29  C   UNK N   1      35.336  11.867  18.495  0.00  0.00     0.003 A 
HETATM   30  C   UNK N   1      35.746  10.852  17.626  0.00  0.00     0.037 A 
HETATM   31  C   UNK N   1      35.985  11.130  16.274  0.00  0.00     0.079 A 
BRANCH  31  32
HETATM   32  O   UNK N   1      36.385  10.137  15.462  0.00  0.00    -0.360 OA
HETATM   33  H   UNK N   1      36.477   9.266  15.795  0.00  0.00     0.217 HD
ENDBRANCH  31  32
ENDBRANCH   3  26
TORSDOF 7
ENDMDL
MODEL 5
REMARK VINA RESULT:      -7.3      3.840      8.510
REMARK  7 active torsions:
REMARK  status: ('A' for Active; 'I' for Inactive)
REMARK    1  A    between atoms: C_3  and  C_17 
REMARK    2  A    between atoms: N_6  and  C_8 
REMARK    3  A    between atoms: C_7  and  C_24 
REMARK    4  A    between atoms: C_11  and  C_14 
REMARK    5  A    between atoms: C_14  and  O_16 
REMARK    6  A    between atoms: C_22  and  O_23 
REMARK    7  A    between atoms: C_29  and  O_30 
ROOT
HETATM    1  N   UNK N   1      27.931  16.101   4.655  0.00  0.00    -0.325 N 
ATOM      2  HN  UNK N   1      26.980  16.270   4.325  1.00  0.00     0.169 HD
HETATM    3  C   UNK N   1      28.656  14.983   4.526  0.00  0.00     0.135 A 
HETATM    4  N   UNK N   1      29.875  15.123   5.081  0.00  0.00    -0.276 N 
ATOM      5  HN  UNK N   1      30.614  14.420   5.104  1.00  0.00     0.189 HD
HETATM    6  N   UNK N   1      29.934  16.344   5.590  0.00  0.00    -0.237 N 
HETATM    7  C   UNK N   1      28.731  16.955   5.318  0.00  0.00     0.142 A 
ENDROOT
BRANCH   6   8
HETATM    8  C   UNK N   1      31.108  16.783   6.318  0.00  0.00     0.058 A 
HETATM    9  C   UNK N   1      31.051  16.941   7.715  0.00  0.00     0.032 A 
HETATM   10  C   UNK N   1      32.175  17.380   8.429  0.00  0.00     0.020 A 
HETATM   11  C   UNK N   1      33.364  17.688   7.750  0.00  0.00     0.037 A 
HETATM   12  C   UNK N   1      33.407  17.567   6.361  0.00  0.00     0.020 A 
HETATM   13  C   UNK N   1      32.289  17.128   5.662  0.00  0.00     0.032 A 
BRANCH  11  14
HETATM   14  C   UNK N   1      34.566  18.128   8.480  0.00  0.00     0.176 C 
HETATM   15  O   UNK N   1      35.263  19.027   8.032  0.00  0.00    -0.646 OA
BRANCH  14  16
HETATM   16  O   UNK N   1      34.912  17.538   9.640  0.00  0.00    -0.773 OA
HETATM   17  H   UNK N   1      35.606  17.868  10.176  0.00  0.00     0.167 HD
ENDBRANCH  14  16
ENDBRANCH  11  14
ENDBRANCH   6   8
BRANCH   7  18
HETATM   18  C   UNK N   1      28.257  18.354   5.612  0.00  0.00     0.043 A 
HETATM   19  C   UNK N   1      28.205  19.345   4.626  0.00  0.00     0.018 A 
HETATM   20  C   UNK N   1      27.765  20.639   4.908  0.00  0.00     0.001 A 
HETATM   21  C   UNK N   1      27.350  20.966   6.195  0.00  0.00     0.003 A 
HETATM   22  C   UNK N   1      27.364  19.995   7.194  0.00  0.00     0.037 A 
HETATM   23  C   UNK N   1      27.806  18.699   6.917  0.00  0.00     0.079 A 
BRANCH  23  24
HETATM   24  O   UNK N   1      27.801  17.799   7.916  0.00  0.00    -0.360 OA
HETATM   25  H   UNK N   1      28.393  17.874   8.638  0.00  0.00     0.217 HD
ENDBRANCH  23  24
ENDBRANCH   7  18
BRANCH   3  26
HETATM   26  C   UNK N   1      28.135  13.771   3.866  0.00  0.00     0.042 A 
HETATM   27  C   UNK N   1      28.228  12.552   4.557  0.00  0.00     0.018 A 
HETATM   28  C   UNK N   1      27.751  11.372   3.989  0.00  0.00     0.001 A 
HETATM   29  C   UNK N   1      27.176  11.396   2.718  0.00  0.00     0.003 A 
HETATM   30  C   UNK N   1      27.082  12.600   2.015  0.00  0.00     0.037 A 
HETATM   31  C   UNK N   1      27.559  13.789   2.579  0.00  0.00     0.079 A 
BRANCH  31  32
HETATM   32  O   UNK N   1      27.462  14.932   1.879  0.00  0.00    -0.360 OA
HETATM   33  H   UNK N   1      28.226  15.452   1.724  0.00  0.00     0.217 HD
ENDBRANCH  31  32
ENDBRANCH   3  26
TORSDOF 7
ENDMDL
MODEL 6
REMARK VINA RESULT:      -7.3      9.452     12.981
REMARK  7 active torsions:
REMARK  status: ('A' for Active; 'I' for Inactive)
REMARK    1  A    between atoms: C_3  and  C_17 
REMARK    2  A    between atoms: N_6  and  C_8 
REMARK    3  A    between atoms: C_7  and  C_24 
REMARK    4  A    between atoms: C_11  and  C_14 
REMARK    5  A    between atoms: C_14  and  O_16 
REMARK    6  A    between atoms: C_22  and  O_23 
REMARK    7  A    between atoms: C_29  and  O_30 
ROOT
HETATM    1  N   UNK N   1      37.059  13.152  12.922  0.00  0.00    -0.325 N 
ATOM      2  HN  UNK N   1      37.672  12.458  13.349  1.00  0.00     0.169 HD
HETATM    3  C   UNK N   1      36.191  13.967  13.537  0.00  0.00     0.135 A 
HETATM    4  N   UNK N   1      35.552  14.757  12.653  0.00  0.00    -0.276 N 
ATOM      5  HN  UNK N   1      34.853  15.468  12.872  1.00  0.00     0.189 HD
HETATM    6  N   UNK N   1      36.000  14.438  11.449  0.00  0.00    -0.237 N 
HETATM    7  C   UNK N   1      36.941  13.449  11.616  0.00  0.00     0.142 A 
ENDROOT
BRANCH   6   8
HETATM    8  C   UNK N   1      35.454  15.076  10.267  0.00  0.00     0.058 A 
HETATM    9  C   UNK N   1      35.198  14.314   9.112  0.00  0.00     0.032 A 
HETATM   10  C   UNK N   1      34.685  14.921   7.957  0.00  0.00     0.020 A 
HETATM   11  C   UNK N   1      34.442  16.303   7.937  0.00  0.00     0.037 A 
HETATM   12  C   UNK N   1      34.733  17.063   9.070  0.00  0.00     0.020 A 
HETATM   13  C   UNK N   1      35.238  16.452  10.212  0.00  0.00     0.032 A 
BRANCH  11  14
HETATM   14  C   UNK N   1      33.881  16.961   6.743  0.00  0.00     0.176 C 
HETATM   15  O   UNK N   1      34.322  18.038   6.370  0.00  0.00    -0.646 OA
BRANCH  14  16
HETATM   16  O   UNK N   1      32.871  16.386   6.062  0.00  0.00    -0.773 OA
HETATM   17  H   UNK N   1      32.934  16.203   5.145  0.00  0.00     0.167 HD
ENDBRANCH  14  16
ENDBRANCH  11  14
ENDBRANCH   6   8
BRANCH   7  18
HETATM   18  C   UNK N   1      37.811  12.746  10.605  0.00  0.00     0.043 A 
HETATM   19  C   UNK N   1      37.742  11.365  10.396  0.00  0.00     0.018 A 
HETATM   20  C   UNK N   1      38.551  10.723   9.459  0.00  0.00     0.001 A 
HETATM   21  C   UNK N   1      39.446  11.462   8.691  0.00  0.00     0.003 A 
HETATM   22  C   UNK N   1      39.519  12.843   8.855  0.00  0.00     0.037 A 
HETATM   23  C   UNK N   1      38.713  13.491   9.795  0.00  0.00     0.079 A 
BRANCH  23  24
HETATM   24  O   UNK N   1      38.823  14.825   9.914  0.00  0.00    -0.360 OA
HETATM   25  H   UNK N   1      38.153  15.331  10.330  0.00  0.00     0.217 HD
ENDBRANCH  23  24
ENDBRANCH   7  18
BRANCH   3  26
HETATM   26  C   UNK N   1      35.986  13.951  14.997  0.00  0.00     0.042 A 
HETATM   27  C   UNK N   1      36.824  14.754  15.789  0.00  0.00     0.018 A 
HETATM   28  C   UNK N   1      36.679  14.785  17.175  0.00  0.00     0.001 A 
HETATM   29  C   UNK N   1      35.694  14.012  17.788  0.00  0.00     0.003 A 
HETATM   30  C   UNK N   1      34.857  13.203  17.014  0.00  0.00     0.037 A 
HETATM   31  C   UNK N   1      34.996  13.166  15.622  0.00  0.00     0.079 A 
BRANCH  31  32
HETATM   32  O   UNK N   1      34.183  12.375  14.902  0.00  0.00    -0.360 OA
HETATM   33  H   UNK N   1      33.478  12.750  14.411  0.00  0.00     0.217 HD
ENDBRANCH  31  32
ENDBRANCH   3  26
TORSDOF 7
ENDMDL
MODEL 7
REMARK VINA RESULT:      -7.2      4.679      6.062
REMARK  7 active torsions:
REMARK  status: ('A' for Active; 'I' for Inactive)
REMARK    1  A    between atoms: C_3  and  C_17 
REMARK    2  A    between atoms: N_6  and  C_8 
REMARK    3  A    between atoms: C_7  and  C_24 
REMARK    4  A    between atoms: C_11  and  C_14 
REMARK    5  A    between atoms: C_14  and  O_16 
REMARK    6  A    between atoms: C_22  and  O_23 
REMARK    7  A    between atoms: C_29  and  O_30 
ROOT
HETATM    1  N   UNK N   1      23.853  14.896   6.953  0.00  0.00    -0.325 N 
ATOM      2  HN  UNK N   1      24.705  14.820   7.508  1.00  0.00     0.169 HD
HETATM    3  C   UNK N   1      22.627  14.461   7.271  0.00  0.00     0.135 A 
HETATM    4  N   UNK N   1      21.740  14.739   6.297  0.00  0.00    -0.276 N 
ATOM      5  HN  UNK N   1      20.743  14.521   6.305  1.00  0.00     0.189 HD
HETATM    6  N   UNK N   1      22.404  15.349   5.327  0.00  0.00    -0.237 N 
HETATM    7  C   UNK N   1      23.713  15.455   5.737  0.00  0.00     0.142 A 
ENDROOT
BRANCH   6   8
HETATM    8  C   UNK N   1      21.733  15.725   4.098  0.00  0.00     0.058 A 
HETATM    9  C   UNK N   1      21.938  14.972   2.927  0.00  0.00     0.032 A 
HETATM   10  C   UNK N   1      21.308  15.335   1.728  0.00  0.00     0.020 A 
HETATM   11  C   UNK N   1      20.483  16.469   1.681  0.00  0.00     0.037 A 
HETATM   12  C   UNK N   1      20.312  17.236   2.834  0.00  0.00     0.020 A 
HETATM   13  C   UNK N   1      20.938  16.867   4.019  0.00  0.00     0.032 A 
BRANCH  11  14
HETATM   14  C   UNK N   1      19.790  16.857   0.439  0.00  0.00     0.176 C 
HETATM   15  O   UNK N   1      20.407  17.404  -0.463  0.00  0.00    -0.646 OA
BRANCH  14  16
HETATM   16  O   UNK N   1      18.473  16.620   0.293  0.00  0.00    -0.773 OA
HETATM   17  H   UNK N   1      17.826  17.119   0.751  0.00  0.00     0.167 HD
ENDBRANCH  14  16
ENDBRANCH  11  14
ENDBRANCH   6   8
BRANCH   7  18
HETATM   18  C   UNK N   1      24.899  16.099   5.066  0.00  0.00     0.043 A 
HETATM   19  C   UNK N   1      25.933  15.348   4.498  0.00  0.00     0.018 A 
HETATM   20  C   UNK N   1      27.026  15.953   3.880  0.00  0.00     0.001 A 
HETATM   21  C   UNK N   1      27.101  17.341   3.803  0.00  0.00     0.003 A 
HETATM   22  C   UNK N   1      26.075  18.118   4.335  0.00  0.00     0.037 A 
HETATM   23  C   UNK N   1      24.978  17.516   4.958  0.00  0.00     0.079 A 
BRANCH  23  24
HETATM   24  O   UNK N   1      24.015  18.311   5.456  0.00  0.00    -0.360 OA
HETATM   25  H   UNK N   1      23.744  18.242   6.350  0.00  0.00     0.217 HD
ENDBRANCH  23  24
ENDBRANCH   7  18
BRANCH   3  26
HETATM   26  C   UNK N   1      22.339  13.756   8.535  0.00  0.00     0.042 A 
HETATM   27  C   UNK N   1      23.401  13.107   9.184  0.00  0.00     0.018 A 
HETATM   28  C   UNK N   1      23.194  12.426  10.383  0.00  0.00     0.001 A 
HETATM   29  C   UNK N   1      21.919  12.384  10.947  0.00  0.00     0.003 A 
HETATM   30  C   UNK N   1      20.851  13.021  10.309  0.00  0.00     0.037 A 
HETATM   31  C   UNK N   1      21.051  13.707   9.105  0.00  0.00     0.079 A 
BRANCH  31  32
HETATM   32  O   UNK N   1      20.005  14.304   8.509  0.00  0.00    -0.360 OA
HETATM   33  H   UNK N   1      19.196  14.404   8.972  0.00  0.00     0.217 HD
ENDBRANCH  31  32
ENDBRANCH   3  26
TORSDOF 7
ENDMDL
MODEL 8
REMARK VINA RESULT:      -7.2      3.114      8.438
REMARK  7 active torsions:
REMARK  status: ('A' for Active; 'I' for Inactive)
REMARK    1  A    between atoms: C_3  and  C_17 
REMARK    2  A    between atoms: N_6  and  C_8 
REMARK    3  A    between atoms: C_7  and  C_24 
REMARK    4  A    between atoms: C_11  and  C_14 
REMARK    5  A    between atoms: C_14  and  O_16 
REMARK    6  A    between atoms: C_22  and  O_23 
REMARK    7  A    between atoms: C_29  and  O_30 
ROOT
HETATM    1  N   UNK N   1      26.617  16.722   3.879  0.00  0.00    -0.325 N 
ATOM      2  HN  UNK N   1      25.650  17.046   3.842  1.00  0.00     0.169 HD
HETATM    3  C   UNK N   1      27.131  15.617   3.324  0.00  0.00     0.135 A 
HETATM    4  N   UNK N   1      28.449  15.510   3.576  0.00  0.00    -0.276 N 
ATOM      5  HN  UNK N   1      29.069  14.766   3.255  1.00  0.00     0.189 HD
HETATM    6  N   UNK N   1      28.790  16.553   4.318  0.00  0.00    -0.237 N 
HETATM    7  C   UNK N   1      27.656  17.310   4.499  0.00  0.00     0.142 A 
ENDROOT
BRANCH   6   8
HETATM    8  C   UNK N   1      30.146  16.694   4.812  0.00  0.00     0.058 A 
HETATM    9  C   UNK N   1      30.472  16.252   6.108  0.00  0.00     0.032 A 
HETATM   10  C   UNK N   1      31.775  16.397   6.603  0.00  0.00     0.020 A 
HETATM   11  C   UNK N   1      32.764  17.007   5.816  0.00  0.00     0.037 A 
HETATM   12  C   UNK N   1      32.430  17.478   4.546  0.00  0.00     0.020 A 
HETATM   13  C   UNK N   1      31.136  17.327   4.062  0.00  0.00     0.032 A 
BRANCH  11  14
HETATM   14  C   UNK N   1      34.147  17.149   6.305  0.00  0.00     0.176 C 
HETATM   15  O   UNK N   1      34.476  18.142   6.937  0.00  0.00    -0.646 OA
BRANCH  14  16
HETATM   16  O   UNK N   1      35.060  16.192   6.051  0.00  0.00    -0.773 OA
HETATM   17  H   UNK N   1      35.940  16.251   6.368  0.00  0.00     0.167 HD
ENDBRANCH  14  16
ENDBRANCH  11  14
ENDBRANCH   6   8
BRANCH   7  18
HETATM   18  C   UNK N   1      27.460  18.623   5.211  0.00  0.00     0.043 A 
HETATM   19  C   UNK N   1      27.863  18.819   6.537  0.00  0.00     0.018 A 
HETATM   20  C   UNK N   1      27.678  20.038   7.188  0.00  0.00     0.001 A 
HETATM   21  C   UNK N   1      27.091  21.104   6.513  0.00  0.00     0.003 A 
HETATM   22  C   UNK N   1      26.703  20.950   5.184  0.00  0.00     0.037 A 
HETATM   23  C   UNK N   1      26.884  19.730   4.528  0.00  0.00     0.079 A 
BRANCH  23  24
HETATM   24  O   UNK N   1      26.492  19.634   3.246  0.00  0.00    -0.360 OA
HETATM   25  H   UNK N   1      25.903  18.960   2.968  0.00  0.00     0.217 HD
ENDBRANCH  23  24
ENDBRANCH   7  18
BRANCH   3  26
HETATM   26  C   UNK N   1      26.312  14.660   2.556  0.00  0.00     0.042 A 
HETATM   27  C   UNK N   1      25.178  15.151   1.887  0.00  0.00     0.018 A 
HETATM   28  C   UNK N   1      24.366  14.298   1.143  0.00  0.00     0.001 A 
HETATM   29  C   UNK N   1      24.675  12.940   1.059  0.00  0.00     0.003 A 
HETATM   30  C   UNK N   1      25.796  12.436   1.725  0.00  0.00     0.037 A 
HETATM   31  C   UNK N   1      26.617  13.286   2.475  0.00  0.00     0.079 A 
BRANCH  31  32
HETATM   32  O   UNK N   1      27.685  12.774   3.110  0.00  0.00    -0.360 OA
HETATM   33  H   UNK N   1      27.573  12.079   3.728  0.00  0.00     0.217 HD
ENDBRANCH  31  32
ENDBRANCH   3  26
TORSDOF 7
ENDMDL
MODEL 9
REMARK VINA RESULT:      -7.2     11.698     13.925
REMARK  7 active torsions:
REMARK  status: ('A' for Active; 'I' for Inactive)
REMARK    1  A    between atoms: C_3  and  C_17 
REMARK    2  A    between atoms: N_6  and  C_8 
REMARK    3  A    between atoms: C_7  and  C_24 
REMARK    4  A    between atoms: C_11  and  C_14 
REMARK    5  A    between atoms: C_14  and  O_16 
REMARK    6  A    between atoms: C_22  and  O_23 
REMARK    7  A    between atoms: C_29  and  O_30 
ROOT
HETATM    1  N   UNK N   1      36.982  13.255  13.219  0.00  0.00    -0.325 N 
ATOM      2  HN  UNK N   1      37.865  13.717  13.435  1.00  0.00     0.169 HD
HETATM    3  C   UNK N   1      35.920  13.103  14.022  0.00  0.00     0.135 A 
HETATM    4  N   UNK N   1      34.925  12.444  13.399  0.00  0.00    -0.276 N 
ATOM      5  HN  UNK N   1      34.012  12.214  13.792  1.00  0.00     0.189 HD
HETATM    6  N   UNK N   1      35.355  12.150  12.181  0.00  0.00    -0.237 N 
HETATM    7  C   UNK N   1      36.627  12.661  12.066  0.00  0.00     0.142 A 
ENDROOT
BRANCH   6   8
HETATM    8  C   UNK N   1      34.528  11.378  11.274  0.00  0.00     0.058 A 
HETATM    9  C   UNK N   1      33.962  10.163  11.702  0.00  0.00     0.032 A 
HETATM   10  C   UNK N   1      33.174   9.398  10.830  0.00  0.00     0.020 A 
HETATM   11  C   UNK N   1      32.960   9.831   9.512  0.00  0.00     0.037 A 
HETATM   12  C   UNK N   1      33.553  11.017   9.079  0.00  0.00     0.020 A 
HETATM   13  C   UNK N   1      34.330  11.770   9.951  0.00  0.00     0.032 A 
BRANCH  11  14
HETATM   14  C   UNK N   1      32.116   9.058   8.584  0.00  0.00     0.176 C 
HETATM   15  O   UNK N   1      32.629   8.328   7.748  0.00  0.00    -0.646 OA
BRANCH  14  16
HETATM   16  O   UNK N   1      30.774   9.156   8.642  0.00  0.00    -0.773 OA
HETATM   17  H   UNK N   1      30.232   8.418   8.840  0.00  0.00     0.167 HD
ENDBRANCH  14  16
ENDBRANCH  11  14
ENDBRANCH   6   8
BRANCH   7  18
HETATM   18  C   UNK N   1      37.574  12.670  10.894  0.00  0.00     0.043 A 
HETATM   19  C   UNK N   1      38.175  11.502  10.413  0.00  0.00     0.018 A 
HETATM   20  C   UNK N   1      39.051  11.521   9.328  0.00  0.00     0.001 A 
HETATM   21  C   UNK N   1      39.335  12.721   8.685  0.00  0.00     0.003 A 
HETATM   22  C   UNK N   1      38.733  13.899   9.122  0.00  0.00     0.037 A 
HETATM   23  C   UNK N   1      37.857  13.886  10.210  0.00  0.00     0.079 A 
BRANCH  23  24
HETATM   24  O   UNK N   1      37.302  15.049  10.593  0.00  0.00    -0.360 OA
HETATM   25  H   UNK N   1      37.631  15.523  11.331  0.00  0.00     0.217 HD
ENDBRANCH  23  24
ENDBRANCH   7  18
BRANCH   3  26
HETATM   26  C   UNK N   1      35.899  13.600  15.411  0.00  0.00     0.042 A 
HETATM   27  C   UNK N   1      34.991  13.012  16.307  0.00  0.00     0.018 A 
HETATM   28  C   UNK N   1      34.924  13.434  17.633  0.00  0.00     0.001 A 
HETATM   29  C   UNK N   1      35.763  14.454  18.081  0.00  0.00     0.003 A 
HETATM   30  C   UNK N   1      36.668  15.053  17.200  0.00  0.00     0.037 A 
HETATM   31  C   UNK N   1      36.741  14.634  15.866  0.00  0.00     0.079 A 
BRANCH  31  32
HETATM   32  O   UNK N   1      37.614  15.232  15.038  0.00  0.00    -0.360 OA
HETATM   33  H   UNK N   1      38.189  14.714  14.509  0.00  0.00     0.217 HD
ENDBRANCH  31  32
ENDBRANCH   3  26
TORSDOF 7
ENDMDL
