MODEL 1
REMARK VINA RESULT:      -4.8      0.000      0.000
REMARK  0 active torsions:
REMARK  status: ('A' for Active; 'I' for Inactive)
ROOT
HETATM    1  C   UNK N   1      28.617  27.446  -4.460  0.00  0.00     0.016 C 
HETATM    2  C   UNK N   1      27.956  26.041  -6.385  0.00  0.00     0.016 C 
HETATM    3  C   UNK N   1      26.982  24.843  -3.579  0.00  0.00     0.024 C 
HETATM    4  C   UNK N   1      25.215  27.008  -6.147  0.00  0.00     0.007 C 
HETATM    5  C   UNK N   1      25.280  25.753  -5.254  0.00  0.00     0.018 C 
HETATM    6  C   UNK N   1      25.847  28.437  -4.222  0.00  0.00     0.084 C 
HETATM    7  C   UNK N   1      26.345  27.889  -5.583  0.00  0.00     0.001 C 
HETATM    8  C   UNK N   1      25.972  27.184  -3.429  0.00  0.00     0.136 C 
HETATM    9  C   UNK N   1      27.412  26.844  -5.197  0.00  0.00    -0.029 C 
HETATM   10  C   UNK N   1      26.443  26.068  -4.303  0.00  0.00     0.024 C 
HETATM   11  O   UNK N   1      25.917  27.143  -2.209  0.00  0.00    -0.297 OA
ENDROOT
TORSDOF 0
ENDMDL
MODEL 2
REMARK VINA RESULT:      -4.8      1.485      2.532
REMARK  0 active torsions:
REMARK  status: ('A' for Active; 'I' for Inactive)
ROOT
HETATM    1  C   UNK N   1      26.662  26.624  -6.897  0.00  0.00     0.016 C 
HETATM    2  C   UNK N   1      24.560  27.181  -5.720  0.00  0.00     0.016 C 
HETATM    3  C   UNK N   1      26.320  25.008  -4.160  0.00  0.00     0.024 C 
HETATM    4  C   UNK N   1      26.062  28.776  -3.795  0.00  0.00     0.007 C 
HETATM    5  C   UNK N   1      26.020  27.356  -3.198  0.00  0.00     0.018 C 
HETATM    6  C   UNK N   1      28.186  28.248  -4.959  0.00  0.00     0.084 C 
HETATM    7  C   UNK N   1      26.682  28.545  -5.186  0.00  0.00     0.001 C 
HETATM    8  C   UNK N   1      28.051  26.867  -4.420  0.00  0.00     0.136 C 
HETATM    9  C   UNK N   1      26.087  27.180  -5.587  0.00  0.00    -0.029 C 
HETATM   10  C   UNK N   1      26.609  26.493  -4.323  0.00  0.00     0.024 C 
HETATM   11  O   UNK N   1      28.987  26.090  -4.297  0.00  0.00    -0.297 OA
ENDROOT
TORSDOF 0
ENDMDL
MODEL 3
REMARK VINA RESULT:      -4.8      1.782      2.823
REMARK  0 active torsions:
REMARK  status: ('A' for Active; 'I' for Inactive)
ROOT
HETATM    1  C   UNK N   1      28.344  26.027  -6.140  0.00  0.00     0.016 C 
HETATM    2  C   UNK N   1      27.424  28.313  -6.345  0.00  0.00     0.016 C 
HETATM    3  C   UNK N   1      25.612  26.109  -7.799  0.00  0.00     0.024 C 
HETATM    4  C   UNK N   1      25.396  27.674  -4.349  0.00  0.00     0.007 C 
HETATM    5  C   UNK N   1      24.763  27.298  -5.703  0.00  0.00     0.018 C 
HETATM    6  C   UNK N   1      26.301  25.379  -4.110  0.00  0.00     0.084 C 
HETATM    7  C   UNK N   1      26.702  26.858  -4.342  0.00  0.00     0.001 C 
HETATM    8  C   UNK N   1      25.737  25.097  -5.458  0.00  0.00     0.136 C 
HETATM    9  C   UNK N   1      27.123  26.902  -5.826  0.00  0.00    -0.029 C 
HETATM   10  C   UNK N   1      25.788  26.327  -6.304  0.00  0.00     0.024 C 
HETATM   11  O   UNK N   1      25.488  23.973  -5.870  0.00  0.00    -0.297 OA
ENDROOT
TORSDOF 0
ENDMDL
MODEL 4
REMARK VINA RESULT:      -4.7     24.577     26.124
REMARK  0 active torsions:
REMARK  status: ('A' for Active; 'I' for Inactive)
ROOT
HETATM    1  C   UNK N   1      34.728  13.142  16.444  0.00  0.00     0.016 C 
HETATM    2  C   UNK N   1      35.889  10.999  16.861  0.00  0.00     0.016 C 
HETATM    3  C   UNK N   1      33.877  10.860  14.373  0.00  0.00     0.024 C 
HETATM    4  C   UNK N   1      37.615  11.488  14.561  0.00  0.00     0.007 C 
HETATM    5  C   UNK N   1      36.401  10.721  14.000  0.00  0.00     0.018 C 
HETATM    6  C   UNK N   1      36.480  13.648  14.122  0.00  0.00     0.084 C 
HETATM    7  C   UNK N   1      36.964  12.702  15.251  0.00  0.00     0.001 C 
HETATM    8  C   UNK N   1      35.307  12.854  13.667  0.00  0.00     0.136 C 
HETATM    9  C   UNK N   1      35.663  12.098  15.816  0.00  0.00    -0.029 C 
HETATM   10  C   UNK N   1      35.213  11.584  14.447  0.00  0.00     0.024 C 
HETATM   11  O   UNK N   1      34.435  13.290  12.931  0.00  0.00    -0.297 OA
ENDROOT
TORSDOF 0
ENDMDL
MODEL 5
REMARK VINA RESULT:      -4.6     15.737     17.769
REMARK  0 active torsions:
REMARK  status: ('A' for Active; 'I' for Inactive)
ROOT
HETATM    1  C   UNK N   1      31.749  17.526   8.394  0.00  0.00     0.016 C 
HETATM    2  C   UNK N   1      31.816  15.330   7.259  0.00  0.00     0.016 C 
HETATM    3  C   UNK N   1      33.518  17.571   5.731  0.00  0.00     0.024 C 
HETATM    4  C   UNK N   1      34.531  14.908   8.237  0.00  0.00     0.007 C 
HETATM    5  C   UNK N   1      34.696  15.616   6.878  0.00  0.00     0.018 C 
HETATM    6  C   UNK N   1      34.492  17.099   9.397  0.00  0.00     0.084 C 
HETATM    7  C   UNK N   1      33.621  15.875   9.018  0.00  0.00     0.001 C 
HETATM    8  C   UNK N   1      34.572  17.728   8.052  0.00  0.00     0.136 C 
HETATM    9  C   UNK N   1      32.686  16.409   7.913  0.00  0.00    -0.029 C 
HETATM   10  C   UNK N   1      33.854  16.887   7.048  0.00  0.00     0.024 C 
HETATM   11  O   UNK N   1      34.967  18.868   7.856  0.00  0.00    -0.297 OA
ENDROOT
TORSDOF 0
ENDMDL
MODEL 6
REMARK VINA RESULT:      -4.5     15.569     17.604
REMARK  0 active torsions:
REMARK  status: ('A' for Active; 'I' for Inactive)
ROOT
HETATM    1  C   UNK N   1      34.449  18.320   8.177  0.00  0.00     0.016 C 
HETATM    2  C   UNK N   1      32.005  18.003   8.381  0.00  0.00     0.016 C 
HETATM    3  C   UNK N   1      33.093  17.413   5.428  0.00  0.00     0.024 C 
HETATM    4  C   UNK N   1      32.380  15.111   8.359  0.00  0.00     0.007 C 
HETATM    5  C   UNK N   1      32.205  15.507   6.880  0.00  0.00     0.018 C 
HETATM    6  C   UNK N   1      34.835  15.393   8.167  0.00  0.00     0.084 C 
HETATM    7  C   UNK N   1      33.559  15.991   8.813  0.00  0.00     0.001 C 
HETATM    8  C   UNK N   1      34.598  15.845   6.769  0.00  0.00     0.136 C 
HETATM    9  C   UNK N   1      33.317  17.294   8.024  0.00  0.00    -0.029 C 
HETATM   10  C   UNK N   1      33.295  16.568   6.677  0.00  0.00     0.024 C 
HETATM   11  O   UNK N   1      35.451  15.823   5.894  0.00  0.00    -0.297 OA
ENDROOT
TORSDOF 0
ENDMDL
MODEL 7
REMARK VINA RESULT:      -4.5     24.727     26.179
REMARK  0 active torsions:
REMARK  status: ('A' for Active; 'I' for Inactive)
ROOT
HETATM    1  C   UNK N   1      36.350  10.727  16.509  0.00  0.00     0.016 C 
HETATM    2  C   UNK N   1      36.764   9.976  14.190  0.00  0.00     0.016 C 
HETATM    3  C   UNK N   1      33.725  10.854  14.689  0.00  0.00     0.024 C 
HETATM    4  C   UNK N   1      36.697  12.747  13.282  0.00  0.00     0.007 C 
HETATM    5  C   UNK N   1      35.241  12.254  13.182  0.00  0.00     0.018 C 
HETATM    6  C   UNK N   1      36.294  13.535  15.597  0.00  0.00     0.084 C 
HETATM    7  C   UNK N   1      37.051  12.476  14.756  0.00  0.00     0.001 C 
HETATM    8  C   UNK N   1      34.925  12.968  15.472  0.00  0.00     0.136 C 
HETATM    9  C   UNK N   1      36.292  11.163  15.038  0.00  0.00    -0.029 C 
HETATM   10  C   UNK N   1      34.949  11.753  14.603  0.00  0.00     0.024 C 
HETATM   11  O   UNK N   1      33.978  13.316  16.163  0.00  0.00    -0.297 OA
ENDROOT
TORSDOF 0
ENDMDL
MODEL 8
REMARK VINA RESULT:      -4.5     25.483     26.879
REMARK  0 active torsions:
REMARK  status: ('A' for Active; 'I' for Inactive)
ROOT
HETATM    1  C   UNK N   1      36.532  10.189  13.368  0.00  0.00     0.016 C 
HETATM    2  C   UNK N   1      37.408   9.713  15.631  0.00  0.00     0.016 C 
HETATM    3  C   UNK N   1      37.019  12.844  15.082  0.00  0.00     0.024 C 
HETATM    4  C   UNK N   1      34.782  10.282  16.765  0.00  0.00     0.007 C 
HETATM    5  C   UNK N   1      35.523  11.633  16.763  0.00  0.00     0.018 C 
HETATM    6  C   UNK N   1      33.869  10.754  14.510  0.00  0.00     0.084 C 
HETATM    7  C   UNK N   1      34.855   9.848  15.289  0.00  0.00     0.001 C 
HETATM    8  C   UNK N   1      34.670  12.008  14.530  0.00  0.00     0.136 C 
HETATM    9  C   UNK N   1      36.247  10.361  14.867  0.00  0.00    -0.029 C 
HETATM   10  C   UNK N   1      35.935  11.797  15.294  0.00  0.00     0.024 C 
HETATM   11  O   UNK N   1      34.427  12.982  13.833  0.00  0.00    -0.297 OA
ENDROOT
TORSDOF 0
ENDMDL
MODEL 9
REMARK VINA RESULT:      -4.3     16.462     17.631
REMARK  0 active torsions:
REMARK  status: ('A' for Active; 'I' for Inactive)
ROOT
HETATM    1  C   UNK N   1      31.263  16.298   6.740  0.00  0.00     0.016 C 
HETATM    2  C   UNK N   1      31.428  17.979   8.546  0.00  0.00     0.016 C 
HETATM    3  C   UNK N   1      32.616  15.127   9.389  0.00  0.00     0.024 C 
HETATM    4  C   UNK N   1      34.285  18.252   8.030  0.00  0.00     0.007 C 
HETATM    5  C   UNK N   1      34.170  17.132   9.083  0.00  0.00     0.018 C 
HETATM    6  C   UNK N   1      34.153  16.580   6.205  0.00  0.00     0.084 C 
HETATM    7  C   UNK N   1      33.388  17.742   6.887  0.00  0.00     0.001 C 
HETATM    8  C   UNK N   1      33.964  15.551   7.263  0.00  0.00     0.136 C 
HETATM    9  C   UNK N   1      32.248  17.040   7.654  0.00  0.00    -0.029 C 
HETATM   10  C   UNK N   1      33.215  16.131   8.417  0.00  0.00     0.024 C 
HETATM   11  O   UNK N   1      34.190  14.360   7.102  0.00  0.00    -0.297 OA
ENDROOT
TORSDOF 0
ENDMDL
