MODEL 1
REMARK VINA RESULT:      -1.2      0.000      0.000
REMARK  5 active torsions:
REMARK  status: ('A' for Active; 'I' for Inactive)
REMARK    1  A    between atoms: C_4  and  O_10 
REMARK    2  A    between atoms: C_5  and  C_7 
REMARK    3  A    between atoms: C_14  and  O_20 
REMARK    4  A    between atoms: C_15  and  C_17 
REMARK    5  A    between atoms: Mg_21  and  Mg_21 
ROOT
HETATM    1 Mg   UNK N   1      39.964  21.073  13.075  0.00  0.00     0.000 Mg
ENDROOT
TORSDOF 5
ENDMDL
MODEL 2
REMARK VINA RESULT:      -1.2      4.352      4.352
REMARK  5 active torsions:
REMARK  status: ('A' for Active; 'I' for Inactive)
REMARK    1  A    between atoms: C_4  and  O_10 
REMARK    2  A    between atoms: C_5  and  C_7 
REMARK    3  A    between atoms: C_14  and  O_20 
REMARK    4  A    between atoms: C_15  and  C_17 
REMARK    5  A    between atoms: Mg_21  and  Mg_21 
ROOT
HETATM    1 Mg   UNK N   1      35.636  21.382  12.738  0.00  0.00     0.000 Mg
ENDROOT
TORSDOF 5
ENDMDL
MODEL 3
REMARK VINA RESULT:      -1.2     26.829     26.829
REMARK  5 active torsions:
REMARK  status: ('A' for Active; 'I' for Inactive)
REMARK    1  A    between atoms: C_4  and  O_10 
REMARK    2  A    between atoms: C_5  and  C_7 
REMARK    3  A    between atoms: C_14  and  O_20 
REMARK    4  A    between atoms: C_15  and  C_17 
REMARK    5  A    between atoms: Mg_21  and  Mg_21 
ROOT
HETATM    1 Mg   UNK N   1      21.453  21.778  -6.332  0.00  0.00     0.000 Mg
ENDROOT
TORSDOF 5
ENDMDL
MODEL 4
REMARK VINA RESULT:      -1.1      9.592      9.592
REMARK  5 active torsions:
REMARK  status: ('A' for Active; 'I' for Inactive)
REMARK    1  A    between atoms: C_4  and  O_10 
REMARK    2  A    between atoms: C_5  and  C_7 
REMARK    3  A    between atoms: C_14  and  O_20 
REMARK    4  A    between atoms: C_15  and  C_17 
REMARK    5  A    between atoms: Mg_21  and  Mg_21 
ROOT
HETATM    1 Mg   UNK N   1      43.320  25.304   5.147  0.00  0.00     0.000 Mg
ENDROOT
TORSDOF 5
ENDMDL
MODEL 5
REMARK VINA RESULT:      -1.1     21.796     21.796
REMARK  5 active torsions:
REMARK  status: ('A' for Active; 'I' for Inactive)
REMARK    1  A    between atoms: C_4  and  O_10 
REMARK    2  A    between atoms: C_5  and  C_7 
REMARK    3  A    between atoms: C_14  and  O_20 
REMARK    4  A    between atoms: C_15  and  C_17 
REMARK    5  A    between atoms: Mg_21  and  Mg_21 
ROOT
HETATM    1 Mg   UNK N   1      21.680  31.037  19.515  0.00  0.00     0.000 Mg
ENDROOT
TORSDOF 5
ENDMDL
MODEL 6
REMARK VINA RESULT:      -1.1      8.409      8.409
REMARK  5 active torsions:
REMARK  status: ('A' for Active; 'I' for Inactive)
REMARK    1  A    between atoms: C_4  and  O_10 
REMARK    2  A    between atoms: C_5  and  C_7 
REMARK    3  A    between atoms: C_14  and  O_20 
REMARK    4  A    between atoms: C_15  and  C_17 
REMARK    5  A    between atoms: Mg_21  and  Mg_21 
ROOT
HETATM    1 Mg   UNK N   1      36.350  28.123  15.895  0.00  0.00     0.000 Mg
ENDROOT
TORSDOF 5
ENDMDL
MODEL 7
REMARK VINA RESULT:      -0.9      4.910      4.910
REMARK  5 active torsions:
REMARK  status: ('A' for Active; 'I' for Inactive)
REMARK    1  A    between atoms: C_4  and  O_10 
REMARK    2  A    between atoms: C_5  and  C_7 
REMARK    3  A    between atoms: C_14  and  O_20 
REMARK    4  A    between atoms: C_15  and  C_17 
REMARK    5  A    between atoms: Mg_21  and  Mg_21 
ROOT
HETATM    1 Mg   UNK N   1      36.345  19.944   9.954  0.00  0.00     0.000 Mg
ENDROOT
TORSDOF 5
ENDMDL
MODEL 8
REMARK VINA RESULT:      -0.9     24.007     24.007
REMARK  5 active torsions:
REMARK  status: ('A' for Active; 'I' for Inactive)
REMARK    1  A    between atoms: C_4  and  O_10 
REMARK    2  A    between atoms: C_5  and  C_7 
REMARK    3  A    between atoms: C_14  and  O_20 
REMARK    4  A    between atoms: C_15  and  C_17 
REMARK    5  A    between atoms: Mg_21  and  Mg_21 
ROOT
HETATM    1 Mg   UNK N   1      20.033  20.938  -0.308  0.00  0.00     0.000 Mg
ENDROOT
TORSDOF 5
ENDMDL
MODEL 9
REMARK VINA RESULT:      -0.9     10.548     10.548
REMARK  5 active torsions:
REMARK  status: ('A' for Active; 'I' for Inactive)
REMARK    1  A    between atoms: C_4  and  O_10 
REMARK    2  A    between atoms: C_5  and  C_7 
REMARK    3  A    between atoms: C_14  and  O_20 
REMARK    4  A    between atoms: C_15  and  C_17 
REMARK    5  A    between atoms: Mg_21  and  Mg_21 
ROOT
HETATM    1 Mg   UNK N   1      46.993  19.478  20.776  0.00  0.00     0.000 Mg
ENDROOT
TORSDOF 5
ENDMDL
