MODEL 1
REMARK VINA RESULT:      -6.9      0.000      0.000
REMARK  5 active torsions:
REMARK  status: ('A' for Active; 'I' for Inactive)
REMARK    1  A    between atoms: C_6  and  N_26 
REMARK    2  A    between atoms: C_7  and  O_11 
REMARK    3  A    between atoms: C_8  and  O_12 
REMARK    4  A    between atoms: C_9  and  O_13 
REMARK    5  A    between atoms: C_17  and  O_24 
REMARK       I    between atoms: N_26  and  C_27 
ROOT
HETATM    1  C   UNK N   1      25.468  14.124   7.937  0.00  0.00     0.042 C 
HETATM    2  C   UNK N   1      25.273  14.948   6.746  0.00  0.00    -0.041 A 
HETATM    3  C   UNK N   1      24.026  15.537   6.391  0.00  0.00     0.017 A 
HETATM    4  C   UNK N   1      24.620  12.920   7.734  0.00  0.00     0.034 C 
HETATM    5  C   UNK N   1      22.459  14.298   8.188  0.00  0.00    -0.020 A 
HETATM    6  C   UNK N   1      23.372  13.131   8.530  0.00  0.00     0.119 C 
HETATM    7  C   UNK N   1      24.019  16.344   5.184  0.00  0.00     0.116 A 
HETATM    8  C   UNK N   1      25.216  16.525   4.418  0.00  0.00     0.136 A 
HETATM    9  C   UNK N   1      26.388  15.883   4.805  0.00  0.00     0.104 A 
HETATM   10  C   UNK N   1      26.404  15.115   5.959  0.00  0.00     0.047 A 
HETATM   11  C   UNK N   1      22.724  15.349   7.225  0.00  0.00    -0.014 A 
HETATM   12  C   UNK N   1      21.747  16.312   6.956  0.00  0.00     0.016 A 
HETATM   13  C   UNK N   1      20.452  16.570   7.363  0.00  0.00     0.042 A 
HETATM   14  C   UNK N   1      19.636  15.912   8.270  0.00  0.00     0.118 A 
HETATM   15  C   UNK N   1      20.032  14.797   8.999  0.00  0.00     0.205 A 
HETATM   16  C   UNK N   1      21.261  14.162   8.900  0.00  0.00     0.068 A 
HETATM   17  O   UNK N   1      19.232  14.316   9.781  0.00  0.00    -0.285 OA
ENDROOT
BRANCH   6  18
HETATM   18  N   UNK N   1      23.689  13.099   9.944  0.00  0.00    -0.353 N 
HETATM   19  C   UNK N   1      23.379  12.033  10.720  0.00  0.00     0.214 C 
HETATM   20  C   UNK N   1      23.765  12.033  12.158  0.00  0.00     0.117 C 
HETATM   21  O   UNK N   1      22.791  11.069  10.252  0.00  0.00    -0.274 OA
HETATM   22  H   UNK N   1      24.140  13.873  10.351  0.00  0.00     0.163 HD
ENDBRANCH   6  18
BRANCH  14  23
HETATM   23  O   UNK N   1      18.368  16.366   8.464  0.00  0.00    -0.352 OA
HETATM   24  C   UNK N   1      18.054  17.478   9.215  0.00  0.00     0.210 C 
ENDBRANCH  14  23
BRANCH   7  25
HETATM   25  O   UNK N   1      22.859  16.898   4.758  0.00  0.00    -0.352 OA
HETATM   26  C   UNK N   1      22.212  16.468   3.621  0.00  0.00     0.210 C 
ENDBRANCH   7  25
BRANCH   9  27
HETATM   27  O   UNK N   1      27.506  16.029   4.050  0.00  0.00    -0.353 OA
HETATM   28  C   UNK N   1      28.564  16.837   4.406  0.00  0.00     0.210 C 
ENDBRANCH   9  27
BRANCH   8  29
HETATM   29  O   UNK N   1      25.288  17.313   3.310  0.00  0.00    -0.351 OA
HETATM   30  C   UNK N   1      25.450  18.679   3.308  0.00  0.00     0.210 C 
ENDBRANCH   8  29
TORSDOF 5
ENDMDL
MODEL 2
REMARK VINA RESULT:      -6.7      7.090     11.307
REMARK  5 active torsions:
REMARK  status: ('A' for Active; 'I' for Inactive)
REMARK    1  A    between atoms: C_6  and  N_26 
REMARK    2  A    between atoms: C_7  and  O_11 
REMARK    3  A    between atoms: C_8  and  O_12 
REMARK    4  A    between atoms: C_9  and  O_13 
REMARK    5  A    between atoms: C_17  and  O_24 
REMARK       I    between atoms: N_26  and  C_27 
ROOT
HETATM    1  C   UNK N   1      31.668  16.946   8.519  0.00  0.00     0.042 C 
HETATM    2  C   UNK N   1      31.011  17.006   7.215  0.00  0.00    -0.041 A 
HETATM    3  C   UNK N   1      31.590  16.496   6.017  0.00  0.00     0.017 A 
HETATM    4  C   UNK N   1      32.883  17.793   8.395  0.00  0.00     0.034 C 
HETATM    5  C   UNK N   1      34.062  15.987   6.939  0.00  0.00    -0.020 A 
HETATM    6  C   UNK N   1      34.036  16.867   8.179  0.00  0.00     0.119 C 
HETATM    7  C   UNK N   1      30.788  16.621   4.814  0.00  0.00     0.116 A 
HETATM    8  C   UNK N   1      29.487  17.221   4.861  0.00  0.00     0.136 A 
HETATM    9  C   UNK N   1      29.005  17.734   6.061  0.00  0.00     0.104 A 
HETATM   10  C   UNK N   1      29.764  17.614   7.215  0.00  0.00     0.047 A 
HETATM   11  C   UNK N   1      33.001  15.838   5.963  0.00  0.00    -0.014 A 
HETATM   12  C   UNK N   1      33.205  15.053   4.824  0.00  0.00     0.016 A 
HETATM   13  C   UNK N   1      34.242  14.319   4.283  0.00  0.00     0.042 A 
HETATM   14  C   UNK N   1      35.526  14.081   4.748  0.00  0.00     0.118 A 
HETATM   15  C   UNK N   1      36.015  14.569   5.954  0.00  0.00     0.205 A 
HETATM   16  C   UNK N   1      35.323  15.386   6.835  0.00  0.00     0.068 A 
HETATM   17  O   UNK N   1      37.156  14.276   6.265  0.00  0.00    -0.285 OA
ENDROOT
BRANCH   6  18
HETATM   18  N   UNK N   1      34.270  16.097   9.384  0.00  0.00    -0.353 N 
HETATM   19  C   UNK N   1      35.105  16.533  10.359  0.00  0.00     0.214 C 
HETATM   20  C   UNK N   1      35.278  15.724  11.596  0.00  0.00     0.117 C 
HETATM   21  O   UNK N   1      35.713  17.586  10.235  0.00  0.00    -0.274 OA
HETATM   22  H   UNK N   1      33.812  15.234   9.498  0.00  0.00     0.163 HD
ENDBRANCH   6  18
BRANCH  14  23
HETATM   23  O   UNK N   1      36.373  13.334   3.989  0.00  0.00    -0.352 OA
HETATM   24  C   UNK N   1      36.150  13.024   2.664  0.00  0.00     0.210 C 
ENDBRANCH  14  23
BRANCH   7  25
HETATM   25  O   UNK N   1      31.291  16.202   3.629  0.00  0.00    -0.352 OA
HETATM   26  C   UNK N   1      31.827  17.074   2.707  0.00  0.00     0.210 C 
ENDBRANCH   7  25
BRANCH   9  27
HETATM   27  O   UNK N   1      27.789  18.335   6.086  0.00  0.00    -0.353 OA
HETATM   28  C   UNK N   1      27.610  19.679   6.330  0.00  0.00     0.210 C 
ENDBRANCH   9  27
BRANCH   8  29
HETATM   29  O   UNK N   1      28.664  17.318   3.781  0.00  0.00    -0.351 OA
HETATM   30  C   UNK N   1      27.870  16.308   3.286  0.00  0.00     0.210 C 
ENDBRANCH   8  29
TORSDOF 5
ENDMDL
MODEL 3
REMARK VINA RESULT:      -6.5      2.375      6.730
REMARK  5 active torsions:
REMARK  status: ('A' for Active; 'I' for Inactive)
REMARK    1  A    between atoms: C_6  and  N_26 
REMARK    2  A    between atoms: C_7  and  O_11 
REMARK    3  A    between atoms: C_8  and  O_12 
REMARK    4  A    between atoms: C_9  and  O_13 
REMARK    5  A    between atoms: C_17  and  O_24 
REMARK       I    between atoms: N_26  and  C_27 
ROOT
HETATM    1  C   UNK N   1      25.407  14.686   5.807  0.00  0.00     0.042 C 
HETATM    2  C   UNK N   1      24.056  14.712   6.365  0.00  0.00    -0.041 A 
HETATM    3  C   UNK N   1      23.122  15.758   6.115  0.00  0.00     0.017 A 
HETATM    4  C   UNK N   1      26.107  15.856   6.399  0.00  0.00     0.034 C 
HETATM    5  C   UNK N   1      24.765  17.495   4.889  0.00  0.00    -0.020 A 
HETATM    6  C   UNK N   1      26.096  16.935   5.366  0.00  0.00     0.119 C 
HETATM    7  C   UNK N   1      21.816  15.611   6.733  0.00  0.00     0.116 A 
HETATM    8  C   UNK N   1      21.512  14.465   7.537  0.00  0.00     0.136 A 
HETATM    9  C   UNK N   1      22.491  13.504   7.771  0.00  0.00     0.104 A 
HETATM   10  C   UNK N   1      23.738  13.635   7.180  0.00  0.00     0.047 A 
HETATM   11  C   UNK N   1      23.446  17.002   5.236  0.00  0.00    -0.014 A 
HETATM   12  C   UNK N   1      22.307  17.676   4.784  0.00  0.00     0.016 A 
HETATM   13  C   UNK N   1      22.040  18.813   4.046  0.00  0.00     0.042 A 
HETATM   14  C   UNK N   1      22.891  19.722   3.438  0.00  0.00     0.118 A 
HETATM   15  C   UNK N   1      24.276  19.617   3.456  0.00  0.00     0.205 A 
HETATM   16  C   UNK N   1      25.003  18.632   4.107  0.00  0.00     0.068 A 
HETATM   17  O   UNK N   1      24.919  20.470   2.869  0.00  0.00    -0.285 OA
ENDROOT
BRANCH   6  18
HETATM   18  N   UNK N   1      26.941  16.550   4.254  0.00  0.00    -0.353 N 
HETATM   19  C   UNK N   1      28.228  16.962   4.160  0.00  0.00     0.214 C 
HETATM   20  C   UNK N   1      29.067  16.503   3.019  0.00  0.00     0.117 C 
HETATM   21  O   UNK N   1      28.710  17.703   5.004  0.00  0.00    -0.274 OA
HETATM   22  H   UNK N   1      26.570  15.974   3.548  0.00  0.00     0.163 HD
ENDBRANCH   6  18
BRANCH  14  23
HETATM   23  O   UNK N   1      22.355  20.791   2.788  0.00  0.00    -0.352 OA
HETATM   24  C   UNK N   1      21.049  20.851   2.349  0.00  0.00     0.210 C 
ENDBRANCH  14  23
BRANCH   7  25
HETATM   25  O   UNK N   1      20.891  16.588   6.579  0.00  0.00    -0.352 OA
HETATM   26  C   UNK N   1      20.550  17.446   7.600  0.00  0.00     0.210 C 
ENDBRANCH   7  25
BRANCH   9  27
HETATM   27  O   UNK N   1      22.205  12.443   8.566  0.00  0.00    -0.353 OA
HETATM   28  C   UNK N   1      22.925  12.124   9.696  0.00  0.00     0.210 C 
ENDBRANCH   9  27
BRANCH   8  29
HETATM   29  O   UNK N   1      20.291  14.242   8.098  0.00  0.00    -0.351 OA
HETATM   30  C   UNK N   1      19.939  14.542   9.393  0.00  0.00     0.210 C 
ENDBRANCH   8  29
TORSDOF 5
ENDMDL
MODEL 4
REMARK VINA RESULT:      -6.3      6.336      9.295
REMARK  5 active torsions:
REMARK  status: ('A' for Active; 'I' for Inactive)
REMARK    1  A    between atoms: C_6  and  N_26 
REMARK    2  A    between atoms: C_7  and  O_11 
REMARK    3  A    between atoms: C_8  and  O_12 
REMARK    4  A    between atoms: C_9  and  O_13 
REMARK    5  A    between atoms: C_17  and  O_24 
REMARK       I    between atoms: N_26  and  C_27 
ROOT
HETATM    1  C   UNK N   1      29.394  16.171   3.484  0.00  0.00     0.042 C 
HETATM    2  C   UNK N   1      28.803  17.166   4.378  0.00  0.00    -0.041 A 
HETATM    3  C   UNK N   1      29.263  17.403   5.705  0.00  0.00     0.017 A 
HETATM    4  C   UNK N   1      29.138  14.855   4.125  0.00  0.00     0.034 C 
HETATM    5  C   UNK N   1      30.947  15.322   5.937  0.00  0.00    -0.020 A 
HETATM    6  C   UNK N   1      30.403  14.455   4.812  0.00  0.00     0.119 C 
HETATM    7  C   UNK N   1      28.573  18.445   6.445  0.00  0.00     0.116 A 
HETATM    8  C   UNK N   1      27.499  19.180   5.844  0.00  0.00     0.136 A 
HETATM    9  C   UNK N   1      27.079  18.863   4.557  0.00  0.00     0.104 A 
HETATM   10  C   UNK N   1      27.735  17.873   3.843  0.00  0.00     0.047 A 
HETATM   11  C   UNK N   1      30.433  16.611   6.359  0.00  0.00    -0.014 A 
HETATM   12  C   UNK N   1      30.988  17.254   7.470  0.00  0.00     0.016 A 
HETATM   13  C   UNK N   1      31.971  16.981   8.401  0.00  0.00     0.042 A 
HETATM   14  C   UNK N   1      32.819  15.893   8.534  0.00  0.00     0.118 A 
HETATM   15  C   UNK N   1      32.835  14.812   7.660  0.00  0.00     0.205 A 
HETATM   16  C   UNK N   1      31.993  14.641   6.572  0.00  0.00     0.068 A 
HETATM   17  O   UNK N   1      33.640  13.922   7.870  0.00  0.00    -0.285 OA
ENDROOT
BRANCH   6  18
HETATM   18  N   UNK N   1      31.421  14.167   3.822  0.00  0.00    -0.353 N 
HETATM   19  C   UNK N   1      31.649  12.907   3.378  0.00  0.00     0.214 C 
HETATM   20  C   UNK N   1      32.678  12.672   2.328  0.00  0.00     0.117 C 
HETATM   21  O   UNK N   1      31.015  11.964   3.826  0.00  0.00    -0.274 OA
HETATM   22  H   UNK N   1      31.962  14.907   3.463  0.00  0.00     0.163 HD
ENDBRANCH   6  18
BRANCH  14  23
HETATM   23  O   UNK N   1      33.689  15.861   9.580  0.00  0.00    -0.352 OA
HETATM   24  C   UNK N   1      34.765  16.713   9.714  0.00  0.00     0.210 C 
ENDBRANCH  14  23
BRANCH   7  25
HETATM   25  O   UNK N   1      28.923  18.696   7.728  0.00  0.00    -0.352 OA
HETATM   26  C   UNK N   1      28.124  18.339   8.792  0.00  0.00     0.210 C 
ENDBRANCH   7  25
BRANCH   9  27
HETATM   27  O   UNK N   1      26.036  19.539   4.013  0.00  0.00    -0.353 OA
HETATM   28  C   UNK N   1      24.772  19.006   3.878  0.00  0.00     0.210 C 
ENDBRANCH   9  27
BRANCH   8  29
HETATM   29  O   UNK N   1      26.850  20.204   6.464  0.00  0.00    -0.351 OA
HETATM   30  C   UNK N   1      27.193  21.534   6.384  0.00  0.00     0.210 C 
ENDBRANCH   8  29
TORSDOF 5
ENDMDL
MODEL 5
REMARK VINA RESULT:      -6.3      6.092      9.424
REMARK  5 active torsions:
REMARK  status: ('A' for Active; 'I' for Inactive)
REMARK    1  A    between atoms: C_6  and  N_26 
REMARK    2  A    between atoms: C_7  and  O_11 
REMARK    3  A    between atoms: C_8  and  O_12 
REMARK    4  A    between atoms: C_9  and  O_13 
REMARK    5  A    between atoms: C_17  and  O_24 
REMARK       I    between atoms: N_26  and  C_27 
ROOT
HETATM    1  C   UNK N   1      30.693  17.531   8.789  0.00  0.00     0.042 C 
HETATM    2  C   UNK N   1      29.769  17.666   7.664  0.00  0.00    -0.041 A 
HETATM    3  C   UNK N   1      29.756  16.783   6.546  0.00  0.00     0.017 A 
HETATM    4  C   UNK N   1      32.049  17.752   8.222  0.00  0.00     0.034 C 
HETATM    5  C   UNK N   1      32.010  15.418   7.072  0.00  0.00    -0.020 A 
HETATM    6  C   UNK N   1      32.663  16.403   8.029  0.00  0.00     0.119 C 
HETATM    7  C   UNK N   1      28.756  17.053   5.529  0.00  0.00     0.116 A 
HETATM    8  C   UNK N   1      27.842  18.148   5.673  0.00  0.00     0.136 A 
HETATM    9  C   UNK N   1      27.944  18.993   6.774  0.00  0.00     0.104 A 
HETATM   10  C   UNK N   1      28.893  18.739   7.751  0.00  0.00     0.047 A 
HETATM   11  C   UNK N   1      30.742  15.588   6.389  0.00  0.00    -0.014 A 
HETATM   12  C   UNK N   1      30.311  14.628   5.469  0.00  0.00     0.016 A 
HETATM   13  C   UNK N   1      30.802  13.450   4.942  0.00  0.00     0.042 A 
HETATM   14  C   UNK N   1      31.979  12.762   5.195  0.00  0.00     0.118 A 
HETATM   15  C   UNK N   1      32.931  13.174   6.120  0.00  0.00     0.205 A 
HETATM   16  C   UNK N   1      32.871  14.331   6.882  0.00  0.00     0.068 A 
HETATM   17  O   UNK N   1      33.919  12.475   6.269  0.00  0.00    -0.285 OA
ENDROOT
BRANCH   6  18
HETATM   18  N   UNK N   1      32.920  15.800   9.321  0.00  0.00    -0.353 N 
HETATM   19  C   UNK N   1      34.179  15.640   9.796  0.00  0.00     0.214 C 
HETATM   20  C   UNK N   1      34.386  15.053  11.149  0.00  0.00     0.117 C 
HETATM   21  O   UNK N   1      35.145  15.978   9.129  0.00  0.00    -0.274 OA
HETATM   22  H   UNK N   1      32.159  15.497   9.868  0.00  0.00     0.163 HD
ENDBRANCH   6  18
BRANCH  14  23
HETATM   23  O   UNK N   1      32.237  11.621   4.501  0.00  0.00    -0.352 OA
HETATM   24  C   UNK N   1      31.440  10.496   4.545  0.00  0.00     0.210 C 
ENDBRANCH  14  23
BRANCH   7  25
HETATM   25  O   UNK N   1      28.713  16.285   4.415  0.00  0.00    -0.352 OA
HETATM   26  C   UNK N   1      29.095  16.759   3.179  0.00  0.00     0.210 C 
ENDBRANCH   7  25
BRANCH   9  27
HETATM   27  O   UNK N   1      27.100  20.050   6.880  0.00  0.00    -0.353 OA
HETATM   28  C   UNK N   1      27.373  21.296   6.360  0.00  0.00     0.210 C 
ENDBRANCH   9  27
BRANCH   8  29
HETATM   29  O   UNK N   1      26.848  18.420   4.783  0.00  0.00    -0.351 OA
HETATM   30  C   UNK N   1      25.622  17.798   4.739  0.00  0.00     0.210 C 
ENDBRANCH   8  29
TORSDOF 5
ENDMDL
MODEL 6
REMARK VINA RESULT:      -6.1     16.655     20.150
REMARK  5 active torsions:
REMARK  status: ('A' for Active; 'I' for Inactive)
REMARK    1  A    between atoms: C_6  and  N_26 
REMARK    2  A    between atoms: C_7  and  O_11 
REMARK    3  A    between atoms: C_8  and  O_12 
REMARK    4  A    between atoms: C_9  and  O_13 
REMARK    5  A    between atoms: C_17  and  O_24 
REMARK       I    between atoms: N_26  and  C_27 
ROOT
HETATM    1  C   UNK N   1      26.227  25.892  -5.397  0.00  0.00     0.042 C 
HETATM    2  C   UNK N   1      26.145  25.334  -6.746  0.00  0.00    -0.041 A 
HETATM    3  C   UNK N   1      26.795  25.907  -7.876  0.00  0.00     0.017 A 
HETATM    4  C   UNK N   1      25.570  27.223  -5.474  0.00  0.00     0.034 C 
HETATM    5  C   UNK N   1      27.602  28.215  -6.762  0.00  0.00    -0.020 A 
HETATM    6  C   UNK N   1      26.661  28.240  -5.567  0.00  0.00     0.119 C 
HETATM    7  C   UNK N   1      26.622  25.208  -9.137  0.00  0.00     0.116 A 
HETATM    8  C   UNK N   1      25.841  24.009  -9.208  0.00  0.00     0.136 A 
HETATM    9  C   UNK N   1      25.201  23.532  -8.068  0.00  0.00     0.104 A 
HETATM   10  C   UNK N   1      25.365  24.192  -6.860  0.00  0.00     0.047 A 
HETATM   11  C   UNK N   1      27.650  27.207  -7.803  0.00  0.00    -0.014 A 
HETATM   12  C   UNK N   1      28.516  27.365  -8.889  0.00  0.00     0.016 A 
HETATM   13  C   UNK N   1      29.419  28.316  -9.323  0.00  0.00     0.042 A 
HETATM   14  C   UNK N   1      29.813  29.520  -8.759  0.00  0.00     0.118 A 
HETATM   15  C   UNK N   1      29.335  29.998  -7.545  0.00  0.00     0.205 A 
HETATM   16  C   UNK N   1      28.381  29.379  -6.751  0.00  0.00     0.068 A 
HETATM   17  O   UNK N   1      29.770  31.062  -7.142  0.00  0.00    -0.285 OA
ENDROOT
BRANCH   6  18
HETATM   18  N   UNK N   1      27.391  28.283  -4.316  0.00  0.00    -0.353 N 
HETATM   19  C   UNK N   1      27.146  29.232  -3.379  0.00  0.00     0.214 C 
HETATM   20  C   UNK N   1      27.894  29.206  -2.093  0.00  0.00     0.117 C 
HETATM   21  O   UNK N   1      26.314  30.104  -3.578  0.00  0.00    -0.274 OA
HETATM   22  H   UNK N   1      28.084  27.606  -4.142  0.00  0.00     0.163 HD
ENDBRANCH   6  18
BRANCH  14  23
HETATM   23  O   UNK N   1      30.713  30.295  -9.424  0.00  0.00    -0.352 OA
HETATM   24  C   UNK N   1      30.826  30.339 -10.797  0.00  0.00     0.210 C 
ENDBRANCH  14  23
BRANCH   7  25
HETATM   25  O   UNK N   1      27.172  25.719 -10.264  0.00  0.00    -0.352 OA
HETATM   26  C   UNK N   1      26.409  26.248 -11.281  0.00  0.00     0.210 C 
ENDBRANCH   7  25
BRANCH   9  27
HETATM   27  O   UNK N   1      24.432  22.418  -8.155  0.00  0.00    -0.353 OA
HETATM   28  C   UNK N   1      24.668  21.272  -7.426  0.00  0.00     0.210 C 
ENDBRANCH   9  27
BRANCH   8  29
HETATM   29  O   UNK N   1      25.686  23.278 -10.346  0.00  0.00    -0.351 OA
HETATM   30  C   UNK N   1      26.528  22.277 -10.775  0.00  0.00     0.210 C 
ENDBRANCH   8  29
TORSDOF 5
ENDMDL
MODEL 7
REMARK VINA RESULT:      -6.1     15.452     17.076
REMARK  5 active torsions:
REMARK  status: ('A' for Active; 'I' for Inactive)
REMARK    1  A    between atoms: C_6  and  N_26 
REMARK    2  A    between atoms: C_7  and  O_11 
REMARK    3  A    between atoms: C_8  and  O_12 
REMARK    4  A    between atoms: C_9  and  O_13 
REMARK    5  A    between atoms: C_17  and  O_24 
REMARK       I    between atoms: N_26  and  C_27 
ROOT
HETATM    1  C   UNK N   1      29.667  24.269  -4.717  0.00  0.00     0.042 C 
HETATM    2  C   UNK N   1      30.310  22.994  -5.026  0.00  0.00    -0.041 A 
HETATM    3  C   UNK N   1      29.775  22.044  -5.943  0.00  0.00     0.017 A 
HETATM    4  C   UNK N   1      28.379  23.920  -4.063  0.00  0.00     0.034 C 
HETATM    5  C   UNK N   1      27.364  23.165  -6.336  0.00  0.00    -0.020 A 
HETATM    6  C   UNK N   1      27.315  24.053  -5.103  0.00  0.00     0.119 C 
HETATM    7  C   UNK N   1      30.557  20.838  -6.147  0.00  0.00     0.116 A 
HETATM    8  C   UNK N   1      31.798  20.646  -5.455  0.00  0.00     0.136 A 
HETATM    9  C   UNK N   1      32.236  21.600  -4.542  0.00  0.00     0.104 A 
HETATM   10  C   UNK N   1      31.496  22.756  -4.346  0.00  0.00     0.047 A 
HETATM   11  C   UNK N   1      28.431  22.252  -6.702  0.00  0.00    -0.014 A 
HETATM   12  C   UNK N   1      28.295  21.434  -7.828  0.00  0.00     0.016 A 
HETATM   13  C   UNK N   1      27.327  21.194  -8.784  0.00  0.00     0.042 A 
HETATM   14  C   UNK N   1      26.072  21.755  -8.967  0.00  0.00     0.118 A 
HETATM   15  C   UNK N   1      25.546  22.755  -8.159  0.00  0.00     0.205 A 
HETATM   16  C   UNK N   1      26.164  23.302  -7.044  0.00  0.00     0.068 A 
HETATM   17  O   UNK N   1      24.438  23.182  -8.431  0.00  0.00    -0.285 OA
ENDROOT
BRANCH   6  18
HETATM   18  N   UNK N   1      27.158  25.449  -5.459  0.00  0.00    -0.353 N 
HETATM   19  C   UNK N   1      26.473  26.313  -4.671  0.00  0.00     0.214 C 
HETATM   20  C   UNK N   1      26.377  27.747  -5.061  0.00  0.00     0.117 C 
HETATM   21  O   UNK N   1      25.938  25.929  -3.642  0.00  0.00    -0.274 OA
HETATM   22  H   UNK N   1      27.558  25.778  -6.295  0.00  0.00     0.163 HD
ENDBRANCH   6  18
BRANCH  14  23
HETATM   23  O   UNK N   1      25.294  21.305  -9.989  0.00  0.00    -0.352 OA
HETATM   24  C   UNK N   1      25.782  20.939 -11.226  0.00  0.00     0.210 C 
ENDBRANCH  14  23
BRANCH   7  25
HETATM   25  O   UNK N   1      30.089  19.869  -6.968  0.00  0.00    -0.352 OA
HETATM   26  C   UNK N   1      30.701  19.559  -8.163  0.00  0.00     0.210 C 
ENDBRANCH   7  25
BRANCH   9  27
HETATM   27  O   UNK N   1      33.391  21.389  -3.864  0.00  0.00    -0.353 OA
HETATM   28  C   UNK N   1      33.438  20.938  -2.562  0.00  0.00     0.210 C 
ENDBRANCH   9  27
BRANCH   8  29
HETATM   29  O   UNK N   1      32.604  19.565  -5.643  0.00  0.00    -0.351 OA
HETATM   30  C   UNK N   1      33.733  19.536  -6.428  0.00  0.00     0.210 C 
ENDBRANCH   8  29
TORSDOF 5
ENDMDL
MODEL 8
REMARK VINA RESULT:      -6.0     14.244     17.327
REMARK  5 active torsions:
REMARK  status: ('A' for Active; 'I' for Inactive)
REMARK    1  A    between atoms: C_6  and  N_26 
REMARK    2  A    between atoms: C_7  and  O_11 
REMARK    3  A    between atoms: C_8  and  O_12 
REMARK    4  A    between atoms: C_9  and  O_13 
REMARK    5  A    between atoms: C_17  and  O_24 
REMARK       I    between atoms: N_26  and  C_27 
ROOT
HETATM    1  C   UNK N   1      27.778  22.669  -7.919  0.00  0.00     0.042 C 
HETATM    2  C   UNK N   1      27.513  23.343  -6.649  0.00  0.00    -0.041 A 
HETATM    3  C   UNK N   1      28.346  23.214  -5.501  0.00  0.00     0.017 A 
HETATM    4  C   UNK N   1      27.666  21.215  -7.633  0.00  0.00     0.034 C 
HETATM    5  C   UNK N   1      29.939  21.231  -6.367  0.00  0.00    -0.020 A 
HETATM    6  C   UNK N   1      29.059  20.694  -7.485  0.00  0.00     0.119 C 
HETATM    7  C   UNK N   1      27.943  23.970  -4.329  0.00  0.00     0.116 A 
HETATM    8  C   UNK N   1      26.773  24.797  -4.358  0.00  0.00     0.136 A 
HETATM    9  C   UNK N   1      25.985  24.839  -5.504  0.00  0.00     0.104 A 
HETATM   10  C   UNK N   1      26.366  24.123  -6.628  0.00  0.00     0.047 A 
HETATM   11  C   UNK N   1      29.623  22.322  -5.467  0.00  0.00    -0.014 A 
HETATM   12  C   UNK N   1      30.501  22.648  -4.429  0.00  0.00     0.016 A 
HETATM   13  C   UNK N   1      31.700  22.167  -3.939  0.00  0.00     0.042 A 
HETATM   14  C   UNK N   1      32.506  21.125  -4.372  0.00  0.00     0.118 A 
HETATM   15  C   UNK N   1      32.223  20.339  -5.483  0.00  0.00     0.205 A 
HETATM   16  C   UNK N   1      31.096  20.446  -6.283  0.00  0.00     0.068 A 
HETATM   17  O   UNK N   1      33.018  19.463  -5.777  0.00  0.00    -0.285 OA
ENDROOT
BRANCH   6  18
HETATM   18  N   UNK N   1      29.734  20.746  -8.766  0.00  0.00    -0.353 N 
HETATM   19  C   UNK N   1      29.993  19.625  -9.482  0.00  0.00     0.214 C 
HETATM   20  C   UNK N   1      30.651  19.737 -10.812  0.00  0.00     0.117 C 
HETATM   21  O   UNK N   1      29.688  18.524  -9.049  0.00  0.00    -0.274 OA
HETATM   22  H   UNK N   1      30.012  21.619  -9.126  0.00  0.00     0.163 HD
ENDBRANCH   6  18
BRANCH  14  23
HETATM   23  O   UNK N   1      33.639  20.837  -3.676  0.00  0.00    -0.352 OA
HETATM   24  C   UNK N   1      34.890  21.310  -4.011  0.00  0.00     0.210 C 
ENDBRANCH  14  23
BRANCH   7  25
HETATM   25  O   UNK N   1      28.660  23.862  -3.185  0.00  0.00    -0.352 OA
HETATM   26  C   UNK N   1      28.187  23.187  -2.081  0.00  0.00     0.210 C 
ENDBRANCH   7  25
BRANCH   9  27
HETATM   27  O   UNK N   1      24.857  25.593  -5.507  0.00  0.00    -0.353 OA
HETATM   28  C   UNK N   1      24.812  26.892  -5.965  0.00  0.00     0.210 C 
ENDBRANCH   9  27
BRANCH   8  29
HETATM   29  O   UNK N   1      26.373  25.572  -3.313  0.00  0.00    -0.351 OA
HETATM   30  C   UNK N   1      26.766  26.871  -3.083  0.00  0.00     0.210 C 
ENDBRANCH   8  29
TORSDOF 5
ENDMDL
MODEL 9
REMARK VINA RESULT:      -6.0     15.472     17.391
REMARK  5 active torsions:
REMARK  status: ('A' for Active; 'I' for Inactive)
REMARK    1  A    between atoms: C_6  and  N_26 
REMARK    2  A    between atoms: C_7  and  O_11 
REMARK    3  A    between atoms: C_8  and  O_12 
REMARK    4  A    between atoms: C_9  and  O_13 
REMARK    5  A    between atoms: C_17  and  O_24 
REMARK       I    between atoms: N_26  and  C_27 
ROOT
HETATM    1  C   UNK N   1      30.007  23.158  -3.634  0.00  0.00     0.042 C 
HETATM    2  C   UNK N   1      28.785  23.664  -4.257  0.00  0.00    -0.041 A 
HETATM    3  C   UNK N   1      28.334  23.260  -5.546  0.00  0.00     0.017 A 
HETATM    4  C   UNK N   1      31.121  23.627  -4.498  0.00  0.00     0.034 C 
HETATM    5  C   UNK N   1      30.506  21.888  -6.333  0.00  0.00    -0.020 A 
HETATM    6  C   UNK N   1      31.517  22.472  -5.359  0.00  0.00     0.119 C 
HETATM    7  C   UNK N   1      27.087  23.849  -6.002  0.00  0.00     0.116 A 
HETATM    8  C   UNK N   1      26.370  24.775  -5.176  0.00  0.00     0.136 A 
HETATM    9  C   UNK N   1      26.896  25.153  -3.944  0.00  0.00     0.104 A 
HETATM   10  C   UNK N   1      28.083  24.592  -3.501  0.00  0.00     0.047 A 
HETATM   11  C   UNK N   1      29.106  22.250  -6.445  0.00  0.00    -0.014 A 
HETATM   12  C   UNK N   1      28.317  21.684  -7.451  0.00  0.00     0.016 A 
HETATM   13  C   UNK N   1      28.506  20.806  -8.502  0.00  0.00     0.042 A 
HETATM   14  C   UNK N   1      29.635  20.121  -8.921  0.00  0.00     0.118 A 
HETATM   15  C   UNK N   1      30.868  20.197  -8.283  0.00  0.00     0.205 A 
HETATM   16  C   UNK N   1      31.160  20.984  -7.180  0.00  0.00     0.068 A 
HETATM   17  O   UNK N   1      31.784  19.532  -8.735  0.00  0.00    -0.285 OA
ENDROOT
BRANCH   6  18
HETATM   18  N   UNK N   1      32.123  21.442  -4.539  0.00  0.00    -0.353 N 
HETATM   19  C   UNK N   1      33.465  21.357  -4.376  0.00  0.00     0.214 C 
HETATM   20  C   UNK N   1      34.034  20.305  -3.489  0.00  0.00     0.117 C 
HETATM   21  O   UNK N   1      34.214  22.137  -4.946  0.00  0.00    -0.274 OA
HETATM   22  H   UNK N   1      31.543  20.786  -4.089  0.00  0.00     0.163 HD
ENDBRANCH   6  18
BRANCH  14  23
HETATM   23  O   UNK N   1      29.553  19.331 -10.026  0.00  0.00    -0.352 OA
HETATM   24  C   UNK N   1      29.255  19.799 -11.288  0.00  0.00     0.210 C 
ENDBRANCH  14  23
BRANCH   7  25
HETATM   25  O   UNK N   1      26.619  23.549  -7.236  0.00  0.00    -0.352 OA
HETATM   26  C   UNK N   1      26.745  24.413  -8.301  0.00  0.00     0.210 C 
ENDBRANCH   7  25
BRANCH   9  27
HETATM   27  O   UNK N   1      26.229  26.060  -3.188  0.00  0.00    -0.353 OA
HETATM   28  C   UNK N   1      26.611  27.379  -3.069  0.00  0.00     0.210 C 
ENDBRANCH   9  27
BRANCH   8  29
HETATM   29  O   UNK N   1      25.171  25.318  -5.521  0.00  0.00    -0.351 OA
HETATM   30  C   UNK N   1      24.988  26.559  -6.088  0.00  0.00     0.210 C 
ENDBRANCH   8  29
TORSDOF 5
ENDMDL
