REMARK  9 active torsions:
REMARK  status: ('A' for Active; 'I' for Inactive)
REMARK    1  A    between atoms: C_2  and  C_1 
REMARK       I    between atoms: C_14  and  N_15 
REMARK    2  A    between atoms: C_17  and  C_14 
REMARK    3  A    between atoms: N_15  and  C_16 
REMARK    4  A    between atoms: O_27  and  C_22 
REMARK    5  A    between atoms: C_31  and  O_27 
REMARK    6  A    between atoms: C_28  and  C_30 
REMARK    7  A    between atoms: C_30  and  C_34 
REMARK    8  A    between atoms: C_35  and  C_31 
REMARK    9  A    between atoms: C_34  and  C_35 
ROOT
HETATM    1  C   UNK N   1       1.626  -2.703  -0.513  0.00  0.00     0.256 C 
HETATM    2  N   UNK N   1       2.583  -1.725  -0.497  0.00  0.00    -0.320 N 
HETATM    3  O   UNK N   1       1.980  -3.871  -0.497  0.00  0.00    -0.267 OA
HETATM    4  H   UNK N   1       3.500  -2.051  -0.646  0.00  0.00     0.169 HD
ENDROOT
BRANCH   2   5
HETATM    5  C   UNK N   1       2.482  -0.297  -0.298  0.00  0.00     0.070 A 
HETATM    6  C   UNK N   1       3.660   0.406  -0.077  0.00  0.00     0.117 A 
HETATM    7  O   UNK N   1       4.789  -0.271  -0.035  0.00  0.00    -0.303 OA
HETATM    8  C   UNK N   1       3.659   1.806   0.119  0.00  0.00     0.050 A 
HETATM    9  C   UNK N   1       5.961   0.292   0.182  0.00  0.00     0.126 A 
HETATM   10  C   UNK N   1       6.059   1.680   0.369  0.00  0.00     0.097 A 
HETATM   11  C   UNK N   1       4.888   2.447   0.335  0.00  0.00     0.187 A 
HETATM   12  O   UNK N   1       4.945   3.654   0.499  0.00  0.00    -0.287 OA
HETATM   13  C   UNK N   1       2.447   2.507   0.096  0.00  0.00     0.018 A 
HETATM   14  C   UNK N   1       1.255   1.811  -0.100  0.00  0.00     0.003 A 
HETATM   15  C   UNK N   1       1.281   0.426  -0.287  0.00  0.00     0.032 A 
BRANCH   9  16
HETATM   16  C   UNK N   1       7.116  -0.597   0.226  0.00  0.00     0.168 A 
HETATM   17  N   UNK N   1       8.393  -0.232   0.402  0.00  0.00    -0.265 N 
HETATM   18  N   UNK N   1       9.084  -1.364   0.372  0.00  0.00    -0.005 NA
ATOM     19  HN  UNK N   1       8.756   0.712   0.532  1.00  0.00     0.186 HD
HETATM   20  N   UNK N   1       8.259  -2.382   0.186  0.00  0.00    -0.225 N 
HETATM   21  N   UNK N   1       7.020  -1.931   0.091  0.00  0.00    -0.269 N 
HETATM   22  H   UNK N   1       8.527  -3.328   0.128  0.00  0.00     0.205 HD
ATOM     23  HN  UNK N   1       6.172  -2.478  -0.054  1.00  0.00     0.190 HD
ENDBRANCH   9  16
ENDBRANCH   2   5
BRANCH   1  24
HETATM   24  C   UNK N   1       0.215  -2.383  -0.314  0.00  0.00     0.032 C 
HETATM   25  C   UNK N   1      -0.410  -1.479  -1.172  0.00  0.00     0.020 C 
HETATM   26  C   UNK N   1      -1.519  -0.770  -0.735  0.00  0.00     0.038 C 
HETATM   27  C   UNK N   1      -2.015  -0.978   0.560  0.00  0.00     0.068 C 
HETATM   28  C   UNK N   1      -1.491  -2.004   1.351  0.00  0.00     0.038 C 
HETATM   29  C   UNK N   1      -0.361  -2.699   0.920  0.00  0.00     0.020 C 
BRANCH  27  30
HETATM   30  O   UNK N   1      -2.900  -0.117   1.099  0.00  0.00    -0.351 OA
BRANCH  30  31
HETATM   31  C   UNK N   1      -2.728   1.244   0.919  0.00  0.00     0.175 C 
BRANCH  31  32
HETATM   32  C   UNK N   1      -3.895   1.860   0.186  0.00  0.00     0.027 C 
BRANCH  32  33
HETATM   33  C   UNK N   1      -3.939   1.334  -1.235  0.00  0.00     0.007 C 
BRANCH  33  34
HETATM   34  C   UNK N   1      -5.374   1.049  -1.644  0.00  0.00     0.038 C 
BRANCH  34  35
HETATM   35  C   UNK N   1      -5.992  -0.026  -0.806  0.00  0.00    -0.058 A 
HETATM   36  C   UNK N   1      -7.155   0.249  -0.078  0.00  0.00     0.007 A 
HETATM   37  C   UNK N   1      -7.752  -0.753   0.693  0.00  0.00     0.001 A 
HETATM   38  C   UNK N   1      -7.186  -2.031   0.740  0.00  0.00     0.000 A 
HETATM   39  C   UNK N   1      -6.022  -2.307   0.017  0.00  0.00     0.001 A 
HETATM   40  C   UNK N   1      -5.427  -1.308  -0.759  0.00  0.00     0.007 A 
ENDBRANCH  34  35
ENDBRANCH  33  34
ENDBRANCH  32  33
ENDBRANCH  31  32
ENDBRANCH  30  31
ENDBRANCH  27  30
ENDBRANCH   1  24
TORSDOF 9
