MODEL 1
REMARK VINA RESULT:      -7.6      0.000      0.000
REMARK  4 active torsions:
REMARK  status: ('A' for Active; 'I' for Inactive)
REMARK    1  A    between atoms: N_8  and  N_3 
REMARK    2  A    between atoms: C_14  and  N_4 
REMARK    3  A    between atoms: C_17  and  C_6 
REMARK    4  A    between atoms: C_13  and  C_12 
ROOT
HETATM    1  C   UNK N   1      34.913  13.592  11.755  0.00  0.00     0.086 A 
HETATM    2  O   UNK N   1      34.963  13.683  13.052  0.00  0.00    -0.309 OA
HETATM    3  C   UNK N   1      34.857  12.258  11.379  0.00  0.00     0.041 A 
HETATM    4  C   UNK N   1      34.943  12.496  13.574  0.00  0.00     0.093 A 
HETATM    5  C   UNK N   1      34.876  11.537  12.575  0.00  0.00     0.041 A 
ENDROOT
BRANCH   4   6
HETATM    6  C   UNK N   1      34.990  12.342  15.024  0.00  0.00     0.144 C 
HETATM    7  N   UNK N   1      35.256  13.280  15.857  0.00  0.00    -0.303 N 
ATOM      8  HN  UNK N   1      35.456  14.220  15.516  1.00  0.00     0.186 HD
BRANCH   7   9
HETATM    9  N   UNK N   1      35.274  13.023  17.218  0.00  0.00    -0.234 N 
HETATM   10  C   UNK N   1      35.378  13.943  18.208  0.00  0.00     0.344 A 
HETATM   11  N   UNK N   1      35.367  13.395  19.421  0.00  0.00    -0.276 N 
HETATM   12  O   UNK N   1      35.472  15.149  18.029  0.00  0.00    -0.245 OA
HETATM   13  C   UNK N   1      35.253  12.069  19.240  0.00  0.00     0.245 A 
HETATM   14  H   UNK N   1      35.431  13.869  20.282  0.00  0.00     0.173 HD
HETATM   15  O   UNK N   1      35.214  11.278  20.168  0.00  0.00    -0.271 OA
HETATM   16  C   UNK N   1      35.180  11.691  17.777  0.00  0.00     0.257 A 
ENDBRANCH   7   9
ENDBRANCH   4   6
BRANCH   1  17
HETATM   17  C   UNK N   1      34.923  14.798  10.921  0.00  0.00    -0.002 A 
HETATM   18  C   UNK N   1      34.413  14.685   9.623  0.00  0.00     0.017 A 
HETATM   19  C   UNK N   1      34.386  15.780   8.770  0.00  0.00     0.037 A 
HETATM   20  C   UNK N   1      34.872  17.018   9.201  0.00  0.00     0.102 A 
HETATM   21  C   UNK N   1      35.387  17.141  10.506  0.00  0.00     0.037 A 
HETATM   22  C   UNK N   1      35.413  16.032  11.366  0.00  0.00     0.017 A 
BRANCH  20  23
HETATM   23  N   UNK N   1      34.840  18.134   8.320  0.00  0.00    -0.116 N 
HETATM   24  O   UNK N   1      34.330  18.011   7.113  0.00  0.00    -0.532 OA
HETATM   25  O   UNK N   1      35.275  19.190   8.668  0.00  0.00    -0.532 OA
ENDBRANCH  20  23
ENDBRANCH   1  17
TORSDOF 4
ENDMDL
MODEL 2
REMARK VINA RESULT:      -7.5      7.888     13.204
REMARK  4 active torsions:
REMARK  status: ('A' for Active; 'I' for Inactive)
REMARK    1  A    between atoms: N_8  and  N_3 
REMARK    2  A    between atoms: C_14  and  N_4 
REMARK    3  A    between atoms: C_17  and  C_6 
REMARK    4  A    between atoms: C_13  and  C_12 
ROOT
HETATM    1  C   UNK N   1      30.430  16.956   4.866  0.00  0.00     0.086 A 
HETATM    2  O   UNK N   1      29.261  17.527   4.909  0.00  0.00    -0.309 OA
HETATM    3  C   UNK N   1      30.500  16.108   3.770  0.00  0.00     0.041 A 
HETATM    4  C   UNK N   1      28.539  17.118   3.912  0.00  0.00     0.093 A 
HETATM    5  C   UNK N   1      29.256  16.215   3.144  0.00  0.00     0.041 A 
ENDROOT
BRANCH   4   6
HETATM    6  C   UNK N   1      27.180  17.623   3.749  0.00  0.00     0.144 C 
HETATM    7  N   UNK N   1      26.842  18.860   3.794  0.00  0.00    -0.303 N 
ATOM      8  HN  UNK N   1      27.552  19.574   3.955  1.00  0.00     0.186 HD
BRANCH   7   9
HETATM    9  N   UNK N   1      25.518  19.228   3.625  0.00  0.00    -0.234 N 
HETATM   10  C   UNK N   1      25.063  20.272   2.888  0.00  0.00     0.344 A 
HETATM   11  N   UNK N   1      23.737  20.379   2.914  0.00  0.00    -0.276 N 
HETATM   12  O   UNK N   1      25.775  21.043   2.261  0.00  0.00    -0.245 OA
HETATM   13  C   UNK N   1      23.288  19.378   3.690  0.00  0.00     0.245 A 
HETATM   14  H   UNK N   1      23.192  21.057   2.454  0.00  0.00     0.173 HD
HETATM   15  O   UNK N   1      22.103  19.199   3.916  0.00  0.00    -0.271 OA
HETATM   16  C   UNK N   1      24.411  18.523   4.235  0.00  0.00     0.257 A 
ENDBRANCH   7   9
ENDBRANCH   4   6
BRANCH   1  17
HETATM   17  C   UNK N   1      31.442  17.249   5.887  0.00  0.00    -0.002 A 
HETATM   18  C   UNK N   1      32.764  17.404   5.454  0.00  0.00     0.017 A 
HETATM   19  C   UNK N   1      33.781  17.682   6.357  0.00  0.00     0.037 A 
HETATM   20  C   UNK N   1      33.495  17.812   7.719  0.00  0.00     0.102 A 
HETATM   21  C   UNK N   1      32.168  17.658   8.164  0.00  0.00     0.037 A 
HETATM   22  C   UNK N   1      31.141  17.376   7.248  0.00  0.00     0.017 A 
BRANCH  20  23
HETATM   23  N   UNK N   1      34.544  18.097   8.636  0.00  0.00    -0.116 N 
HETATM   24  O   UNK N   1      35.315  19.148   8.455  0.00  0.00    -0.532 OA
HETATM   25  O   UNK N   1      34.732  17.386   9.577  0.00  0.00    -0.532 OA
ENDBRANCH  20  23
ENDBRANCH   1  17
TORSDOF 4
ENDMDL
MODEL 3
REMARK VINA RESULT:      -7.4      1.592      8.984
REMARK  4 active torsions:
REMARK  status: ('A' for Active; 'I' for Inactive)
REMARK    1  A    between atoms: N_8  and  N_3 
REMARK    2  A    between atoms: C_14  and  N_4 
REMARK    3  A    between atoms: C_17  and  C_6 
REMARK    4  A    between atoms: C_13  and  C_12 
ROOT
HETATM    1  C   UNK N   1      35.011  12.313  13.822  0.00  0.00     0.086 A 
HETATM    2  O   UNK N   1      34.967  13.473  13.233  0.00  0.00    -0.309 OA
HETATM    3  C   UNK N   1      34.958  11.301  12.875  0.00  0.00     0.041 A 
HETATM    4  C   UNK N   1      34.887  13.307  11.949  0.00  0.00     0.093 A 
HETATM    5  C   UNK N   1      34.876  11.955  11.643  0.00  0.00     0.041 A 
ENDROOT
BRANCH   4   6
HETATM    6  C   UNK N   1      34.825  14.471  11.072  0.00  0.00     0.144 C 
HETATM    7  N   UNK N   1      33.756  14.931  10.532  0.00  0.00    -0.303 N 
ATOM      8  HN  UNK N   1      32.862  14.474  10.707  1.00  0.00     0.186 HD
BRANCH   7   9
HETATM    9  N   UNK N   1      33.812  16.047   9.713  0.00  0.00    -0.234 N 
HETATM   10  C   UNK N   1      32.872  16.431   8.814  0.00  0.00     0.344 A 
HETATM   11  N   UNK N   1      33.203  17.548   8.171  0.00  0.00    -0.276 N 
HETATM   12  O   UNK N   1      31.828  15.832   8.602  0.00  0.00    -0.245 OA
HETATM   13  C   UNK N   1      34.400  17.925   8.651  0.00  0.00     0.245 A 
HETATM   14  H   UNK N   1      32.675  18.008   7.479  0.00  0.00     0.173 HD
HETATM   15  O   UNK N   1      34.983  18.923   8.261  0.00  0.00    -0.271 OA
HETATM   16  C   UNK N   1      34.920  16.979   9.711  0.00  0.00     0.257 A 
ENDBRANCH   7   9
ENDBRANCH   4   6
BRANCH   1  17
HETATM   17  C   UNK N   1      35.103  12.221  15.283  0.00  0.00    -0.002 A 
HETATM   18  C   UNK N   1      34.864  13.388  16.017  0.00  0.00     0.017 A 
HETATM   19  C   UNK N   1      34.932  13.384  17.403  0.00  0.00     0.037 A 
HETATM   20  C   UNK N   1      35.243  12.206  18.088  0.00  0.00     0.102 A 
HETATM   21  C   UNK N   1      35.485  11.027  17.358  0.00  0.00     0.037 A 
HETATM   22  C   UNK N   1      35.416  11.033  15.956  0.00  0.00     0.017 A 
BRANCH  20  23
HETATM   23  N   UNK N   1      35.310  12.213  19.509  0.00  0.00    -0.116 N 
HETATM   24  O   UNK N   1      34.901  13.264  20.187  0.00  0.00    -0.532 OA
HETATM   25  O   UNK N   1      35.737  11.265  20.096  0.00  0.00    -0.532 OA
ENDBRANCH  20  23
ENDBRANCH   1  17
TORSDOF 4
ENDMDL
MODEL 4
REMARK VINA RESULT:      -7.3      5.213      7.732
REMARK  4 active torsions:
REMARK  status: ('A' for Active; 'I' for Inactive)
REMARK    1  A    between atoms: N_8  and  N_3 
REMARK    2  A    between atoms: C_14  and  N_4 
REMARK    3  A    between atoms: C_17  and  C_6 
REMARK    4  A    between atoms: C_13  and  C_12 
ROOT
HETATM    1  C   UNK N   1      30.636  16.364   6.756  0.00  0.00     0.086 A 
HETATM    2  O   UNK N   1      31.531  16.421   7.699  0.00  0.00    -0.309 OA
HETATM    3  C   UNK N   1      30.803  15.201   6.017  0.00  0.00     0.041 A 
HETATM    4  C   UNK N   1      32.291  15.371   7.643  0.00  0.00     0.093 A 
HETATM    5  C   UNK N   1      31.892  14.549   6.601  0.00  0.00     0.041 A 
ENDROOT
BRANCH   4   6
HETATM    6  C   UNK N   1      33.374  15.211   8.607  0.00  0.00     0.144 C 
HETATM    7  N   UNK N   1      33.378  15.684   9.799  0.00  0.00    -0.303 N 
ATOM      8  HN  UNK N   1      32.578  16.219  10.134  1.00  0.00     0.186 HD
BRANCH   7   9
HETATM    9  N   UNK N   1      34.463  15.471  10.632  0.00  0.00    -0.234 N 
HETATM   10  C   UNK N   1      35.487  16.333  10.853  0.00  0.00     0.344 A 
HETATM   11  N   UNK N   1      36.388  15.851  11.707  0.00  0.00    -0.276 N 
HETATM   12  O   UNK N   1      35.590  17.436  10.337  0.00  0.00    -0.245 OA
HETATM   13  C   UNK N   1      35.957  14.631  12.069  0.00  0.00     0.245 A 
HETATM   14  H   UNK N   1      37.208  16.301  12.013  0.00  0.00     0.173 HD
HETATM   15  O   UNK N   1      36.568  13.921  12.850  0.00  0.00    -0.271 OA
HETATM   16  C   UNK N   1      34.652  14.259  11.400  0.00  0.00     0.257 A 
ENDBRANCH   7   9
ENDBRANCH   4   6
BRANCH   1  17
HETATM   17  C   UNK N   1      29.647  17.436   6.599  0.00  0.00    -0.002 A 
HETATM   18  C   UNK N   1      29.188  18.061   7.764  0.00  0.00     0.017 A 
HETATM   19  C   UNK N   1      28.252  19.084   7.701  0.00  0.00     0.037 A 
HETATM   20  C   UNK N   1      27.753  19.505   6.465  0.00  0.00     0.102 A 
HETATM   21  C   UNK N   1      28.209  18.881   5.288  0.00  0.00     0.037 A 
HETATM   22  C   UNK N   1      29.155  17.846   5.354  0.00  0.00     0.017 A 
BRANCH  20  23
HETATM   23  N   UNK N   1      26.794  20.554   6.411  0.00  0.00    -0.116 N 
HETATM   24  O   UNK N   1      26.331  21.086   7.522  0.00  0.00    -0.532 OA
HETATM   25  O   UNK N   1      26.402  20.959   5.358  0.00  0.00    -0.532 OA
ENDBRANCH  20  23
ENDBRANCH   1  17
TORSDOF 4
ENDMDL
MODEL 5
REMARK VINA RESULT:      -7.3      6.830      9.887
REMARK  4 active torsions:
REMARK  status: ('A' for Active; 'I' for Inactive)
REMARK    1  A    between atoms: N_8  and  N_3 
REMARK    2  A    between atoms: C_14  and  N_4 
REMARK    3  A    between atoms: C_17  and  C_6 
REMARK    4  A    between atoms: C_13  and  C_12 
ROOT
HETATM    1  C   UNK N   1      28.570  18.501   7.522  0.00  0.00     0.086 A 
HETATM    2  O   UNK N   1      29.644  17.803   7.292  0.00  0.00    -0.309 OA
HETATM    3  C   UNK N   1      28.420  18.698   8.888  0.00  0.00     0.041 A 
HETATM    4  C   UNK N   1      30.227  17.517   8.415  0.00  0.00     0.093 A 
HETATM    5  C   UNK N   1      29.510  18.050   9.474  0.00  0.00     0.041 A 
ENDROOT
BRANCH   4   6
HETATM    6  C   UNK N   1      31.459  16.736   8.411  0.00  0.00     0.144 C 
HETATM    7  N   UNK N   1      32.509  17.010   9.094  0.00  0.00    -0.303 N 
ATOM      8  HN  UNK N   1      32.521  17.832   9.698  1.00  0.00     0.186 HD
BRANCH   7   9
HETATM    9  N   UNK N   1      33.627  16.197   9.014  0.00  0.00    -0.234 N 
HETATM   10  C   UNK N   1      34.802  16.381   9.666  0.00  0.00     0.344 A 
HETATM   11  N   UNK N   1      35.695  15.433   9.392  0.00  0.00    -0.276 N 
HETATM   12  O   UNK N   1      35.036  17.308  10.427  0.00  0.00    -0.245 OA
HETATM   13  C   UNK N   1      35.103  14.588   8.531  0.00  0.00     0.245 A 
HETATM   14  H   UNK N   1      36.610  15.364   9.749  0.00  0.00     0.173 HD
HETATM   15  O   UNK N   1      35.665  13.603   8.082  0.00  0.00    -0.271 OA
HETATM   16  C   UNK N   1      33.687  15.004   8.197  0.00  0.00     0.257 A 
ENDBRANCH   7   9
ENDBRANCH   4   6
BRANCH   1  17
HETATM   17  C   UNK N   1      27.723  18.956   6.415  0.00  0.00    -0.002 A 
HETATM   18  C   UNK N   1      27.370  20.310   6.390  0.00  0.00     0.017 A 
HETATM   19  C   UNK N   1      26.571  20.819   5.376  0.00  0.00     0.037 A 
HETATM   20  C   UNK N   1      26.106  19.980   4.359  0.00  0.00     0.102 A 
HETATM   21  C   UNK N   1      26.457  18.617   4.376  0.00  0.00     0.037 A 
HETATM   22  C   UNK N   1      27.265  18.103   5.403  0.00  0.00     0.017 A 
BRANCH  20  23
HETATM   23  N   UNK N   1      25.288  20.512   3.324  0.00  0.00    -0.116 N 
HETATM   24  O   UNK N   1      23.987  20.608   3.491  0.00  0.00    -0.532 OA
HETATM   25  O   UNK N   1      25.777  20.876   2.297  0.00  0.00    -0.532 OA
ENDBRANCH  20  23
ENDBRANCH   1  17
TORSDOF 4
ENDMDL
MODEL 6
REMARK VINA RESULT:      -6.9      2.581      9.310
REMARK  4 active torsions:
REMARK  status: ('A' for Active; 'I' for Inactive)
REMARK    1  A    between atoms: N_8  and  N_3 
REMARK    2  A    between atoms: C_14  and  N_4 
REMARK    3  A    between atoms: C_17  and  C_6 
REMARK    4  A    between atoms: C_13  and  C_12 
ROOT
HETATM    1  C   UNK N   1      35.419  13.564  13.435  0.00  0.00     0.086 A 
HETATM    2  O   UNK N   1      34.600  13.760  12.442  0.00  0.00    -0.309 OA
HETATM    3  C   UNK N   1      36.407  14.538  13.429  0.00  0.00     0.041 A 
HETATM    4  C   UNK N   1      34.974  14.803  11.768  0.00  0.00     0.093 A 
HETATM    5  C   UNK N   1      36.114  15.352  12.333  0.00  0.00     0.041 A 
ENDROOT
BRANCH   4   6
HETATM    6  C   UNK N   1      34.206  15.224  10.601  0.00  0.00     0.144 C 
HETATM    7  N   UNK N   1      34.299  16.368  10.030  0.00  0.00    -0.303 N 
ATOM      8  HN  UNK N   1      34.950  17.064  10.391  1.00  0.00     0.186 HD
BRANCH   7   9
HETATM    9  N   UNK N   1      33.519  16.662   8.924  0.00  0.00    -0.234 N 
HETATM   10  C   UNK N   1      33.746  17.647   8.020  0.00  0.00     0.344 A 
HETATM   11  N   UNK N   1      32.823  17.688   7.062  0.00  0.00    -0.276 N 
HETATM   12  O   UNK N   1      34.690  18.423   8.061  0.00  0.00    -0.245 OA
HETATM   13  C   UNK N   1      31.950  16.703   7.331  0.00  0.00     0.245 A 
HETATM   14  H   UNK N   1      32.786  18.317   6.306  0.00  0.00     0.173 HD
HETATM   15  O   UNK N   1      30.977  16.476   6.632  0.00  0.00    -0.271 OA
HETATM   16  C   UNK N   1      32.318  15.931   8.579  0.00  0.00     0.257 A 
ENDBRANCH   7   9
ENDBRANCH   4   6
BRANCH   1  17
HETATM   17  C   UNK N   1      35.219  12.441  14.357  0.00  0.00    -0.002 A 
HETATM   18  C   UNK N   1      36.069  12.362  15.465  0.00  0.00     0.017 A 
HETATM   19  C   UNK N   1      35.945  11.330  16.385  0.00  0.00     0.037 A 
HETATM   20  C   UNK N   1      34.962  10.349  16.214  0.00  0.00     0.102 A 
HETATM   21  C   UNK N   1      34.103  10.421  15.101  0.00  0.00     0.037 A 
HETATM   22  C   UNK N   1      34.230  11.466  14.172  0.00  0.00     0.017 A 
BRANCH  20  23
HETATM   23  N   UNK N   1      34.844   9.296  17.162  0.00  0.00    -0.116 N 
HETATM   24  O   UNK N   1      34.136   9.467  18.258  0.00  0.00    -0.532 OA
HETATM   25  O   UNK N   1      35.386   8.249  16.971  0.00  0.00    -0.532 OA
ENDBRANCH  20  23
ENDBRANCH   1  17
TORSDOF 4
ENDMDL
MODEL 7
REMARK VINA RESULT:      -6.8     10.585     13.743
REMARK  4 active torsions:
REMARK  status: ('A' for Active; 'I' for Inactive)
REMARK    1  A    between atoms: N_8  and  N_3 
REMARK    2  A    between atoms: C_14  and  N_4 
REMARK    3  A    between atoms: C_17  and  C_6 
REMARK    4  A    between atoms: C_13  and  C_12 
ROOT
HETATM    1  C   UNK N   1      25.366  19.610   4.058  0.00  0.00     0.086 A 
HETATM    2  O   UNK N   1      25.989  19.068   5.064  0.00  0.00    -0.309 OA
HETATM    3  C   UNK N   1      26.239  20.418   3.343  0.00  0.00     0.041 A 
HETATM    4  C   UNK N   1      27.226  19.458   5.072  0.00  0.00     0.093 A 
HETATM    5  C   UNK N   1      27.462  20.317   4.011  0.00  0.00     0.041 A 
ENDROOT
BRANCH   4   6
HETATM    6  C   UNK N   1      28.128  18.978   6.113  0.00  0.00     0.144 C 
HETATM    7  N   UNK N   1      28.147  17.784   6.580  0.00  0.00    -0.303 N 
ATOM      8  HN  UNK N   1      27.495  17.088   6.220  1.00  0.00     0.186 HD
BRANCH   7   9
HETATM    9  N   UNK N   1      29.049  17.436   7.572  0.00  0.00    -0.234 N 
HETATM   10  C   UNK N   1      28.829  17.480   8.909  0.00  0.00     0.344 A 
HETATM   11  N   UNK N   1      29.885  17.084   9.616  0.00  0.00    -0.276 N 
HETATM   12  O   UNK N   1      27.784  17.841   9.430  0.00  0.00    -0.245 OA
HETATM   13  C   UNK N   1      30.841  16.764   8.729  0.00  0.00     0.245 A 
HETATM   14  H   UNK N   1      29.952  17.035  10.597  0.00  0.00     0.173 HD
HETATM   15  O   UNK N   1      31.943  16.361   9.062  0.00  0.00    -0.271 OA
HETATM   16  C   UNK N   1      30.389  16.963   7.298  0.00  0.00     0.257 A 
ENDBRANCH   7   9
ENDBRANCH   4   6
BRANCH   1  17
HETATM   17  C   UNK N   1      23.945  19.331   3.821  0.00  0.00    -0.002 A 
HETATM   18  C   UNK N   1      23.417  18.165   4.387  0.00  0.00     0.017 A 
HETATM   19  C   UNK N   1      22.082  17.829   4.209  0.00  0.00     0.037 A 
HETATM   20  C   UNK N   1      21.243  18.657   3.457  0.00  0.00     0.102 A 
HETATM   21  C   UNK N   1      21.767  19.832   2.884  0.00  0.00     0.037 A 
HETATM   22  C   UNK N   1      23.117  20.170   3.065  0.00  0.00     0.017 A 
BRANCH  20  23
HETATM   23  N   UNK N   1      19.877  18.303   3.280  0.00  0.00    -0.116 N 
HETATM   24  O   UNK N   1      19.048  19.136   2.688  0.00  0.00    -0.532 OA
HETATM   25  O   UNK N   1      19.472  17.249   3.668  0.00  0.00    -0.532 OA
ENDBRANCH  20  23
ENDBRANCH   1  17
TORSDOF 4
ENDMDL
MODEL 8
REMARK VINA RESULT:      -6.7      7.191     12.383
REMARK  4 active torsions:
REMARK  status: ('A' for Active; 'I' for Inactive)
REMARK    1  A    between atoms: N_8  and  N_3 
REMARK    2  A    between atoms: C_14  and  N_4 
REMARK    3  A    between atoms: C_17  and  C_6 
REMARK    4  A    between atoms: C_13  and  C_12 
ROOT
HETATM    1  C   UNK N   1      30.048  17.703   8.542  0.00  0.00     0.086 A 
HETATM    2  O   UNK N   1      29.554  18.083   7.400  0.00  0.00    -0.309 OA
HETATM    3  C   UNK N   1      29.152  17.988   9.562  0.00  0.00     0.041 A 
HETATM    4  C   UNK N   1      28.381  18.606   7.585  0.00  0.00     0.093 A 
HETATM    5  C   UNK N   1      28.056  18.582   8.931  0.00  0.00     0.041 A 
ENDROOT
BRANCH   4   6
HETATM    6  C   UNK N   1      27.626  19.109   6.442  0.00  0.00     0.144 C 
HETATM    7  N   UNK N   1      26.575  18.560   5.954  0.00  0.00    -0.303 N 
ATOM      8  HN  UNK N   1      26.209  17.704   6.370  1.00  0.00     0.186 HD
BRANCH   7   9
HETATM    9  N   UNK N   1      25.934  19.124   4.864  0.00  0.00    -0.234 N 
HETATM   10  C   UNK N   1      24.631  18.959   4.524  0.00  0.00     0.344 A 
HETATM   11  N   UNK N   1      24.300  19.627   3.421  0.00  0.00    -0.276 N 
HETATM   12  O   UNK N   1      23.832  18.276   5.147  0.00  0.00    -0.245 OA
HETATM   13  C   UNK N   1      25.411  20.259   3.009  0.00  0.00     0.245 A 
HETATM   14  H   UNK N   1      23.414  19.653   2.993  0.00  0.00     0.173 HD
HETATM   15  O   UNK N   1      25.439  20.963   2.013  0.00  0.00    -0.271 OA
HETATM   16  C   UNK N   1      26.595  19.992   3.913  0.00  0.00     0.257 A 
ENDBRANCH   7   9
ENDBRANCH   4   6
BRANCH   1  17
HETATM   17  C   UNK N   1      31.373  17.076   8.611  0.00  0.00    -0.002 A 
HETATM   18  C   UNK N   1      32.483  17.892   8.371  0.00  0.00     0.017 A 
HETATM   19  C   UNK N   1      33.770  17.376   8.417  0.00  0.00     0.037 A 
HETATM   20  C   UNK N   1      33.975  16.023   8.706  0.00  0.00     0.102 A 
HETATM   21  C   UNK N   1      32.863  15.194   8.949  0.00  0.00     0.037 A 
HETATM   22  C   UNK N   1      31.562  15.719   8.901  0.00  0.00     0.017 A 
BRANCH  20  23
HETATM   23  N   UNK N   1      35.298  15.503   8.752  0.00  0.00    -0.116 N 
HETATM   24  O   UNK N   1      35.741  14.734   7.781  0.00  0.00    -0.532 OA
HETATM   25  O   UNK N   1      36.015  15.761   9.671  0.00  0.00    -0.532 OA
ENDBRANCH  20  23
ENDBRANCH   1  17
TORSDOF 4
ENDMDL
MODEL 9
REMARK VINA RESULT:      -6.7      4.026      8.952
REMARK  4 active torsions:
REMARK  status: ('A' for Active; 'I' for Inactive)
REMARK    1  A    between atoms: N_8  and  N_3 
REMARK    2  A    between atoms: C_14  and  N_4 
REMARK    3  A    between atoms: C_17  and  C_6 
REMARK    4  A    between atoms: C_13  and  C_12 
ROOT
HETATM    1  C   UNK N   1      34.412  14.727   9.998  0.00  0.00     0.086 A 
HETATM    2  O   UNK N   1      33.288  15.383   9.989  0.00  0.00    -0.309 OA
HETATM    3  C   UNK N   1      34.843  14.513   8.697  0.00  0.00     0.041 A 
HETATM    4  C   UNK N   1      32.935  15.626   8.765  0.00  0.00     0.093 A 
HETATM    5  C   UNK N   1      33.871  15.104   7.886  0.00  0.00     0.041 A 
ENDROOT
BRANCH   4   6
HETATM    6  C   UNK N   1      31.700  16.355   8.500  0.00  0.00     0.144 C 
HETATM    7  N   UNK N   1      30.912  16.823   9.398  0.00  0.00    -0.303 N 
ATOM      8  HN  UNK N   1      31.135  16.695  10.384  1.00  0.00     0.186 HD
BRANCH   7   9
HETATM    9  N   UNK N   1      29.762  17.502   9.033  0.00  0.00    -0.234 N 
HETATM   10  C   UNK N   1      28.532  17.352   9.584  0.00  0.00     0.344 A 
HETATM   11  N   UNK N   1      27.619  18.143   9.025  0.00  0.00    -0.276 N 
HETATM   12  O   UNK N   1      28.268  16.581  10.495  0.00  0.00    -0.245 OA
HETATM   13  C   UNK N   1      28.254  18.844   8.071  0.00  0.00     0.245 A 
HETATM   14  H   UNK N   1      26.666  18.201   9.263  0.00  0.00     0.173 HD
HETATM   15  O   UNK N   1      27.687  19.665   7.369  0.00  0.00    -0.271 OA
HETATM   16  C   UNK N   1      29.723  18.495   7.980  0.00  0.00     0.257 A 
ENDBRANCH   7   9
ENDBRANCH   4   6
BRANCH   1  17
HETATM   17  C   UNK N   1      35.033  14.326  11.265  0.00  0.00    -0.002 A 
HETATM   18  C   UNK N   1      35.694  15.319  11.998  0.00  0.00     0.017 A 
HETATM   19  C   UNK N   1      36.307  15.021  13.207  0.00  0.00     0.037 A 
HETATM   20  C   UNK N   1      36.272  13.717  13.711  0.00  0.00     0.102 A 
HETATM   21  C   UNK N   1      35.610  12.713  12.980  0.00  0.00     0.037 A 
HETATM   22  C   UNK N   1      34.990  13.016  11.758  0.00  0.00     0.017 A 
BRANCH  20  23
HETATM   23  N   UNK N   1      36.904  13.423  14.951  0.00  0.00    -0.116 N 
HETATM   24  O   UNK N   1      37.458  14.385  15.657  0.00  0.00    -0.532 OA
HETATM   25  O   UNK N   1      36.936  12.302  15.360  0.00  0.00    -0.532 OA
ENDBRANCH  20  23
ENDBRANCH   1  17
TORSDOF 4
ENDMDL
