MODEL 1
REMARK VINA RESULT:      -4.5      0.000      0.000
REMARK  11 active torsions:
REMARK  status: ('A' for Active; 'I' for Inactive)
REMARK    1  A    between atoms: O_1  and  C_2 
REMARK    2  A    between atoms: C_2  and  C_3 
REMARK    3  A    between atoms: C_3  and  O_4 
REMARK    4  A    between atoms: C_3  and  C_5 
REMARK    5  A    between atoms: C_5  and  O_6 
REMARK    6  A    between atoms: C_5  and  C_7 
REMARK    7  A    between atoms: C_7  and  O_8 
REMARK    8  A    between atoms: C_7  and  C_9 
REMARK    9  A    between atoms: C_9  and  O_10 
REMARK   10  A    between atoms: C_9  and  C_11 
REMARK   11  A    between atoms: C_11  and  O_12 
ROOT
HETATM    1  C   UNK N   1      34.663  15.203  10.499  0.00  0.00     0.180 C 
ENDROOT
BRANCH   1   2
HETATM    2  C   UNK N   1      35.689  14.853  11.593  0.00  0.00     0.173 C 
BRANCH   2   3
HETATM    3  C   UNK N   1      35.571  13.393  12.016  0.00  0.00     0.198 C 
BRANCH   3   4
HETATM    4  O   UNK N   1      34.422  13.189  12.779  0.00  0.00    -0.398 OA
HETATM    5  H   UNK N   1      33.958  12.337  12.755  0.00  0.00     0.209 HD
ENDBRANCH   3   4
ENDBRANCH   2   3
BRANCH   2   6
HETATM    6  O   UNK N   1      36.986  15.055  11.115  0.00  0.00    -0.391 OA
HETATM    7  H   UNK N   1      37.642  14.344  11.174  0.00  0.00     0.210 HD
ENDBRANCH   2   6
ENDBRANCH   1   2
BRANCH   1   8
HETATM    8  O   UNK N   1      33.376  15.291  11.041  0.00  0.00    -0.390 OA
HETATM    9  H   UNK N   1      32.610  14.989  10.529  0.00  0.00     0.210 HD
ENDBRANCH   1   8
BRANCH   1  10
HETATM   10  C   UNK N   1      34.981  16.480   9.699  0.00  0.00     0.180 C 
BRANCH  10  11
HETATM   11  O   UNK N   1      35.581  17.426  10.537  0.00  0.00    -0.390 OA
HETATM   12  H   UNK N   1      35.106  18.237  10.777  0.00  0.00     0.210 HD
ENDBRANCH  10  11
BRANCH  10  13
HETATM   13  C   UNK N   1      33.781  17.094   8.958  0.00  0.00     0.173 C 
BRANCH  13  14
HETATM   14  O   UNK N   1      33.030  16.089   8.346  0.00  0.00    -0.391 OA
HETATM   15  H   UNK N   1      32.909  15.234   8.787  0.00  0.00     0.210 HD
ENDBRANCH  13  14
BRANCH  13  16
HETATM   16  C   UNK N   1      34.237  18.061   7.869  0.00  0.00     0.198 C 
BRANCH  16  17
HETATM   17  O   UNK N   1      35.023  19.081   8.409  0.00  0.00    -0.398 OA
HETATM   18  H   UNK N   1      35.105  19.184   9.370  0.00  0.00     0.209 HD
ENDBRANCH  16  17
ENDBRANCH  13  16
ENDBRANCH  10  13
ENDBRANCH   1  10
TORSDOF 11
ENDMDL
MODEL 2
REMARK VINA RESULT:      -4.5      0.031      4.946
REMARK  11 active torsions:
REMARK  status: ('A' for Active; 'I' for Inactive)
REMARK    1  A    between atoms: O_1  and  C_2 
REMARK    2  A    between atoms: C_2  and  C_3 
REMARK    3  A    between atoms: C_3  and  O_4 
REMARK    4  A    between atoms: C_3  and  C_5 
REMARK    5  A    between atoms: C_5  and  O_6 
REMARK    6  A    between atoms: C_5  and  C_7 
REMARK    7  A    between atoms: C_7  and  O_8 
REMARK    8  A    between atoms: C_7  and  C_9 
REMARK    9  A    between atoms: C_9  and  O_10 
REMARK   10  A    between atoms: C_9  and  C_11 
REMARK   11  A    between atoms: C_11  and  O_12 
ROOT
HETATM    1  C   UNK N   1      34.957  16.492   9.695  0.00  0.00     0.180 C 
ENDROOT
BRANCH   1   2
HETATM    2  C   UNK N   1      33.745  17.100   8.964  0.00  0.00     0.173 C 
BRANCH   2   3
HETATM    3  C   UNK N   1      34.186  18.076   7.879  0.00  0.00     0.198 C 
BRANCH   3   4
HETATM    4  O   UNK N   1      35.017  19.064   8.407  0.00  0.00    -0.398 OA
HETATM    5  H   UNK N   1      35.901  19.215   8.039  0.00  0.00     0.209 HD
ENDBRANCH   3   4
ENDBRANCH   2   3
BRANCH   2   6
HETATM    6  O   UNK N   1      32.999  16.091   8.352  0.00  0.00    -0.391 OA
HETATM    7  H   UNK N   1      33.087  15.172   8.649  0.00  0.00     0.210 HD
ENDBRANCH   2   6
ENDBRANCH   1   2
BRANCH   1   8
HETATM    8  O   UNK N   1      35.551  17.439  10.537  0.00  0.00    -0.390 OA
HETATM    9  H   UNK N   1      35.533  18.380  10.302  0.00  0.00     0.210 HD
ENDBRANCH   1   8
BRANCH   1  10
HETATM   10  C   UNK N   1      34.656  15.205  10.486  0.00  0.00     0.180 C 
BRANCH  10  11
HETATM   11  O   UNK N   1      33.372  15.280  11.039  0.00  0.00    -0.390 OA
HETATM   12  H   UNK N   1      32.597  15.044  10.506  0.00  0.00     0.210 HD
ENDBRANCH  10  11
BRANCH  10  13
HETATM   13  C   UNK N   1      35.692  14.853  11.567  0.00  0.00     0.173 C 
BRANCH  13  14
HETATM   14  O   UNK N   1      36.984  15.038  11.070  0.00  0.00    -0.391 OA
HETATM   15  H   UNK N   1      37.727  15.166  11.680  0.00  0.00     0.210 HD
ENDBRANCH  13  14
BRANCH  13  16
HETATM   16  C   UNK N   1      35.567  13.396  12.001  0.00  0.00     0.198 C 
BRANCH  16  17
HETATM   17  O   UNK N   1      34.425  13.208  12.782  0.00  0.00    -0.398 OA
HETATM   18  H   UNK N   1      33.850  13.957  13.005  0.00  0.00     0.209 HD
ENDBRANCH  16  17
ENDBRANCH  13  16
ENDBRANCH  10  13
ENDBRANCH   1  10
TORSDOF 11
ENDMDL
MODEL 3
REMARK VINA RESULT:      -4.5      1.869      3.583
REMARK  11 active torsions:
REMARK  status: ('A' for Active; 'I' for Inactive)
REMARK    1  A    between atoms: O_1  and  C_2 
REMARK    2  A    between atoms: C_2  and  C_3 
REMARK    3  A    between atoms: C_3  and  O_4 
REMARK    4  A    between atoms: C_3  and  C_5 
REMARK    5  A    between atoms: C_5  and  O_6 
REMARK    6  A    between atoms: C_5  and  C_7 
REMARK    7  A    between atoms: C_7  and  O_8 
REMARK    8  A    between atoms: C_7  and  C_9 
REMARK    9  A    between atoms: C_9  and  O_10 
REMARK   10  A    between atoms: C_9  and  C_11 
REMARK   11  A    between atoms: C_11  and  O_12 
ROOT
HETATM    1  C   UNK N   1      36.390  14.068  12.850  0.00  0.00     0.180 C 
ENDROOT
BRANCH   1   2
HETATM    2  C   UNK N   1      35.826  12.954  13.752  0.00  0.00     0.173 C 
BRANCH   2   3
HETATM    3  C   UNK N   1      36.805  12.596  14.865  0.00  0.00     0.198 C 
BRANCH   3   4
HETATM    4  O   UNK N   1      37.657  13.665  15.141  0.00  0.00    -0.398 OA
HETATM    5  H   UNK N   1      37.299  14.546  15.329  0.00  0.00     0.209 HD
ENDBRANCH   3   4
ENDBRANCH   2   3
BRANCH   2   6
HETATM    6  O   UNK N   1      34.637  13.379  14.351  0.00  0.00    -0.391 OA
HETATM    7  H   UNK N   1      34.566  13.418  15.317  0.00  0.00     0.210 HD
ENDBRANCH   2   6
ENDBRANCH   1   2
BRANCH   1   8
HETATM    8  O   UNK N   1      37.417  13.572  12.039  0.00  0.00    -0.390 OA
HETATM    9  H   UNK N   1      37.766  14.110  11.312  0.00  0.00     0.210 HD
ENDBRANCH   1   8
BRANCH   1  10
HETATM   10  C   UNK N   1      35.341  14.789  11.982  0.00  0.00     0.180 C 
BRANCH  10  11
HETATM   11  O   UNK N   1      34.266  13.931  11.728  0.00  0.00    -0.390 OA
HETATM   12  H   UNK N   1      34.408  13.098  11.252  0.00  0.00     0.210 HD
ENDBRANCH  10  11
BRANCH  10  13
HETATM   13  C   UNK N   1      35.884  15.381  10.671  0.00  0.00     0.173 C 
BRANCH  13  14
HETATM   14  O   UNK N   1      37.110  16.010  10.900  0.00  0.00    -0.391 OA
HETATM   15  H   UNK N   1      37.181  16.709  11.569  0.00  0.00     0.210 HD
ENDBRANCH  13  14
BRANCH  13  16
HETATM   16  C   UNK N   1      34.930  16.423  10.095  0.00  0.00     0.198 C 
BRANCH  16  17
HETATM   17  O   UNK N   1      35.491  17.699  10.159  0.00  0.00    -0.398 OA
HETATM   18  H   UNK N   1      35.977  18.063   9.402  0.00  0.00     0.209 HD
ENDBRANCH  16  17
ENDBRANCH  13  16
ENDBRANCH  10  13
ENDBRANCH   1  10
TORSDOF 11
ENDMDL
MODEL 4
REMARK VINA RESULT:      -4.4      1.517      2.445
REMARK  11 active torsions:
REMARK  status: ('A' for Active; 'I' for Inactive)
REMARK    1  A    between atoms: O_1  and  C_2 
REMARK    2  A    between atoms: C_2  and  C_3 
REMARK    3  A    between atoms: C_3  and  O_4 
REMARK    4  A    between atoms: C_3  and  C_5 
REMARK    5  A    between atoms: C_5  and  O_6 
REMARK    6  A    between atoms: C_5  and  C_7 
REMARK    7  A    between atoms: C_7  and  O_8 
REMARK    8  A    between atoms: C_7  and  C_9 
REMARK    9  A    between atoms: C_9  and  O_10 
REMARK   10  A    between atoms: C_9  and  C_11 
REMARK   11  A    between atoms: C_11  and  O_12 
ROOT
HETATM    1  C   UNK N   1      34.850  16.984   9.800  0.00  0.00     0.180 C 
ENDROOT
BRANCH   1   2
HETATM    2  C   UNK N   1      35.146  15.483   9.621  0.00  0.00     0.173 C 
BRANCH   2   3
HETATM    3  C   UNK N   1      34.504  14.656  10.728  0.00  0.00     0.198 C 
BRANCH   3   4
HETATM    4  O   UNK N   1      33.223  15.127  11.020  0.00  0.00    -0.398 OA
HETATM    5  H   UNK N   1      32.932  15.229  11.940  0.00  0.00     0.209 HD
ENDBRANCH   3   4
ENDBRANCH   2   3
BRANCH   2   6
HETATM    6  O   UNK N   1      34.632  15.036   8.401  0.00  0.00    -0.391 OA
HETATM    7  H   UNK N   1      34.842  14.145   8.083  0.00  0.00     0.210 HD
ENDBRANCH   2   6
ENDBRANCH   1   2
BRANCH   1   8
HETATM    8  O   UNK N   1      35.871  17.604  10.529  0.00  0.00    -0.390 OA
HETATM    9  H   UNK N   1      35.845  17.607  11.498  0.00  0.00     0.210 HD
ENDBRANCH   1   8
BRANCH   1  10
HETATM   10  C   UNK N   1      34.602  17.755   8.489  0.00  0.00     0.180 C 
BRANCH  10  11
HETATM   11  O   UNK N   1      35.250  18.994   8.540  0.00  0.00    -0.390 OA
HETATM   12  H   UNK N   1      34.768  19.806   8.320  0.00  0.00     0.210 HD
ENDBRANCH  10  11
BRANCH  10  13
HETATM   13  C   UNK N   1      33.122  17.932   8.113  0.00  0.00     0.173 C 
BRANCH  13  14
HETATM   14  O   UNK N   1      32.325  17.092   8.894  0.00  0.00    -0.391 OA
HETATM   15  H   UNK N   1      32.413  17.096   9.859  0.00  0.00     0.210 HD
ENDBRANCH  13  14
BRANCH  13  16
HETATM   16  C   UNK N   1      32.875  17.577   6.650  0.00  0.00     0.198 C 
BRANCH  16  17
HETATM   17  O   UNK N   1      34.022  17.795   5.886  0.00  0.00    -0.398 OA
HETATM   18  H   UNK N   1      34.844  18.098   6.305  0.00  0.00     0.209 HD
ENDBRANCH  16  17
ENDBRANCH  13  16
ENDBRANCH  10  13
ENDBRANCH   1  10
TORSDOF 11
ENDMDL
MODEL 5
REMARK VINA RESULT:      -4.3      1.750      5.350
REMARK  11 active torsions:
REMARK  status: ('A' for Active; 'I' for Inactive)
REMARK    1  A    between atoms: O_1  and  C_2 
REMARK    2  A    between atoms: C_2  and  C_3 
REMARK    3  A    between atoms: C_3  and  O_4 
REMARK    4  A    between atoms: C_3  and  C_5 
REMARK    5  A    between atoms: C_5  and  O_6 
REMARK    6  A    between atoms: C_5  and  C_7 
REMARK    7  A    between atoms: C_7  and  O_8 
REMARK    8  A    between atoms: C_7  and  C_9 
REMARK    9  A    between atoms: C_9  and  O_10 
REMARK   10  A    between atoms: C_9  and  C_11 
REMARK   11  A    between atoms: C_11  and  O_12 
ROOT
HETATM    1  C   UNK N   1      35.351  14.933  11.960  0.00  0.00     0.180 C 
ENDROOT
BRANCH   1   2
HETATM    2  C   UNK N   1      35.929  15.438  10.625  0.00  0.00     0.173 C 
BRANCH   2   3
HETATM    3  C   UNK N   1      34.996  16.447   9.965  0.00  0.00     0.198 C 
BRANCH   3   4
HETATM    4  O   UNK N   1      35.490  17.744  10.103  0.00  0.00    -0.398 OA
HETATM    5  H   UNK N   1      35.331  18.409   9.415  0.00  0.00     0.209 HD
ENDBRANCH   3   4
ENDBRANCH   2   3
BRANCH   2   6
HETATM    6  O   UNK N   1      37.155  16.071  10.843  0.00  0.00    -0.391 OA
HETATM    7  H   UNK N   1      37.215  16.814  11.463  0.00  0.00     0.210 HD
ENDBRANCH   2   6
ENDBRANCH   1   2
BRANCH   1   8
HETATM    8  O   UNK N   1      34.130  14.281  11.753  0.00  0.00    -0.390 OA
HETATM    9  H   UNK N   1      33.311  14.794  11.671  0.00  0.00     0.210 HD
ENDBRANCH   1   8
BRANCH   1  10
HETATM   10  C   UNK N   1      36.295  14.026  12.772  0.00  0.00     0.180 C 
BRANCH  10  11
HETATM   11  O   UNK N   1      37.359  13.609  11.964  0.00  0.00    -0.390 OA
HETATM   12  H   UNK N   1      38.266  13.616  12.309  0.00  0.00     0.210 HD
ENDBRANCH  10  11
BRANCH  10  13
HETATM   13  C   UNK N   1      35.617  12.819  13.441  0.00  0.00     0.173 C 
BRANCH  13  14
HETATM   14  O   UNK N   1      34.595  13.254  14.289  0.00  0.00    -0.391 OA
HETATM   15  H   UNK N   1      33.698  13.384  13.943  0.00  0.00     0.210 HD
ENDBRANCH  13  14
BRANCH  13  16
HETATM   16  C   UNK N   1      36.608  12.021  14.282  0.00  0.00     0.198 C 
BRANCH  16  17
HETATM   17  O   UNK N   1      37.676  12.825  14.685  0.00  0.00    -0.398 OA
HETATM   18  H   UNK N   1      38.138  12.649  15.520  0.00  0.00     0.209 HD
ENDBRANCH  16  17
ENDBRANCH  13  16
ENDBRANCH  10  13
ENDBRANCH   1  10
TORSDOF 11
ENDMDL
MODEL 6
REMARK VINA RESULT:      -4.3     15.611     17.441
REMARK  11 active torsions:
REMARK  status: ('A' for Active; 'I' for Inactive)
REMARK    1  A    between atoms: O_1  and  C_2 
REMARK    2  A    between atoms: C_2  and  C_3 
REMARK    3  A    between atoms: C_3  and  O_4 
REMARK    4  A    between atoms: C_3  and  C_5 
REMARK    5  A    between atoms: C_5  and  O_6 
REMARK    6  A    between atoms: C_5  and  C_7 
REMARK    7  A    between atoms: C_7  and  O_8 
REMARK    8  A    between atoms: C_7  and  C_9 
REMARK    9  A    between atoms: C_9  and  O_10 
REMARK   10  A    between atoms: C_9  and  C_11 
REMARK   11  A    between atoms: C_11  and  O_12 
ROOT
HETATM    1  C   UNK N   1      19.734  18.657   2.379  0.00  0.00     0.180 C 
ENDROOT
BRANCH   1   2
HETATM    2  C   UNK N   1      20.382  19.968   1.899  0.00  0.00     0.173 C 
BRANCH   2   3
HETATM    3  C   UNK N   1      21.672  20.259   2.657  0.00  0.00     0.198 C 
BRANCH   3   4
HETATM    4  O   UNK N   1      21.911  21.632   2.722  0.00  0.00    -0.398 OA
HETATM    5  H   UNK N   1      22.739  21.972   3.096  0.00  0.00     0.209 HD
ENDBRANCH   3   4
ENDBRANCH   2   3
BRANCH   2   6
HETATM    6  O   UNK N   1      20.697  19.877   0.541  0.00  0.00    -0.391 OA
HETATM    7  H   UNK N   1      20.680  20.670  -0.017  0.00  0.00     0.210 HD
ENDBRANCH   2   6
ENDBRANCH   1   2
BRANCH   1   8
HETATM    8  O   UNK N   1      18.344  18.794   2.460  0.00  0.00    -0.390 OA
HETATM    9  H   UNK N   1      17.780  18.472   1.740  0.00  0.00     0.210 HD
ENDBRANCH   1   8
BRANCH   1  10
HETATM   10  C   UNK N   1      20.088  17.415   1.539  0.00  0.00     0.180 C 
BRANCH  10  11
HETATM   11  O   UNK N   1      19.088  17.187   0.588  0.00  0.00    -0.390 OA
HETATM   12  H   UNK N   1      19.200  17.500  -0.323  0.00  0.00     0.210 HD
ENDBRANCH  10  11
BRANCH  10  13
HETATM   13  C   UNK N   1      20.363  16.140   2.354  0.00  0.00     0.173 C 
BRANCH  13  14
HETATM   14  O   UNK N   1      21.709  16.087   2.722  0.00  0.00    -0.391 OA
HETATM   15  H   UNK N   1      22.249  15.316   2.488  0.00  0.00     0.210 HD
ENDBRANCH  13  14
BRANCH  13  16
HETATM   16  C   UNK N   1      20.056  14.886   1.541  0.00  0.00     0.198 C 
BRANCH  16  17
HETATM   17  O   UNK N   1      18.754  14.444   1.784  0.00  0.00    -0.398 OA
HETATM   18  H   UNK N   1      18.081  14.484   1.086  0.00  0.00     0.209 HD
ENDBRANCH  16  17
ENDBRANCH  13  16
ENDBRANCH  10  13
ENDBRANCH   1  10
TORSDOF 11
ENDMDL
MODEL 7
REMARK VINA RESULT:      -4.2      1.373      4.499
REMARK  11 active torsions:
REMARK  status: ('A' for Active; 'I' for Inactive)
REMARK    1  A    between atoms: O_1  and  C_2 
REMARK    2  A    between atoms: C_2  and  C_3 
REMARK    3  A    between atoms: C_3  and  O_4 
REMARK    4  A    between atoms: C_3  and  C_5 
REMARK    5  A    between atoms: C_5  and  O_6 
REMARK    6  A    between atoms: C_5  and  C_7 
REMARK    7  A    between atoms: C_7  and  O_8 
REMARK    8  A    between atoms: C_7  and  C_9 
REMARK    9  A    between atoms: C_9  and  O_10 
REMARK   10  A    between atoms: C_9  and  C_11 
REMARK   11  A    between atoms: C_11  and  O_12 
ROOT
HETATM    1  C   UNK N   1      34.730  15.968  11.041  0.00  0.00     0.180 C 
ENDROOT
BRANCH   1   2
HETATM    2  C   UNK N   1      34.808  16.349   9.552  0.00  0.00     0.173 C 
BRANCH   2   3
HETATM    3  C   UNK N   1      33.480  16.101   8.846  0.00  0.00     0.198 C 
BRANCH   3   4
HETATM    4  O   UNK N   1      32.507  16.998   9.288  0.00  0.00    -0.398 OA
HETATM    5  H   UNK N   1      31.775  17.257   8.709  0.00  0.00     0.209 HD
ENDBRANCH   3   4
ENDBRANCH   2   3
BRANCH   2   6
HETATM    6  O   UNK N   1      35.113  17.706   9.421  0.00  0.00    -0.391 OA
HETATM    7  H   UNK N   1      34.790  18.205   8.655  0.00  0.00     0.210 HD
ENDBRANCH   2   6
ENDBRANCH   1   2
BRANCH   1   8
HETATM    8  O   UNK N   1      33.792  14.948  11.240  0.00  0.00    -0.390 OA
HETATM    9  H   UNK N   1      33.011  15.105  11.793  0.00  0.00     0.210 HD
ENDBRANCH   1   8
BRANCH   1  10
HETATM   10  C   UNK N   1      36.075  15.571  11.679  0.00  0.00     0.180 C 
BRANCH  10  11
HETATM   11  O   UNK N   1      37.129  16.011  10.871  0.00  0.00    -0.390 OA
HETATM   12  H   UNK N   1      37.701  16.737  11.167  0.00  0.00     0.210 HD
ENDBRANCH  10  11
BRANCH  10  13
HETATM   13  C   UNK N   1      36.223  14.074  11.998  0.00  0.00     0.173 C 
BRANCH  13  14
HETATM   14  O   UNK N   1      36.933  13.906  13.189  0.00  0.00    -0.391 OA
HETATM   15  H   UNK N   1      36.892  13.062  13.666  0.00  0.00     0.210 HD
ENDBRANCH  13  14
BRANCH  13  16
HETATM   16  C   UNK N   1      36.987  13.345  10.897  0.00  0.00     0.198 C 
BRANCH  16  17
HETATM   17  O   UNK N   1      38.356  13.332  11.169  0.00  0.00    -0.398 OA
HETATM   18  H   UNK N   1      39.000  13.204  10.454  0.00  0.00     0.209 HD
ENDBRANCH  16  17
ENDBRANCH  13  16
ENDBRANCH  10  13
ENDBRANCH   1  10
TORSDOF 11
ENDMDL
MODEL 8
REMARK VINA RESULT:      -4.0     12.145     13.654
REMARK  11 active torsions:
REMARK  status: ('A' for Active; 'I' for Inactive)
REMARK    1  A    between atoms: O_1  and  C_2 
REMARK    2  A    between atoms: C_2  and  C_3 
REMARK    3  A    between atoms: C_3  and  O_4 
REMARK    4  A    between atoms: C_3  and  C_5 
REMARK    5  A    between atoms: C_5  and  O_6 
REMARK    6  A    between atoms: C_5  and  C_7 
REMARK    7  A    between atoms: C_7  and  O_8 
REMARK    8  A    between atoms: C_7  and  C_9 
REMARK    9  A    between atoms: C_9  and  O_10 
REMARK   10  A    between atoms: C_9  and  C_11 
REMARK   11  A    between atoms: C_11  and  O_12 
ROOT
HETATM    1  C   UNK N   1      43.395  23.011   2.152  0.00  0.00     0.180 C 
ENDROOT
BRANCH   1   2
HETATM    2  C   UNK N   1      41.976  23.097   1.563  0.00  0.00     0.173 C 
BRANCH   2   3
HETATM    3  C   UNK N   1      41.107  21.939   2.041  0.00  0.00     0.198 C 
BRANCH   3   4
HETATM    4  O   UNK N   1      41.540  20.733   1.489  0.00  0.00    -0.398 OA
HETATM    5  H   UNK N   1      40.985  19.940   1.538  0.00  0.00     0.209 HD
ENDBRANCH   3   4
ENDBRANCH   2   3
BRANCH   2   6
HETATM    6  O   UNK N   1      41.361  24.285   1.966  0.00  0.00    -0.391 OA
HETATM    7  H   UNK N   1      41.836  24.910   2.535  0.00  0.00     0.210 HD
ENDBRANCH   2   6
ENDBRANCH   1   2
BRANCH   1   8
HETATM    8  O   UNK N   1      44.125  24.167   1.852  0.00  0.00    -0.390 OA
HETATM    9  H   UNK N   1      43.674  25.023   1.780  0.00  0.00     0.210 HD
ENDBRANCH   1   8
BRANCH   1  10
HETATM   10  C   UNK N   1      43.451  22.739   3.668  0.00  0.00     0.180 C 
BRANCH  10  11
HETATM   11  O   UNK N   1      43.470  23.951   4.365  0.00  0.00    -0.390 OA
HETATM   12  H   UNK N   1      43.135  24.761   3.948  0.00  0.00     0.210 HD
ENDBRANCH  10  11
BRANCH  10  13
HETATM   13  C   UNK N   1      44.610  21.834   4.120  0.00  0.00     0.173 C 
BRANCH  13  14
HETATM   14  O   UNK N   1      45.810  22.548   4.101  0.00  0.00    -0.391 OA
HETATM   15  H   UNK N   1      46.173  22.912   4.923  0.00  0.00     0.210 HD
ENDBRANCH  13  14
BRANCH  13  16
HETATM   16  C   UNK N   1      44.770  20.633   3.195  0.00  0.00     0.198 C 
BRANCH  16  17
HETATM   17  O   UNK N   1      43.673  19.775   3.302  0.00  0.00    -0.398 OA
HETATM   18  H   UNK N   1      43.077  19.640   2.549  0.00  0.00     0.209 HD
ENDBRANCH  16  17
ENDBRANCH  13  16
ENDBRANCH  10  13
ENDBRANCH   1  10
TORSDOF 11
ENDMDL
MODEL 9
REMARK VINA RESULT:      -4.0      1.937      4.041
REMARK  11 active torsions:
REMARK  status: ('A' for Active; 'I' for Inactive)
REMARK    1  A    between atoms: O_1  and  C_2 
REMARK    2  A    between atoms: C_2  and  C_3 
REMARK    3  A    between atoms: C_3  and  O_4 
REMARK    4  A    between atoms: C_3  and  C_5 
REMARK    5  A    between atoms: C_5  and  O_6 
REMARK    6  A    between atoms: C_5  and  C_7 
REMARK    7  A    between atoms: C_7  and  O_8 
REMARK    8  A    between atoms: C_7  and  C_9 
REMARK    9  A    between atoms: C_9  and  O_10 
REMARK   10  A    between atoms: C_9  and  C_11 
REMARK   11  A    between atoms: C_11  and  O_12 
ROOT
HETATM    1  C   UNK N   1      34.800  15.312  11.031  0.00  0.00     0.180 C 
ENDROOT
BRANCH   1   2
HETATM    2  C   UNK N   1      34.148  15.745   9.705  0.00  0.00     0.173 C 
BRANCH   2   3
HETATM    3  C   UNK N   1      32.859  14.975   9.445  0.00  0.00     0.198 C 
BRANCH   3   4
HETATM    4  O   UNK N   1      31.888  15.296  10.395  0.00  0.00    -0.398 OA
HETATM    5  H   UNK N   1      30.960  15.058  10.252  0.00  0.00     0.209 HD
ENDBRANCH   3   4
ENDBRANCH   2   3
BRANCH   2   6
HETATM    6  O   UNK N   1      33.831  17.105   9.749  0.00  0.00    -0.391 OA
HETATM    7  H   UNK N   1      34.502  17.768   9.525  0.00  0.00     0.210 HD
ENDBRANCH   2   6
ENDBRANCH   1   2
BRANCH   1   8
HETATM    8  O   UNK N   1      34.075  14.269  11.619  0.00  0.00    -0.390 OA
HETATM    9  H   UNK N   1      34.421  13.363  11.597  0.00  0.00     0.210 HD
ENDBRANCH   1   8
BRANCH   1  10
HETATM   10  C   UNK N   1      36.286  14.920  10.924  0.00  0.00     0.180 C 
BRANCH  10  11
HETATM   11  O   UNK N   1      37.078  16.072  10.899  0.00  0.00    -0.390 OA
HETATM   12  H   UNK N   1      36.952  16.766  11.565  0.00  0.00     0.210 HD
ENDBRANCH  10  11
BRANCH  10  13
HETATM   13  C   UNK N   1      36.628  14.000   9.740  0.00  0.00     0.173 C 
BRANCH  13  14
HETATM   14  O   UNK N   1      36.028  12.750   9.915  0.00  0.00    -0.391 OA
HETATM   15  H   UNK N   1      35.447  12.591  10.674  0.00  0.00     0.210 HD
ENDBRANCH  13  14
BRANCH  13  16
HETATM   16  C   UNK N   1      38.133  13.779   9.626  0.00  0.00     0.198 C 
BRANCH  16  17
HETATM   17  O   UNK N   1      38.690  13.503  10.876  0.00  0.00    -0.398 OA
HETATM   18  H   UNK N   1      39.212  12.697  11.017  0.00  0.00     0.209 HD
ENDBRANCH  16  17
ENDBRANCH  13  16
ENDBRANCH  10  13
ENDBRANCH   1  10
TORSDOF 11
ENDMDL
