MODEL 1
REMARK VINA RESULT:      -5.4      0.000      0.000
REMARK  1 active torsions:
REMARK  status: ('A' for Active; 'I' for Inactive)
REMARK    1  A    between atoms: C_1  and  C_2 
ROOT
HETATM    1  C   UNK N   1      36.120  11.354  15.372  0.00  0.00     0.187 C 
HETATM    2  C   UNK N   1      35.046  11.543  14.266  0.00  0.00     0.251 C 
HETATM    3  O   UNK N   1      37.318  11.964  14.961  0.00  0.00    -0.377 OA
HETATM    4  N   UNK N   1      35.537  10.985  12.991  0.00  0.00     0.093 N 
HETATM    5  C   UNK N   1      33.757  10.825  14.653  0.00  0.00     0.046 C 
HETATM    6  C   UNK N   1      37.799  11.200  13.888  0.00  0.00     0.199 C 
HETATM    7  C   UNK N   1      36.893  11.446  12.688  0.00  0.00     0.298 C 
HETATM    8  C   UNK N   1      34.690  11.470  11.911  0.00  0.00     0.310 C 
ENDROOT
BRANCH   1   9
HETATM    9  C   UNK N   1      35.764  11.866  16.749  0.00  0.00    -0.027 A 
HETATM   10  C   UNK N   1      35.706  11.021  17.871  0.00  0.00     0.010 A 
HETATM   11  C   UNK N   1      35.378  11.538  19.128  0.00  0.00     0.001 A 
HETATM   12  C   UNK N   1      35.097  12.899  19.274  0.00  0.00     0.000 A 
HETATM   13  C   UNK N   1      35.145  13.744  18.162  0.00  0.00     0.001 A 
HETATM   14  C   UNK N   1      35.481  13.229  16.907  0.00  0.00     0.010 A 
ENDBRANCH   1   9
TORSDOF 1
ENDMDL
MODEL 2
REMARK VINA RESULT:      -5.3      1.861      2.735
REMARK  1 active torsions:
REMARK  status: ('A' for Active; 'I' for Inactive)
REMARK    1  A    between atoms: C_1  and  C_2 
ROOT
HETATM    1  C   UNK N   1      36.132  13.099  14.041  0.00  0.00     0.187 C 
HETATM    2  C   UNK N   1      36.311  11.556  14.056  0.00  0.00     0.251 C 
HETATM    3  O   UNK N   1      34.904  13.415  13.433  0.00  0.00    -0.377 OA
HETATM    4  N   UNK N   1      36.228  11.029  12.682  0.00  0.00     0.093 N 
HETATM    5  C   UNK N   1      37.670  11.188  14.643  0.00  0.00     0.046 C 
HETATM    6  C   UNK N   1      35.039  13.076  12.079  0.00  0.00     0.199 C 
HETATM    7  C   UNK N   1      35.062  11.556  11.971  0.00  0.00     0.298 C 
HETATM    8  C   UNK N   1      36.051   9.586  12.743  0.00  0.00     0.310 C 
ENDROOT
BRANCH   1   9
HETATM    9  C   UNK N   1      36.202  13.798  15.379  0.00  0.00    -0.027 A 
HETATM   10  C   UNK N   1      35.397  13.417  16.467  0.00  0.00     0.010 A 
HETATM   11  C   UNK N   1      35.499  14.087  17.690  0.00  0.00     0.001 A 
HETATM   12  C   UNK N   1      36.398  15.147  17.834  0.00  0.00     0.000 A 
HETATM   13  C   UNK N   1      37.196  15.536  16.756  0.00  0.00     0.001 A 
HETATM   14  C   UNK N   1      37.101  14.862  15.537  0.00  0.00     0.010 A 
ENDBRANCH   1   9
TORSDOF 1
ENDMDL
MODEL 3
REMARK VINA RESULT:      -5.2      8.263     11.614
REMARK  1 active torsions:
REMARK  status: ('A' for Active; 'I' for Inactive)
REMARK    1  A    between atoms: C_1  and  C_2 
ROOT
HETATM    1  C   UNK N   1      33.443  17.092   6.878  0.00  0.00     0.187 C 
HETATM    2  C   UNK N   1      33.446  15.879   7.849  0.00  0.00     0.251 C 
HETATM    3  O   UNK N   1      34.648  17.801   7.022  0.00  0.00    -0.377 OA
HETATM    4  N   UNK N   1      33.645  16.347   9.234  0.00  0.00     0.093 N 
HETATM    5  C   UNK N   1      32.117  15.133   7.768  0.00  0.00     0.046 C 
HETATM    6  C   UNK N   1      34.608  18.387   8.295  0.00  0.00     0.199 C 
HETATM    7  C   UNK N   1      34.768  17.281   9.331  0.00  0.00     0.298 C 
HETATM    8  C   UNK N   1      33.988  15.206  10.069  0.00  0.00     0.310 C 
ENDROOT
BRANCH   1   9
HETATM    9  C   UNK N   1      33.237  16.780   5.414  0.00  0.00    -0.027 A 
HETATM   10  C   UNK N   1      33.931  15.744   4.763  0.00  0.00     0.010 A 
HETATM   11  C   UNK N   1      33.706  15.486   3.408  0.00  0.00     0.001 A 
HETATM   12  C   UNK N   1      32.795  16.264   2.689  0.00  0.00     0.000 A 
HETATM   13  C   UNK N   1      32.107  17.300   3.326  0.00  0.00     0.001 A 
HETATM   14  C   UNK N   1      32.326  17.553   4.682  0.00  0.00     0.010 A 
ENDBRANCH   1   9
TORSDOF 1
ENDMDL
MODEL 4
REMARK VINA RESULT:      -5.1      2.006      2.582
REMARK  1 active torsions:
REMARK  status: ('A' for Active; 'I' for Inactive)
REMARK    1  A    between atoms: C_1  and  C_2 
ROOT
HETATM    1  C   UNK N   1      36.507  12.727  14.405  0.00  0.00     0.187 C 
HETATM    2  C   UNK N   1      36.633  13.407  13.014  0.00  0.00     0.251 C 
HETATM    3  O   UNK N   1      37.591  11.852  14.591  0.00  0.00    -0.377 OA
HETATM    4  N   UNK N   1      36.696  12.379  11.958  0.00  0.00     0.093 N 
HETATM    5  C   UNK N   1      35.428  14.306  12.753  0.00  0.00     0.046 C 
HETATM    6  C   UNK N   1      37.407  10.801  13.683  0.00  0.00     0.199 C 
HETATM    7  C   UNK N   1      37.670  11.334  12.280  0.00  0.00     0.298 C 
HETATM    8  C   UNK N   1      37.155  13.000  10.725  0.00  0.00     0.310 C 
ENDROOT
BRANCH   1   9
HETATM    9  C   UNK N   1      36.420  13.651  15.598  0.00  0.00    -0.027 A 
HETATM   10  C   UNK N   1      35.545  13.408  16.672  0.00  0.00     0.010 A 
HETATM   11  C   UNK N   1      35.501  14.285  17.759  0.00  0.00     0.001 A 
HETATM   12  C   UNK N   1      36.322  15.416  17.780  0.00  0.00     0.000 A 
HETATM   13  C   UNK N   1      37.188  15.669  16.714  0.00  0.00     0.001 A 
HETATM   14  C   UNK N   1      37.239  14.788  15.631  0.00  0.00     0.010 A 
ENDBRANCH   1   9
TORSDOF 1
ENDMDL
MODEL 5
REMARK VINA RESULT:      -5.1      1.336      2.466
REMARK  1 active torsions:
REMARK  status: ('A' for Active; 'I' for Inactive)
REMARK    1  A    between atoms: C_1  and  C_2 
ROOT
HETATM    1  C   UNK N   1      34.975  11.891  15.675  0.00  0.00     0.187 C 
HETATM    2  C   UNK N   1      36.213  12.119  14.766  0.00  0.00     0.251 C 
HETATM    3  O   UNK N   1      34.376  10.664  15.338  0.00  0.00    -0.377 OA
HETATM    4  N   UNK N   1      35.809  12.078  13.348  0.00  0.00     0.093 N 
HETATM    5  C   UNK N   1      36.840  13.479  15.059  0.00  0.00     0.046 C 
HETATM    6  C   UNK N   1      33.830  10.834  14.058  0.00  0.00     0.199 C 
HETATM    7  C   UNK N   1      34.977  10.907  13.059  0.00  0.00     0.298 C 
HETATM    8  C   UNK N   1      37.001  11.946  12.525  0.00  0.00     0.310 C 
ENDROOT
BRANCH   1   9
HETATM    9  C   UNK N   1      35.221  11.915  17.166  0.00  0.00    -0.027 A 
HETATM   10  C   UNK N   1      34.979  13.058  17.947  0.00  0.00     0.010 A 
HETATM   11  C   UNK N   1      35.216  13.035  19.325  0.00  0.00     0.001 A 
HETATM   12  C   UNK N   1      35.704  11.875  19.932  0.00  0.00     0.000 A 
HETATM   13  C   UNK N   1      35.955  10.737  19.161  0.00  0.00     0.001 A 
HETATM   14  C   UNK N   1      35.711  10.757  17.786  0.00  0.00     0.010 A 
ENDBRANCH   1   9
TORSDOF 1
ENDMDL
MODEL 6
REMARK VINA RESULT:      -5.1     14.449     16.290
REMARK  1 active torsions:
REMARK  status: ('A' for Active; 'I' for Inactive)
REMARK    1  A    between atoms: C_1  and  C_2 
ROOT
HETATM    1  C   UNK N   1      21.581  14.341   8.354  0.00  0.00     0.187 C 
HETATM    2  C   UNK N   1      20.797  13.659   7.200  0.00  0.00     0.251 C 
HETATM    3  O   UNK N   1      20.857  15.458   8.806  0.00  0.00    -0.377 OA
HETATM    4  N   UNK N   1      20.552  14.630   6.117  0.00  0.00     0.093 N 
HETATM    5  C   UNK N   1      21.596  12.487   6.639  0.00  0.00     0.046 C 
HETATM    6  C   UNK N   1      20.896  16.398   7.767  0.00  0.00     0.199 C 
HETATM    7  C   UNK N   1      20.014  15.890   6.634  0.00  0.00     0.298 C 
HETATM    8  C   UNK N   1      19.540  14.089   5.222  0.00  0.00     0.310 C 
ENDROOT
BRANCH   1   9
HETATM    9  C   UNK N   1      21.921  13.472   9.542  0.00  0.00    -0.027 A 
HETATM   10  C   UNK N   1      23.245  13.121   9.860  0.00  0.00     0.010 A 
HETATM   11  C   UNK N   1      23.516  12.319  10.973  0.00  0.00     0.001 A 
HETATM   12  C   UNK N   1      22.468  11.853  11.771  0.00  0.00     0.000 A 
HETATM   13  C   UNK N   1      21.149  12.190  11.457  0.00  0.00     0.001 A 
HETATM   14  C   UNK N   1      20.879  12.998  10.350  0.00  0.00     0.010 A 
ENDBRANCH   1   9
TORSDOF 1
ENDMDL
MODEL 7
REMARK VINA RESULT:      -5.1     13.898     15.777
REMARK  1 active torsions:
REMARK  status: ('A' for Active; 'I' for Inactive)
REMARK    1  A    between atoms: C_1  and  C_2 
ROOT
HETATM    1  C   UNK N   1      21.428  12.876   8.288  0.00  0.00     0.187 C 
HETATM    2  C   UNK N   1      21.287  14.365   7.870  0.00  0.00     0.251 C 
HETATM    3  O   UNK N   1      21.805  12.117   7.167  0.00  0.00    -0.377 OA
HETATM    4  N   UNK N   1      20.311  14.488   6.771  0.00  0.00     0.093 N 
HETATM    5  C   UNK N   1      20.805  15.202   9.052  0.00  0.00     0.046 C 
HETATM    6  C   UNK N   1      20.703  12.123   6.300  0.00  0.00     0.199 C 
HETATM    7  C   UNK N   1      20.576  13.520   5.705  0.00  0.00     0.298 C 
HETATM    8  C   UNK N   1      20.446  15.806   6.169  0.00  0.00     0.310 C 
ENDROOT
BRANCH   1   9
HETATM    9  C   UNK N   1      22.388  12.582   9.417  0.00  0.00    -0.027 A 
HETATM   10  C   UNK N   1      23.783  12.656   9.254  0.00  0.00     0.010 A 
HETATM   11  C   UNK N   1      24.635  12.382  10.327  0.00  0.00     0.001 A 
HETATM   12  C   UNK N   1      24.104  12.022  11.569  0.00  0.00     0.000 A 
HETATM   13  C   UNK N   1      22.719  11.938  11.737  0.00  0.00     0.001 A 
HETATM   14  C   UNK N   1      21.867  12.221  10.667  0.00  0.00     0.010 A 
ENDBRANCH   1   9
TORSDOF 1
ENDMDL
MODEL 8
REMARK VINA RESULT:      -4.9     26.565     28.245
REMARK  1 active torsions:
REMARK  status: ('A' for Active; 'I' for Inactive)
REMARK    1  A    between atoms: C_1  and  C_2 
ROOT
HETATM    1  C   UNK N   1      26.412  25.990  -7.217  0.00  0.00     0.187 C 
HETATM    2  C   UNK N   1      26.096  24.581  -6.647  0.00  0.00     0.251 C 
HETATM    3  O   UNK N   1      25.491  26.293  -8.235  0.00  0.00    -0.377 OA
HETATM    4  N   UNK N   1      26.130  23.582  -7.732  0.00  0.00     0.093 N 
HETATM    5  C   UNK N   1      27.127  24.194  -5.591  0.00  0.00     0.046 C 
HETATM    6  C   UNK N   1      25.781  25.426  -9.297  0.00  0.00     0.199 C 
HETATM    7  C   UNK N   1      25.352  24.021  -8.893  0.00  0.00     0.298 C 
HETATM    8  C   UNK N   1      25.504  22.356  -7.261  0.00  0.00     0.310 C 
ENDROOT
BRANCH   1   9
HETATM    9  C   UNK N   1      26.427  27.129  -6.224  0.00  0.00    -0.027 A 
HETATM   10  C   UNK N   1      25.504  27.214  -5.166  0.00  0.00     0.010 A 
HETATM   11  C   UNK N   1      25.558  28.282  -4.266  0.00  0.00     0.001 A 
HETATM   12  C   UNK N   1      26.525  29.279  -4.419  0.00  0.00     0.000 A 
HETATM   13  C   UNK N   1      27.440  29.207  -5.473  0.00  0.00     0.001 A 
HETATM   14  C   UNK N   1      27.392  28.135  -6.367  0.00  0.00     0.010 A 
ENDBRANCH   1   9
TORSDOF 1
ENDMDL
MODEL 9
REMARK VINA RESULT:      -4.9      7.710     10.878
REMARK  1 active torsions:
REMARK  status: ('A' for Active; 'I' for Inactive)
REMARK    1  A    between atoms: C_1  and  C_2 
ROOT
HETATM    1  C   UNK N   1      34.043  16.097   7.196  0.00  0.00     0.187 C 
HETATM    2  C   UNK N   1      34.222  16.834   8.551  0.00  0.00     0.251 C 
HETATM    3  O   UNK N   1      33.811  14.732   7.440  0.00  0.00    -0.377 OA
HETATM    4  N   UNK N   1      35.324  16.219   9.314  0.00  0.00     0.093 N 
HETATM    5  C   UNK N   1      34.549  18.305   8.314  0.00  0.00     0.046 C 
HETATM    6  C   UNK N   1      35.011  14.217   7.950  0.00  0.00     0.199 C 
HETATM    7  C   UNK N   1      35.199  14.761   9.361  0.00  0.00     0.298 C 
HETATM    8  C   UNK N   1      35.253  16.679  10.693  0.00  0.00     0.310 C 
ENDROOT
BRANCH   1   9
HETATM    9  C   UNK N   1      32.953  16.617   6.287  0.00  0.00    -0.027 A 
HETATM   10  C   UNK N   1      31.598  16.615   6.662  0.00  0.00     0.010 A 
HETATM   11  C   UNK N   1      30.624  17.111   5.792  0.00  0.00     0.001 A 
HETATM   12  C   UNK N   1      30.991  17.605   4.537  0.00  0.00     0.000 A 
HETATM   13  C   UNK N   1      32.334  17.603   4.153  0.00  0.00     0.001 A 
HETATM   14  C   UNK N   1      33.310  17.115   5.026  0.00  0.00     0.010 A 
ENDBRANCH   1   9
TORSDOF 1
ENDMDL
