MODEL 1
REMARK VINA RESULT:      -6.1      0.000      0.000
REMARK  14 active torsions:
REMARK  status: ('A' for Active; 'I' for Inactive)
REMARK    1  A    between atoms: C_1  and  C_4 
REMARK       I    between atoms: N_5  and  C_4 
REMARK    2  A    between atoms: C_6  and  N_5 
REMARK    3  A    between atoms: C_7  and  C_6 
REMARK    4  A    between atoms: O_15  and  C_7 
REMARK    5  A    between atoms: C_8  and  C_9 
REMARK    6  A    between atoms: O_16  and  C_8 
REMARK    7  A    between atoms: C_9  and  C_20 
REMARK    8  A    between atoms: C_9  and  N_14 
REMARK    9  A    between atoms: C_21  and  C_13 
REMARK   10  A    between atoms: S_19  and  C_22 
REMARK   11  A    between atoms: C_20  and  S_19 
REMARK   12  A    between atoms: C_23  and  C_21 
REMARK   13  A    between atoms: C_22  and  C_24 
REMARK   14  A    between atoms: C_24  and  C_23 
ROOT
HETATM    1  C   UNK N   1      19.985  16.501   8.264  0.00  0.00     0.105 C 
HETATM    2  C   UNK N   1      19.600  16.269   7.000  0.00  0.00     0.010 C 
ENDROOT
BRANCH   2   3
HETATM    3  C   UNK N   1      20.118  15.132   6.184  0.00  0.00     0.030 C 
BRANCH   3   4
HETATM    4  C   UNK N   1      21.399  15.585   5.508  0.00  0.00     0.005 C 
BRANCH   4   5
HETATM    5  C   UNK N   1      21.454  15.127   4.060  0.00  0.00     0.010 C 
BRANCH   5   6
HETATM    6  C   UNK N   1      20.113  15.321   3.371  0.00  0.00     0.074 C 
BRANCH   6   7
HETATM    7  S   UNK N   1      20.373  16.164   1.787  0.00  0.00    -0.167 SA
BRANCH   7   8
HETATM    8  C   UNK N   1      20.901  17.732   2.569  0.00  0.00     0.109 C 
BRANCH   8   9
HETATM    9  C   UNK N   1      20.137  18.984   2.106  0.00  0.00     0.182 C 
BRANCH   9  10
HETATM   10  C   UNK N   1      20.680  20.277   2.651  0.00  0.00     0.163 C 
HETATM   11  O   UNK N   1      21.415  20.983   1.978  0.00  0.00    -0.648 OA
BRANCH  10  12
HETATM   12  O   UNK N   1      20.322  20.678   3.886  0.00  0.00    -0.775 OA
HETATM   13  H   UNK N   1      19.721  21.268   4.294  0.00  0.00     0.167 HD
ENDBRANCH  10  12
ENDBRANCH   9  10
BRANCH   9  14
HETATM   14  N   UNK N   1      18.708  18.882   2.362  0.00  0.00    -0.417 N 
HETATM   15  H   UNK N   1      17.917  18.419   1.913  0.00  0.00     0.150 HD
HETATM   16  H   UNK N   1      18.428  19.402   3.195  0.00  0.00     0.150 HD
ENDBRANCH   9  14
ENDBRANCH   8   9
ENDBRANCH   7   8
ENDBRANCH   6   7
ENDBRANCH   5   6
ENDBRANCH   4   5
ENDBRANCH   3   4
ENDBRANCH   2   3
BRANCH   1  17
HETATM   17  N   UNK N   1      20.909  15.603   8.889  0.00  0.00    -0.322 N 
HETATM   18  C   UNK N   1      20.592  14.443   9.535  0.00  0.00     0.227 C 
HETATM   19  O   UNK N   1      19.427  14.136   9.728  0.00  0.00    -0.273 OA
HETATM   20  H   UNK N   1      21.862  15.844   8.849  0.00  0.00     0.169 HD
BRANCH  18  21
HETATM   21  C   UNK N   1      21.670  13.558  10.119  0.00  0.00     0.086 A 
HETATM   22  C   UNK N   1      22.154  12.439   9.203  0.00  0.00    -0.035 A 
HETATM   23  C   UNK N   1      21.581  12.265   7.805  0.00  0.00     0.015 C 
HETATM   24  C   UNK N   1      22.838  11.263   9.867  0.00  0.00     0.015 C 
HETATM   25  C   UNK N   1      22.980  13.695   9.345  0.00  0.00     0.024 A 
ENDBRANCH  18  21
ENDBRANCH   1  17
BRANCH   1  26
HETATM   26  C   UNK N   1      19.378  17.662   8.977  0.00  0.00     0.193 C 
HETATM   27  O   UNK N   1      19.979  18.723   9.038  0.00  0.00    -0.645 OA
BRANCH  26  28
HETATM   28  O   UNK N   1      18.144  17.581   9.508  0.00  0.00    -0.772 OA
HETATM   29  H   UNK N   1      17.428  18.058   9.137  0.00  0.00     0.167 HD
ENDBRANCH  26  28
ENDBRANCH   1  26
TORSDOF 14
ENDMDL
MODEL 2
REMARK VINA RESULT:      -6.0      3.355      7.175
REMARK  14 active torsions:
REMARK  status: ('A' for Active; 'I' for Inactive)
REMARK    1  A    between atoms: C_1  and  C_4 
REMARK       I    between atoms: N_5  and  C_4 
REMARK    2  A    between atoms: C_6  and  N_5 
REMARK    3  A    between atoms: C_7  and  C_6 
REMARK    4  A    between atoms: O_15  and  C_7 
REMARK    5  A    between atoms: C_8  and  C_9 
REMARK    6  A    between atoms: O_16  and  C_8 
REMARK    7  A    between atoms: C_9  and  C_20 
REMARK    8  A    between atoms: C_9  and  N_14 
REMARK    9  A    between atoms: C_21  and  C_13 
REMARK   10  A    between atoms: S_19  and  C_22 
REMARK   11  A    between atoms: C_20  and  S_19 
REMARK   12  A    between atoms: C_23  and  C_21 
REMARK   13  A    between atoms: C_22  and  C_24 
REMARK   14  A    between atoms: C_24  and  C_23 
ROOT
HETATM    1  C   UNK N   1      21.903  19.367   3.389  0.00  0.00     0.105 C 
HETATM    2  C   UNK N   1      21.446  18.124   3.178  0.00  0.00     0.010 C 
ENDROOT
BRANCH   2   3
HETATM    3  C   UNK N   1      22.242  16.899   3.477  0.00  0.00     0.030 C 
BRANCH   3   4
HETATM    4  C   UNK N   1      21.540  16.143   4.591  0.00  0.00     0.005 C 
BRANCH   4   5
HETATM    5  C   UNK N   1      20.049  16.434   4.604  0.00  0.00     0.010 C 
BRANCH   5   6
HETATM    6  C   UNK N   1      19.446  16.154   5.971  0.00  0.00     0.074 C 
BRANCH   6   7
HETATM    7  S   UNK N   1      20.511  14.991   6.866  0.00  0.00    -0.167 SA
BRANCH   7   8
HETATM    8  C   UNK N   1      20.344  15.873   8.460  0.00  0.00     0.109 C 
BRANCH   8   9
HETATM    9  C   UNK N   1      19.334  17.034   8.463  0.00  0.00     0.182 C 
BRANCH   9  10
HETATM   10  C   UNK N   1      19.943  18.383   8.731  0.00  0.00     0.163 C 
HETATM   11  O   UNK N   1      19.820  18.923   9.819  0.00  0.00    -0.648 OA
BRANCH  10  12
HETATM   12  O   UNK N   1      20.664  18.988   7.767  0.00  0.00    -0.775 OA
HETATM   13  H   UNK N   1      21.225  19.729   7.661  0.00  0.00     0.167 HD
ENDBRANCH  10  12
ENDBRANCH   9  10
BRANCH   9  14
HETATM   14  N   UNK N   1      18.218  16.789   9.364  0.00  0.00    -0.417 N 
HETATM   15  H   UNK N   1      17.413  17.325   9.692  0.00  0.00     0.150 HD
HETATM   16  H   UNK N   1      18.246  15.852   9.768  0.00  0.00     0.150 HD
ENDBRANCH   9  14
ENDBRANCH   8   9
ENDBRANCH   7   8
ENDBRANCH   6   7
ENDBRANCH   5   6
ENDBRANCH   4   5
ENDBRANCH   3   4
ENDBRANCH   2   3
BRANCH   1  17
HETATM   17  N   UNK N   1      23.204  19.545   3.962  0.00  0.00    -0.322 N 
HETATM   18  C   UNK N   1      24.226  20.271   3.425  0.00  0.00     0.227 C 
HETATM   19  O   UNK N   1      24.129  20.752   2.307  0.00  0.00    -0.273 OA
HETATM   20  H   UNK N   1      23.376  19.101   4.823  0.00  0.00     0.169 HD
BRANCH  18  21
HETATM   21  C   UNK N   1      25.544  20.416   4.152  0.00  0.00     0.086 A 
HETATM   22  C   UNK N   1      26.392  19.150   4.211  0.00  0.00    -0.035 A 
HETATM   23  C   UNK N   1      25.922  17.859   3.562  0.00  0.00     0.015 C 
HETATM   24  C   UNK N   1      27.442  19.084   5.301  0.00  0.00     0.015 C 
HETATM   25  C   UNK N   1      26.726  20.224   3.204  0.00  0.00     0.024 A 
ENDBRANCH  18  21
ENDBRANCH   1  17
BRANCH   1  26
HETATM   26  C   UNK N   1      20.999  20.509   3.065  0.00  0.00     0.193 C 
HETATM   27  O   UNK N   1      20.086  20.798   3.821  0.00  0.00    -0.645 OA
BRANCH  26  28
HETATM   28  O   UNK N   1      21.211  21.272   1.976  0.00  0.00    -0.772 OA
HETATM   29  H   UNK N   1      21.801  21.998   2.005  0.00  0.00     0.167 HD
ENDBRANCH  26  28
ENDBRANCH   1  26
TORSDOF 14
ENDMDL
MODEL 3
REMARK VINA RESULT:      -5.9     14.232     16.126
REMARK  14 active torsions:
REMARK  status: ('A' for Active; 'I' for Inactive)
REMARK    1  A    between atoms: C_1  and  C_4 
REMARK       I    between atoms: N_5  and  C_4 
REMARK    2  A    between atoms: C_6  and  N_5 
REMARK    3  A    between atoms: C_7  and  C_6 
REMARK    4  A    between atoms: O_15  and  C_7 
REMARK    5  A    between atoms: C_8  and  C_9 
REMARK    6  A    between atoms: O_16  and  C_8 
REMARK    7  A    between atoms: C_9  and  C_20 
REMARK    8  A    between atoms: C_9  and  N_14 
REMARK    9  A    between atoms: C_21  and  C_13 
REMARK   10  A    between atoms: S_19  and  C_22 
REMARK   11  A    between atoms: C_20  and  S_19 
REMARK   12  A    between atoms: C_23  and  C_21 
REMARK   13  A    between atoms: C_22  and  C_24 
REMARK   14  A    between atoms: C_24  and  C_23 
ROOT
HETATM    1  C   UNK N   1      35.974  13.100  12.696  0.00  0.00     0.105 C 
HETATM    2  C   UNK N   1      35.992  12.751  11.401  0.00  0.00     0.010 C 
ENDROOT
BRANCH   2   3
HETATM    3  C   UNK N   1      35.721  11.364  10.924  0.00  0.00     0.030 C 
BRANCH   3   4
HETATM    4  C   UNK N   1      35.056  11.458   9.563  0.00  0.00     0.005 C 
BRANCH   4   5
HETATM    5  C   UNK N   1      34.228  12.726   9.436  0.00  0.00     0.010 C 
BRANCH   5   6
HETATM    6  C   UNK N   1      34.317  13.302   8.033  0.00  0.00     0.074 C 
BRANCH   6   7
HETATM    7  S   UNK N   1      35.217  14.876   8.090  0.00  0.00    -0.167 SA
BRANCH   7   8
HETATM    8  C   UNK N   1      33.718  15.860   8.457  0.00  0.00     0.109 C 
BRANCH   8   9
HETATM    9  C   UNK N   1      33.981  17.258   9.044  0.00  0.00     0.182 C 
BRANCH   9  10
HETATM   10  C   UNK N   1      34.573  18.237   8.068  0.00  0.00     0.163 C 
HETATM   11  O   UNK N   1      34.346  18.146   6.871  0.00  0.00    -0.648 OA
BRANCH  10  12
HETATM   12  O   UNK N   1      35.335  19.250   8.524  0.00  0.00    -0.775 OA
HETATM   13  H   UNK N   1      35.391  19.817   9.266  0.00  0.00     0.167 HD
ENDBRANCH  10  12
ENDBRANCH   9  10
BRANCH   9  14
HETATM   14  N   UNK N   1      34.780  17.203  10.259  0.00  0.00    -0.417 N 
HETATM   15  H   UNK N   1      34.585  17.120  11.258  0.00  0.00     0.150 HD
HETATM   16  H   UNK N   1      35.780  17.261  10.066  0.00  0.00     0.150 HD
ENDBRANCH   9  14
ENDBRANCH   8   9
ENDBRANCH   7   8
ENDBRANCH   6   7
ENDBRANCH   5   6
ENDBRANCH   4   5
ENDBRANCH   3   4
ENDBRANCH   2   3
BRANCH   1  17
HETATM   17  N   UNK N   1      35.645  12.113  13.680  0.00  0.00    -0.322 N 
HETATM   18  C   UNK N   1      36.485  11.620  14.637  0.00  0.00     0.227 C 
HETATM   19  O   UNK N   1      37.666  11.926  14.646  0.00  0.00    -0.273 OA
HETATM   20  H   UNK N   1      34.728  11.755  13.665  0.00  0.00     0.169 HD
BRANCH  18  21
HETATM   21  C   UNK N   1      36.001  10.606  15.649  0.00  0.00     0.086 A 
HETATM   22  C   UNK N   1      35.350  11.196  16.894  0.00  0.00    -0.035 A 
HETATM   23  C   UNK N   1      35.201  12.699  17.066  0.00  0.00     0.015 C 
HETATM   24  C   UNK N   1      35.296  10.309  18.120  0.00  0.00     0.015 C 
HETATM   25  C   UNK N   1      34.481  10.645  15.790  0.00  0.00     0.024 A 
ENDBRANCH  18  21
ENDBRANCH   1  17
BRANCH   1  26
HETATM   26  C   UNK N   1      36.244  14.526  13.040  0.00  0.00     0.193 C 
HETATM   27  O   UNK N   1      35.870  15.416  12.292  0.00  0.00    -0.645 OA
BRANCH  26  28
HETATM   28  O   UNK N   1      36.843  14.857  14.199  0.00  0.00    -0.772 OA
HETATM   29  H   UNK N   1      37.771  14.786  14.298  0.00  0.00     0.167 HD
ENDBRANCH  26  28
ENDBRANCH   1  26
TORSDOF 14
ENDMDL
MODEL 4
REMARK VINA RESULT:      -5.8     14.591     17.072
REMARK  14 active torsions:
REMARK  status: ('A' for Active; 'I' for Inactive)
REMARK    1  A    between atoms: C_1  and  C_4 
REMARK       I    between atoms: N_5  and  C_4 
REMARK    2  A    between atoms: C_6  and  N_5 
REMARK    3  A    between atoms: C_7  and  C_6 
REMARK    4  A    between atoms: O_15  and  C_7 
REMARK    5  A    between atoms: C_8  and  C_9 
REMARK    6  A    between atoms: O_16  and  C_8 
REMARK    7  A    between atoms: C_9  and  C_20 
REMARK    8  A    between atoms: C_9  and  N_14 
REMARK    9  A    between atoms: C_21  and  C_13 
REMARK   10  A    between atoms: S_19  and  C_22 
REMARK   11  A    between atoms: C_20  and  S_19 
REMARK   12  A    between atoms: C_23  and  C_21 
REMARK   13  A    between atoms: C_22  and  C_24 
REMARK   14  A    between atoms: C_24  and  C_23 
ROOT
HETATM    1  C   UNK N   1      29.049  23.639  -3.483  0.00  0.00     0.105 C 
HETATM    2  C   UNK N   1      29.463  22.856  -4.490  0.00  0.00     0.010 C 
ENDROOT
BRANCH   2   3
HETATM    3  C   UNK N   1      29.346  23.241  -5.926  0.00  0.00     0.030 C 
BRANCH   3   4
HETATM    4  C   UNK N   1      30.144  22.243  -6.746  0.00  0.00     0.005 C 
BRANCH   4   5
HETATM    5  C   UNK N   1      30.023  20.838  -6.180  0.00  0.00     0.010 C 
BRANCH   5   6
HETATM    6  C   UNK N   1      31.204  19.975  -6.593  0.00  0.00     0.074 C 
BRANCH   6   7
HETATM    7  S   UNK N   1      32.595  21.047  -7.048  0.00  0.00    -0.167 SA
BRANCH   7   8
HETATM    8  C   UNK N   1      33.681  20.407  -5.722  0.00  0.00     0.109 C 
BRANCH   8   9
HETATM    9  C   UNK N   1      32.977  20.109  -4.387  0.00  0.00     0.182 C 
BRANCH   9  10
HETATM   10  C   UNK N   1      32.839  21.302  -3.481  0.00  0.00     0.163 C 
HETATM   11  O   UNK N   1      32.790  22.434  -3.936  0.00  0.00    -0.648 OA
BRANCH  10  12
HETATM   12  O   UNK N   1      32.734  21.115  -2.151  0.00  0.00    -0.775 OA
HETATM   13  H   UNK N   1      32.196  20.655  -1.539  0.00  0.00     0.167 HD
ENDBRANCH  10  12
ENDBRANCH   9  10
BRANCH   9  14
HETATM   14  N   UNK N   1      33.593  18.997  -3.677  0.00  0.00    -0.417 N 
HETATM   15  H   UNK N   1      33.436  17.990  -3.621  0.00  0.00     0.150 HD
HETATM   16  H   UNK N   1      34.373  19.298  -3.091  0.00  0.00     0.150 HD
ENDBRANCH   9  14
ENDBRANCH   8   9
ENDBRANCH   7   8
ENDBRANCH   6   7
ENDBRANCH   5   6
ENDBRANCH   4   5
ENDBRANCH   3   4
ENDBRANCH   2   3
BRANCH   1  17
HETATM   17  N   UNK N   1      28.498  24.927  -3.781  0.00  0.00    -0.322 N 
HETATM   18  C   UNK N   1      27.185  25.284  -3.673  0.00  0.00     0.227 C 
HETATM   19  O   UNK N   1      26.333  24.453  -3.406  0.00  0.00    -0.273 OA
HETATM   20  H   UNK N   1      29.124  25.619  -4.094  0.00  0.00     0.169 HD
BRANCH  18  21
HETATM   21  C   UNK N   1      26.735  26.695  -3.980  0.00  0.00     0.086 A 
HETATM   22  C   UNK N   1      26.935  27.136  -5.426  0.00  0.00    -0.035 A 
HETATM   23  C   UNK N   1      27.533  26.195  -6.460  0.00  0.00     0.015 C 
HETATM   24  C   UNK N   1      26.973  28.628  -5.684  0.00  0.00     0.015 C 
HETATM   25  C   UNK N   1      25.565  26.703  -4.962  0.00  0.00     0.024 A 
ENDBRANCH  18  21
ENDBRANCH   1  17
BRANCH   1  26
HETATM   26  C   UNK N   1      29.240  23.145  -2.089  0.00  0.00     0.193 C 
HETATM   27  O   UNK N   1      30.367  22.983  -1.647  0.00  0.00    -0.645 OA
BRANCH  26  28
HETATM   28  O   UNK N   1      28.186  22.930  -1.280  0.00  0.00    -0.772 OA
HETATM   29  H   UNK N   1      28.261  23.037  -0.352  0.00  0.00     0.167 HD
ENDBRANCH  26  28
ENDBRANCH   1  26
TORSDOF 14
ENDMDL
MODEL 5
REMARK VINA RESULT:      -5.7     11.724     13.630
REMARK  14 active torsions:
REMARK  status: ('A' for Active; 'I' for Inactive)
REMARK    1  A    between atoms: C_1  and  C_4 
REMARK       I    between atoms: N_5  and  C_4 
REMARK    2  A    between atoms: C_6  and  N_5 
REMARK    3  A    between atoms: C_7  and  C_6 
REMARK    4  A    between atoms: O_15  and  C_7 
REMARK    5  A    between atoms: C_8  and  C_9 
REMARK    6  A    between atoms: O_16  and  C_8 
REMARK    7  A    between atoms: C_9  and  C_20 
REMARK    8  A    between atoms: C_9  and  N_14 
REMARK    9  A    between atoms: C_21  and  C_13 
REMARK   10  A    between atoms: S_19  and  C_22 
REMARK   11  A    between atoms: C_20  and  S_19 
REMARK   12  A    between atoms: C_23  and  C_21 
REMARK   13  A    between atoms: C_22  and  C_24 
REMARK   14  A    between atoms: C_24  and  C_23 
ROOT
HETATM    1  C   UNK N   1      33.433  17.921   7.750  0.00  0.00     0.105 C 
HETATM    2  C   UNK N   1      33.720  17.265   6.616  0.00  0.00     0.010 C 
ENDROOT
BRANCH   2   3
HETATM    3  C   UNK N   1      32.716  17.013   5.542  0.00  0.00     0.030 C 
BRANCH   3   4
HETATM    4  C   UNK N   1      33.187  15.820   4.730  0.00  0.00     0.005 C 
BRANCH   4   5
HETATM    5  C   UNK N   1      34.375  15.137   5.387  0.00  0.00     0.010 C 
BRANCH   5   6
HETATM    6  C   UNK N   1      34.417  13.657   5.042  0.00  0.00     0.074 C 
BRANCH   6   7
HETATM    7  S   UNK N   1      35.237  12.756   6.385  0.00  0.00    -0.167 SA
BRANCH   7   8
HETATM    8  C   UNK N   1      35.244  14.197   7.513  0.00  0.00     0.109 C 
BRANCH   8   9
HETATM    9  C   UNK N   1      34.831  13.894   8.964  0.00  0.00     0.182 C 
BRANCH   9  10
HETATM   10  C   UNK N   1      33.374  14.135   9.254  0.00  0.00     0.163 C 
HETATM   11  O   UNK N   1      32.504  13.608   8.578  0.00  0.00    -0.648 OA
BRANCH  10  12
HETATM   12  O   UNK N   1      33.026  14.914  10.296  0.00  0.00    -0.775 OA
HETATM   13  H   UNK N   1      32.945  14.860  11.227  0.00  0.00     0.167 HD
ENDBRANCH  10  12
ENDBRANCH   9  10
BRANCH   9  14
HETATM   14  N   UNK N   1      35.665  14.592   9.930  0.00  0.00    -0.417 N 
HETATM   15  H   UNK N   1      35.510  15.284  10.664  0.00  0.00     0.150 HD
HETATM   16  H   UNK N   1      36.647  14.323   9.857  0.00  0.00     0.150 HD
ENDBRANCH   9  14
ENDBRANCH   8   9
ENDBRANCH   7   8
ENDBRANCH   6   7
ENDBRANCH   5   6
ENDBRANCH   4   5
ENDBRANCH   3   4
ENDBRANCH   2   3
BRANCH   1  17
HETATM   17  N   UNK N   1      32.113  18.442   7.941  0.00  0.00    -0.322 N 
HETATM   18  C   UNK N   1      31.085  17.814   8.584  0.00  0.00     0.227 C 
HETATM   19  O   UNK N   1      31.200  16.659   8.962  0.00  0.00    -0.273 OA
HETATM   20  H   UNK N   1      31.929  19.336   7.574  0.00  0.00     0.169 HD
BRANCH  18  21
HETATM   21  C   UNK N   1      29.745  18.492   8.756  0.00  0.00     0.086 A 
HETATM   22  C   UNK N   1      28.812  18.393   7.554  0.00  0.00    -0.035 A 
HETATM   23  C   UNK N   1      29.227  17.646   6.296  0.00  0.00     0.015 C 
HETATM   24  C   UNK N   1      27.705  19.423   7.464  0.00  0.00     0.015 C 
HETATM   25  C   UNK N   1      28.603  17.478   8.736  0.00  0.00     0.024 A 
ENDBRANCH  18  21
ENDBRANCH   1  17
BRANCH   1  26
HETATM   26  C   UNK N   1      34.533  18.123   8.738  0.00  0.00     0.193 C 
HETATM   27  O   UNK N   1      35.336  19.029   8.579  0.00  0.00    -0.645 OA
BRANCH  26  28
HETATM   28  O   UNK N   1      34.621  17.358   9.842  0.00  0.00    -0.772 OA
HETATM   29  H   UNK N   1      33.852  17.027  10.261  0.00  0.00     0.167 HD
ENDBRANCH  26  28
ENDBRANCH   1  26
TORSDOF 14
ENDMDL
MODEL 6
REMARK VINA RESULT:      -5.7      5.587      8.248
REMARK  14 active torsions:
REMARK  status: ('A' for Active; 'I' for Inactive)
REMARK    1  A    between atoms: C_1  and  C_4 
REMARK       I    between atoms: N_5  and  C_4 
REMARK    2  A    between atoms: C_6  and  N_5 
REMARK    3  A    between atoms: C_7  and  C_6 
REMARK    4  A    between atoms: O_15  and  C_7 
REMARK    5  A    between atoms: C_8  and  C_9 
REMARK    6  A    between atoms: O_16  and  C_8 
REMARK    7  A    between atoms: C_9  and  C_20 
REMARK    8  A    between atoms: C_9  and  N_14 
REMARK    9  A    between atoms: C_21  and  C_13 
REMARK   10  A    between atoms: S_19  and  C_22 
REMARK   11  A    between atoms: C_20  and  S_19 
REMARK   12  A    between atoms: C_23  and  C_21 
REMARK   13  A    between atoms: C_22  and  C_24 
REMARK   14  A    between atoms: C_24  and  C_23 
ROOT
HETATM    1  C   UNK N   1      22.941  19.886   3.116  0.00  0.00     0.105 C 
HETATM    2  C   UNK N   1      24.190  20.366   3.028  0.00  0.00     0.010 C 
ENDROOT
BRANCH   2   3
HETATM    3  C   UNK N   1      25.363  19.716   3.682  0.00  0.00     0.030 C 
BRANCH   3   4
HETATM    4  C   UNK N   1      25.810  20.602   4.830  0.00  0.00     0.005 C 
BRANCH   4   5
HETATM    5  C   UNK N   1      27.120  20.116   5.427  0.00  0.00     0.010 C 
BRANCH   5   6
HETATM    6  C   UNK N   1      27.540  18.786   4.823  0.00  0.00     0.074 C 
BRANCH   6   7
HETATM    7  S   UNK N   1      27.417  17.492   6.088  0.00  0.00    -0.167 SA
BRANCH   7   8
HETATM    8  C   UNK N   1      28.983  17.970   6.905  0.00  0.00     0.109 C 
BRANCH   8   9
HETATM    9  C   UNK N   1      28.824  18.714   8.242  0.00  0.00     0.182 C 
BRANCH   9  10
HETATM   10  C   UNK N   1      29.979  18.538   9.189  0.00  0.00     0.163 C 
HETATM   11  O   UNK N   1      31.087  18.231   8.778  0.00  0.00    -0.648 OA
BRANCH  10  12
HETATM   12  O   UNK N   1      29.796  18.756  10.505  0.00  0.00    -0.775 OA
HETATM   13  H   UNK N   1      29.454  19.415  11.075  0.00  0.00     0.167 HD
ENDBRANCH  10  12
ENDBRANCH   9  10
BRANCH   9  14
HETATM   14  N   UNK N   1      27.568  18.394   8.903  0.00  0.00    -0.417 N 
HETATM   15  H   UNK N   1      26.578  18.522   8.691  0.00  0.00     0.150 HD
HETATM   16  H   UNK N   1      27.712  17.927   9.799  0.00  0.00     0.150 HD
ENDBRANCH   9  14
ENDBRANCH   8   9
ENDBRANCH   7   8
ENDBRANCH   6   7
ENDBRANCH   5   6
ENDBRANCH   4   5
ENDBRANCH   3   4
ENDBRANCH   2   3
BRANCH   1  17
HETATM   17  N   UNK N   1      22.708  18.672   3.839  0.00  0.00    -0.322 N 
HETATM   18  C   UNK N   1      21.810  18.498   4.852  0.00  0.00     0.227 C 
HETATM   19  O   UNK N   1      21.191  19.447   5.305  0.00  0.00    -0.273 OA
HETATM   20  H   UNK N   1      23.246  17.889   3.581  0.00  0.00     0.169 HD
BRANCH  18  21
HETATM   21  C   UNK N   1      21.630  17.148   5.509  0.00  0.00     0.086 A 
HETATM   22  C   UNK N   1      20.463  16.322   4.978  0.00  0.00    -0.035 A 
HETATM   23  C   UNK N   1      19.575  16.844   3.860  0.00  0.00     0.015 C 
HETATM   24  C   UNK N   1      19.936  15.228   5.883  0.00  0.00     0.015 C 
HETATM   25  C   UNK N   1      21.866  16.012   4.515  0.00  0.00     0.024 A 
ENDBRANCH  18  21
ENDBRANCH   1  17
BRANCH   1  26
HETATM   26  C   UNK N   1      21.857  20.621   2.401  0.00  0.00     0.193 C 
HETATM   27  O   UNK N   1      21.770  20.548   1.185  0.00  0.00    -0.645 OA
BRANCH  26  28
HETATM   28  O   UNK N   1      20.929  21.320   3.080  0.00  0.00    -0.772 OA
HETATM   29  H   UNK N   1      20.070  21.446   2.729  0.00  0.00     0.167 HD
ENDBRANCH  26  28
ENDBRANCH   1  26
TORSDOF 14
ENDMDL
MODEL 7
REMARK VINA RESULT:      -5.6      2.382      2.571
REMARK  14 active torsions:
REMARK  status: ('A' for Active; 'I' for Inactive)
REMARK    1  A    between atoms: C_1  and  C_4 
REMARK       I    between atoms: N_5  and  C_4 
REMARK    2  A    between atoms: C_6  and  N_5 
REMARK    3  A    between atoms: C_7  and  C_6 
REMARK    4  A    between atoms: O_15  and  C_7 
REMARK    5  A    between atoms: C_8  and  C_9 
REMARK    6  A    between atoms: O_16  and  C_8 
REMARK    7  A    between atoms: C_9  and  C_20 
REMARK    8  A    between atoms: C_9  and  N_14 
REMARK    9  A    between atoms: C_21  and  C_13 
REMARK   10  A    between atoms: S_19  and  C_22 
REMARK   11  A    between atoms: C_20  and  S_19 
REMARK   12  A    between atoms: C_23  and  C_21 
REMARK   13  A    between atoms: C_22  and  C_24 
REMARK   14  A    between atoms: C_24  and  C_23 
ROOT
HETATM    1  C   UNK N   1      20.276  16.644   8.284  0.00  0.00     0.105 C 
HETATM    2  C   UNK N   1      20.736  17.014   7.080  0.00  0.00     0.010 C 
ENDROOT
BRANCH   2   3
HETATM    3  C   UNK N   1      22.044  16.556   6.529  0.00  0.00     0.030 C 
BRANCH   3   4
HETATM    4  C   UNK N   1      21.803  16.025   5.127  0.00  0.00     0.005 C 
BRANCH   4   5
HETATM    5  C   UNK N   1      21.277  14.600   5.156  0.00  0.00     0.010 C 
BRANCH   5   6
HETATM    6  C   UNK N   1      19.975  14.479   4.382  0.00  0.00     0.074 C 
BRANCH   6   7
HETATM    7  S   UNK N   1      19.865  15.836   3.184  0.00  0.00    -0.167 SA
BRANCH   7   8
HETATM    8  C   UNK N   1      20.387  14.795   1.772  0.00  0.00     0.109 C 
BRANCH   8   9
HETATM    9  C   UNK N   1      19.568  14.983   0.483  0.00  0.00     0.182 C 
BRANCH   9  10
HETATM   10  C   UNK N   1      19.364  16.419   0.085  0.00  0.00     0.163 C 
HETATM   11  O   UNK N   1      20.306  17.118  -0.252  0.00  0.00    -0.648 OA
BRANCH  10  12
HETATM   12  O   UNK N   1      18.118  16.930   0.066  0.00  0.00    -0.775 OA
HETATM   13  H   UNK N   1      17.486  17.239  -0.553  0.00  0.00     0.167 HD
ENDBRANCH  10  12
ENDBRANCH   9  10
BRANCH   9  14
HETATM   14  N   UNK N   1      18.295  14.280   0.533  0.00  0.00    -0.417 N 
HETATM   15  H   UNK N   1      18.001  13.304   0.581  0.00  0.00     0.150 HD
HETATM   16  H   UNK N   1      17.500  14.921   0.515  0.00  0.00     0.150 HD
ENDBRANCH   9  14
ENDBRANCH   8   9
ENDBRANCH   7   8
ENDBRANCH   6   7
ENDBRANCH   5   6
ENDBRANCH   4   5
ENDBRANCH   3   4
ENDBRANCH   2   3
BRANCH   1  17
HETATM   17  N   UNK N   1      21.050  15.738   9.079  0.00  0.00    -0.322 N 
HETATM   18  C   UNK N   1      20.886  14.384   9.143  0.00  0.00     0.227 C 
HETATM   19  O   UNK N   1      19.948  13.842   8.581  0.00  0.00    -0.273 OA
HETATM   20  H   UNK N   1      21.766  16.127   9.630  0.00  0.00     0.169 HD
BRANCH  18  21
HETATM   21  C   UNK N   1      21.800  13.530   9.994  0.00  0.00     0.086 A 
HETATM   22  C   UNK N   1      22.454  12.361   9.265  0.00  0.00    -0.035 A 
HETATM   23  C   UNK N   1      22.195  12.112   7.788  0.00  0.00     0.015 C 
HETATM   24  C   UNK N   1      22.961  11.222  10.124  0.00  0.00     0.015 C 
HETATM   25  C   UNK N   1      23.248  13.621   9.515  0.00  0.00     0.024 A 
ENDBRANCH  18  21
ENDBRANCH   1  17
BRANCH   1  26
HETATM   26  C   UNK N   1      18.943  17.158   8.711  0.00  0.00     0.193 C 
HETATM   27  O   UNK N   1      17.944  16.475   8.548  0.00  0.00    -0.645 OA
BRANCH  26  28
HETATM   28  O   UNK N   1      18.825  18.346   9.334  0.00  0.00    -0.772 OA
HETATM   29  H   UNK N   1      19.264  19.106   9.008  0.00  0.00     0.167 HD
ENDBRANCH  26  28
ENDBRANCH   1  26
TORSDOF 14
ENDMDL
MODEL 8
REMARK VINA RESULT:      -5.5     10.165     12.358
REMARK  14 active torsions:
REMARK  status: ('A' for Active; 'I' for Inactive)
REMARK    1  A    between atoms: C_1  and  C_4 
REMARK       I    between atoms: N_5  and  C_4 
REMARK    2  A    between atoms: C_6  and  N_5 
REMARK    3  A    between atoms: C_7  and  C_6 
REMARK    4  A    between atoms: O_15  and  C_7 
REMARK    5  A    between atoms: C_8  and  C_9 
REMARK    6  A    between atoms: O_16  and  C_8 
REMARK    7  A    between atoms: C_9  and  C_20 
REMARK    8  A    between atoms: C_9  and  N_14 
REMARK    9  A    between atoms: C_21  and  C_13 
REMARK   10  A    between atoms: S_19  and  C_22 
REMARK   11  A    between atoms: C_20  and  S_19 
REMARK   12  A    between atoms: C_23  and  C_21 
REMARK   13  A    between atoms: C_22  and  C_24 
REMARK   14  A    between atoms: C_24  and  C_23 
ROOT
HETATM    1  C   UNK N   1      29.448  17.519   8.136  0.00  0.00     0.105 C 
HETATM    2  C   UNK N   1      30.776  17.623   7.981  0.00  0.00     0.010 C 
ENDROOT
BRANCH   2   3
HETATM    3  C   UNK N   1      31.515  17.008   6.840  0.00  0.00     0.030 C 
BRANCH   3   4
HETATM    4  C   UNK N   1      32.948  17.507   6.888  0.00  0.00     0.005 C 
BRANCH   4   5
HETATM    5  C   UNK N   1      33.900  16.520   6.234  0.00  0.00     0.010 C 
BRANCH   5   6
HETATM    6  C   UNK N   1      34.771  15.827   7.269  0.00  0.00     0.074 C 
BRANCH   6   7
HETATM    7  S   UNK N   1      34.416  14.048   7.252  0.00  0.00    -0.167 SA
BRANCH   7   8
HETATM    8  C   UNK N   1      34.289  13.931   9.074  0.00  0.00     0.109 C 
BRANCH   8   9
HETATM    9  C   UNK N   1      33.815  15.213   9.781  0.00  0.00     0.182 C 
BRANCH   9  10
HETATM   10  C   UNK N   1      34.658  15.617  10.959  0.00  0.00     0.163 C 
HETATM   11  O   UNK N   1      35.006  14.795  11.793  0.00  0.00    -0.648 OA
BRANCH  10  12
HETATM   12  O   UNK N   1      35.062  16.896  11.078  0.00  0.00    -0.775 OA
HETATM   13  H   UNK N   1      34.693  17.753  11.154  0.00  0.00     0.167 HD
ENDBRANCH  10  12
ENDBRANCH   9  10
BRANCH   9  14
HETATM   14  N   UNK N   1      32.411  15.147  10.156  0.00  0.00    -0.417 N 
HETATM   15  H   UNK N   1      31.719  14.405  10.266  0.00  0.00     0.150 HD
HETATM   16  H   UNK N   1      32.022  16.068  10.358  0.00  0.00     0.150 HD
ENDBRANCH   9  14
ENDBRANCH   8   9
ENDBRANCH   7   8
ENDBRANCH   6   7
ENDBRANCH   5   6
ENDBRANCH   4   5
ENDBRANCH   3   4
ENDBRANCH   2   3
BRANCH   1  17
HETATM   17  N   UNK N   1      28.681  16.818   7.150  0.00  0.00    -0.322 N 
HETATM   18  C   UNK N   1      28.062  17.375   6.068  0.00  0.00     0.227 C 
HETATM   19  O   UNK N   1      28.029  18.586   5.924  0.00  0.00    -0.273 OA
HETATM   20  H   UNK N   1      28.592  15.845   7.262  0.00  0.00     0.169 HD
BRANCH  18  21
HETATM   21  C   UNK N   1      27.315  16.516   5.072  0.00  0.00     0.086 A 
HETATM   22  C   UNK N   1      28.095  16.163   3.811  0.00  0.00    -0.035 A 
HETATM   23  C   UNK N   1      29.523  16.645   3.609  0.00  0.00     0.015 C 
HETATM   24  C   UNK N   1      27.283  15.749   2.602  0.00  0.00     0.015 C 
HETATM   25  C   UNK N   1      27.972  15.146   4.919  0.00  0.00     0.024 A 
ENDBRANCH  18  21
ENDBRANCH   1  17
BRANCH   1  26
HETATM   26  C   UNK N   1      28.827  18.195   9.312  0.00  0.00     0.193 C 
HETATM   27  O   UNK N   1      29.533  18.735  10.149  0.00  0.00    -0.645 OA
BRANCH  26  28
HETATM   28  O   UNK N   1      27.489  18.276   9.438  0.00  0.00    -0.772 OA
HETATM   29  H   UNK N   1      26.968  18.694   8.781  0.00  0.00     0.167 HD
ENDBRANCH  26  28
ENDBRANCH   1  26
TORSDOF 14
ENDMDL
MODEL 9
REMARK VINA RESULT:      -5.5     12.764     15.750
REMARK  14 active torsions:
REMARK  status: ('A' for Active; 'I' for Inactive)
REMARK    1  A    between atoms: C_1  and  C_4 
REMARK       I    between atoms: N_5  and  C_4 
REMARK    2  A    between atoms: C_6  and  N_5 
REMARK    3  A    between atoms: C_7  and  C_6 
REMARK    4  A    between atoms: O_15  and  C_7 
REMARK    5  A    between atoms: C_8  and  C_9 
REMARK    6  A    between atoms: O_16  and  C_8 
REMARK    7  A    between atoms: C_9  and  C_20 
REMARK    8  A    between atoms: C_9  and  N_14 
REMARK    9  A    between atoms: C_21  and  C_13 
REMARK   10  A    between atoms: S_19  and  C_22 
REMARK   11  A    between atoms: C_20  and  S_19 
REMARK   12  A    between atoms: C_23  and  C_21 
REMARK   13  A    between atoms: C_22  and  C_24 
REMARK   14  A    between atoms: C_24  and  C_23 
ROOT
HETATM    1  C   UNK N   1      33.956  17.224   8.940  0.00  0.00     0.105 C 
HETATM    2  C   UNK N   1      34.736  16.392   9.645  0.00  0.00     0.010 C 
ENDROOT
BRANCH   2   3
HETATM    3  C   UNK N   1      34.195  15.325  10.537  0.00  0.00     0.030 C 
BRANCH   3   4
HETATM    4  C   UNK N   1      34.257  14.009   9.785  0.00  0.00     0.005 C 
BRANCH   4   5
HETATM    5  C   UNK N   1      34.961  12.937  10.599  0.00  0.00     0.010 C 
BRANCH   5   6
HETATM    6  C   UNK N   1      36.472  13.080  10.507  0.00  0.00     0.074 C 
BRANCH   6   7
HETATM    7  S   UNK N   1      37.226  12.427  12.022  0.00  0.00    -0.167 SA
BRANCH   7   8
HETATM    8  C   UNK N   1      36.103  13.357  13.128  0.00  0.00     0.109 C 
BRANCH   8   9
HETATM    9  C   UNK N   1      36.087  12.884  14.592  0.00  0.00     0.182 C 
BRANCH   9  10
HETATM   10  C   UNK N   1      34.724  12.507  15.105  0.00  0.00     0.163 C 
HETATM   11  O   UNK N   1      34.170  11.487  14.726  0.00  0.00    -0.648 OA
BRANCH  10  12
HETATM   12  O   UNK N   1      34.122  13.288  16.022  0.00  0.00    -0.775 OA
HETATM   13  H   UNK N   1      34.265  13.600  16.893  0.00  0.00     0.167 HD
ENDBRANCH  10  12
ENDBRANCH   9  10
BRANCH   9  14
HETATM   14  N   UNK N   1      36.723  13.840  15.486  0.00  0.00    -0.417 N 
HETATM   15  H   UNK N   1      36.920  13.885  16.486  0.00  0.00     0.150 HD
HETATM   16  H   UNK N   1      37.052  14.670  14.991  0.00  0.00     0.150 HD
ENDBRANCH   9  14
ENDBRANCH   8   9
ENDBRANCH   7   8
ENDBRANCH   6   7
ENDBRANCH   5   6
ENDBRANCH   4   5
ENDBRANCH   3   4
ENDBRANCH   2   3
BRANCH   1  17
HETATM   17  N   UNK N   1      32.533  17.074   9.007  0.00  0.00    -0.322 N 
HETATM   18  C   UNK N   1      31.715  16.695   7.982  0.00  0.00     0.227 C 
HETATM   19  O   UNK N   1      32.155  16.560   6.852  0.00  0.00    -0.273 OA
HETATM   20  H   UNK N   1      32.105  17.261   9.874  0.00  0.00     0.169 HD
BRANCH  18  21
HETATM   21  C   UNK N   1      30.227  16.532   8.194  0.00  0.00     0.086 A 
HETATM   22  C   UNK N   1      29.526  17.740   8.807  0.00  0.00    -0.035 A 
HETATM   23  C   UNK N   1      30.296  19.004   9.153  0.00  0.00     0.015 C 
HETATM   24  C   UNK N   1      28.194  17.484   9.481  0.00  0.00     0.015 C 
HETATM   25  C   UNK N   1      29.433  17.500   7.319  0.00  0.00     0.024 A 
ENDBRANCH  18  21
ENDBRANCH   1  17
BRANCH   1  26
HETATM   26  C   UNK N   1      34.621  18.237   8.070  0.00  0.00     0.193 C 
HETATM   27  O   UNK N   1      35.279  19.135   8.571  0.00  0.00    -0.645 OA
BRANCH  26  28
HETATM   28  O   UNK N   1      34.561  18.144   6.728  0.00  0.00    -0.772 OA
HETATM   29  H   UNK N   1      33.768  18.332   6.268  0.00  0.00     0.167 HD
ENDBRANCH  26  28
ENDBRANCH   1  26
TORSDOF 14
ENDMDL
