MODEL 1
REMARK VINA RESULT:      -8.6      0.000      0.000
REMARK  8 active torsions:
REMARK  status: ('A' for Active; 'I' for Inactive)
REMARK    1  A    between atoms: C_3  and  O_32 
REMARK    2  A    between atoms: C_11  and  O_34 
REMARK    3  A    between atoms: C_14  and  O_38 
REMARK    4  A    between atoms: C_16  and  C_19 
REMARK    5  A    between atoms: C_17  and  O_37 
REMARK    6  A    between atoms: C_18  and  N_27 
REMARK       I    between atoms: C_19  and  N_20 
REMARK    7  A    between atoms: N_20  and  C_21 
REMARK    8  A    between atoms: C_21  and  N_22 
ROOT
HETATM    1  C   UNK N   1      34.937  12.087  19.158  0.00  0.00     0.003 A 
HETATM    2  C   UNK N   1      35.353  13.417  19.179  0.00  0.00     0.037 A 
HETATM    3  C   UNK N   1      35.827  14.027  18.016  0.00  0.00     0.080 A 
HETATM    4  C   UNK N   1      35.015  11.349  17.977  0.00  0.00     0.011 A 
HETATM    5  C   UNK N   1      35.492  11.940  16.794  0.00  0.00    -0.007 A 
HETATM    6  C   UNK N   1      35.890  13.295  16.807  0.00  0.00     0.057 A 
HETATM    7  C   UNK N   1      36.296  13.940  15.529  0.00  0.00     0.194 C 
HETATM    8  C   UNK N   1      35.699  11.116  15.536  0.00  0.00     0.090 C 
HETATM    9  C   UNK N   1      35.284  11.907  14.276  0.00  0.00     0.065 C 
HETATM   10  C   UNK N   1      35.886  13.299  14.238  0.00  0.00     0.033 C 
HETATM   11  C   UNK N   1      35.886  13.994  13.068  0.00  0.00     0.097 C 
HETATM   12  C   UNK N   1      35.700  11.170  13.004  0.00  0.00     0.024 C 
HETATM   13  C   UNK N   1      35.051  11.842  11.795  0.00  0.00     0.075 C 
HETATM   14  C   UNK N   1      35.387  13.385  11.756  0.00  0.00     0.177 C 
HETATM   15  C   UNK N   1      36.292  13.711  10.579  0.00  0.00     0.208 C 
HETATM   16  C   UNK N   1      35.839  13.220   9.264  0.00  0.00     0.112 C 
HETATM   17  C   UNK N   1      35.282  11.985   9.245  0.00  0.00     0.096 C 
HETATM   18  C   UNK N   1      35.443  11.092  10.478  0.00  0.00     0.286 C 
HETATM   19  C   UNK N   1      34.938   9.789  15.589  0.00  0.00     0.052 C 
HETATM   20  O   UNK N   1      37.065  10.823  15.454  0.00  0.00    -0.385 OA
HETATM   21  O   UNK N   1      36.819  15.045  15.539  0.00  0.00    -0.287 OA
HETATM   22  O   UNK N   1      37.221  14.503  10.669  0.00  0.00    -0.288 OA
HETATM   23  H   UNK N   1      38.027  10.755  15.354  0.00  0.00     0.211 HD
ENDROOT
BRANCH  11  24
HETATM   24  O   UNK N   1      36.289  15.284  13.055  0.00  0.00    -0.361 OA
HETATM   25  H   UNK N   1      35.809  15.949  13.508  0.00  0.00     0.217 HD
ENDBRANCH  11  24
BRANCH   3  26
HETATM   26  O   UNK N   1      36.188  15.322  18.063  0.00  0.00    -0.360 OA
HETATM   27  H   UNK N   1      36.828  15.622  18.677  0.00  0.00     0.217 HD
ENDBRANCH   3  26
BRANCH  14  28
HETATM   28  O   UNK N   1      34.187  14.045  11.463  0.00  0.00    -0.374 OA
HETATM   29  H   UNK N   1      33.634  14.763  11.120  0.00  0.00     0.211 HD
ENDBRANCH  14  28
BRANCH  18  30
HETATM   30  N   UNK N   1      34.830   9.747  10.333  0.00  0.00     0.091 N 
HETATM   31  C   UNK N   1      35.657   8.733  10.978  0.00  0.00     0.310 C 
HETATM   32  C   UNK N   1      33.579   9.675  11.073  0.00  0.00     0.310 C 
ENDBRANCH  18  30
BRANCH  17  33
HETATM   33  O   UNK N   1      34.612  11.546   8.164  0.00  0.00    -0.362 OA
HETATM   34  H   UNK N   1      33.885  10.954   8.128  0.00  0.00     0.217 HD
ENDBRANCH  17  33
BRANCH  16  35
HETATM   35  C   UNK N   1      35.862  14.143   8.083  0.00  0.00     0.259 C 
HETATM   36  O   UNK N   1      36.844  14.127   7.352  0.00  0.00    -0.267 OA
HETATM   37  N   UNK N   1      34.823  14.952   7.750  0.00  0.00    -0.331 N 
HETATM   38  H   UNK N   1      34.973  15.658   7.081  0.00  0.00     0.164 HD
BRANCH  37  39
HETATM   39  C   UNK N   1      33.509  14.825   8.336  0.00  0.00     0.397 C 
BRANCH  39  40
HETATM   40  N   UNK N   1      33.099  16.060   8.978  0.00  0.00     0.105 N 
HETATM   41  C   UNK N   1      33.764  17.171   8.322  0.00  0.00     0.274 C 
HETATM   42  C   UNK N   1      32.780  18.312   8.313  0.00  0.00     0.032 C 
HETATM   43  C   UNK N   1      31.436  17.637   8.227  0.00  0.00     0.032 C 
HETATM   44  C   UNK N   1      31.679  16.214   8.687  0.00  0.00     0.274 C 
ENDBRANCH  39  40
ENDBRANCH  37  39
ENDBRANCH  16  35
TORSDOF 8
ENDMDL
MODEL 2
REMARK VINA RESULT:      -8.4      4.004     10.040
REMARK  8 active torsions:
REMARK  status: ('A' for Active; 'I' for Inactive)
REMARK    1  A    between atoms: C_3  and  O_32 
REMARK    2  A    between atoms: C_11  and  O_34 
REMARK    3  A    between atoms: C_14  and  O_38 
REMARK    4  A    between atoms: C_16  and  C_19 
REMARK    5  A    between atoms: C_17  and  O_37 
REMARK    6  A    between atoms: C_18  and  N_27 
REMARK       I    between atoms: C_19  and  N_20 
REMARK    7  A    between atoms: N_20  and  C_21 
REMARK    8  A    between atoms: C_21  and  N_22 
ROOT
HETATM    1  C   UNK N   1      26.732  19.755   4.333  0.00  0.00     0.003 A 
HETATM    2  C   UNK N   1      26.506  20.219   5.627  0.00  0.00     0.037 A 
HETATM    3  C   UNK N   1      27.224  19.693   6.702  0.00  0.00     0.080 A 
HETATM    4  C   UNK N   1      27.663  18.741   4.107  0.00  0.00     0.011 A 
HETATM    5  C   UNK N   1      28.395  18.192   5.174  0.00  0.00    -0.007 A 
HETATM    6  C   UNK N   1      28.186  18.679   6.483  0.00  0.00     0.057 A 
HETATM    7  C   UNK N   1      29.037  18.165   7.589  0.00  0.00     0.194 C 
HETATM    8  C   UNK N   1      29.318  17.004   4.961  0.00  0.00     0.090 C 
HETATM    9  C   UNK N   1      30.609  17.145   5.796  0.00  0.00     0.065 C 
HETATM   10  C   UNK N   1      30.330  17.488   7.247  0.00  0.00     0.033 C 
HETATM   11  C   UNK N   1      31.316  17.331   8.171  0.00  0.00     0.097 C 
HETATM   12  C   UNK N   1      31.430  15.856   5.758  0.00  0.00     0.024 C 
HETATM   13  C   UNK N   1      32.806  16.114   6.368  0.00  0.00     0.075 C 
HETATM   14  C   UNK N   1      32.677  16.725   7.820  0.00  0.00     0.177 C 
HETATM   15  C   UNK N   1      33.164  15.737   8.867  0.00  0.00     0.208 C 
HETATM   16  C   UNK N   1      34.503  15.163   8.636  0.00  0.00     0.112 C 
HETATM   17  C   UNK N   1      34.807  14.849   7.354  0.00  0.00     0.096 C 
HETATM   18  C   UNK N   1      33.676  14.815   6.322  0.00  0.00     0.286 C 
HETATM   19  C   UNK N   1      29.673  16.814   3.485  0.00  0.00     0.052 C 
HETATM   20  O   UNK N   1      28.628  15.864   5.387  0.00  0.00    -0.385 OA
HETATM   21  O   UNK N   1      28.757  18.425   8.751  0.00  0.00    -0.287 OA
HETATM   22  O   UNK N   1      32.589  15.581   9.936  0.00  0.00    -0.288 OA
HETATM   23  H   UNK N   1      28.179  15.118   5.814  0.00  0.00     0.211 HD
ENDROOT
BRANCH  11  24
HETATM   24  O   UNK N   1      31.125  17.767   9.436  0.00  0.00    -0.361 OA
HETATM   25  H   UNK N   1      31.596  18.502   9.775  0.00  0.00     0.217 HD
ENDBRANCH  11  24
BRANCH   3  26
HETATM   26  O   UNK N   1      27.005  20.188   7.934  0.00  0.00    -0.360 OA
HETATM   27  H   UNK N   1      26.155  20.490   8.188  0.00  0.00     0.217 HD
ENDBRANCH   3  26
BRANCH  14  28
HETATM   28  O   UNK N   1      33.593  17.782   7.889  0.00  0.00    -0.374 OA
HETATM   29  H   UNK N   1      34.359  18.267   8.231  0.00  0.00     0.211 HD
ENDBRANCH  14  28
BRANCH  18  30
HETATM   30  N   UNK N   1      34.115  14.419   4.959  0.00  0.00     0.091 N 
HETATM   31  C   UNK N   1      33.328  13.291   4.473  0.00  0.00     0.310 C 
HETATM   32  C   UNK N   1      33.812  15.472   4.001  0.00  0.00     0.310 C 
ENDBRANCH  18  30
BRANCH  17  33
HETATM   33  O   UNK N   1      36.072  14.562   6.994  0.00  0.00    -0.362 OA
HETATM   34  H   UNK N   1      36.485  14.692   6.162  0.00  0.00     0.217 HD
ENDBRANCH  17  33
BRANCH  16  35
HETATM   35  C   UNK N   1      35.489  15.111   9.763  0.00  0.00     0.259 C 
HETATM   36  O   UNK N   1      36.060  16.146  10.084  0.00  0.00    -0.267 OA
HETATM   37  N   UNK N   1      35.738  13.987  10.484  0.00  0.00    -0.331 N 
HETATM   38  H   UNK N   1      36.521  13.974  11.081  0.00  0.00     0.164 HD
BRANCH  37  39
HETATM   39  C   UNK N   1      34.906  12.809  10.414  0.00  0.00     0.397 C 
BRANCH  39  40
HETATM   40  N   UNK N   1      35.274  11.845  11.435  0.00  0.00     0.105 N 
HETATM   41  C   UNK N   1      34.938  12.393  12.737  0.00  0.00     0.274 C 
HETATM   42  C   UNK N   1      34.472  11.234  13.580  0.00  0.00     0.032 C 
HETATM   43  C   UNK N   1      33.834  10.294  12.592  0.00  0.00     0.032 C 
HETATM   44  C   UNK N   1      34.394  10.698  11.243  0.00  0.00     0.274 C 
ENDBRANCH  39  40
ENDBRANCH  37  39
ENDBRANCH  16  35
TORSDOF 8
ENDMDL
MODEL 3
REMARK VINA RESULT:      -8.4      2.125      3.585
REMARK  8 active torsions:
REMARK  status: ('A' for Active; 'I' for Inactive)
REMARK    1  A    between atoms: C_3  and  O_32 
REMARK    2  A    between atoms: C_11  and  O_34 
REMARK    3  A    between atoms: C_14  and  O_38 
REMARK    4  A    between atoms: C_16  and  C_19 
REMARK    5  A    between atoms: C_17  and  O_37 
REMARK    6  A    between atoms: C_18  and  N_27 
REMARK       I    between atoms: C_19  and  N_20 
REMARK    7  A    between atoms: N_20  and  C_21 
REMARK    8  A    between atoms: C_21  and  N_22 
ROOT
HETATM    1  C   UNK N   1      35.543   9.376  15.365  0.00  0.00     0.003 A 
HETATM    2  C   UNK N   1      35.755  10.493  16.170  0.00  0.00     0.037 A 
HETATM    3  C   UNK N   1      35.893  11.759  15.598  0.00  0.00     0.080 A 
HETATM    4  C   UNK N   1      35.492   9.513  13.978  0.00  0.00     0.011 A 
HETATM    5  C   UNK N   1      35.633  10.777  13.379  0.00  0.00    -0.007 A 
HETATM    6  C   UNK N   1      35.822  11.915  14.195  0.00  0.00     0.057 A 
HETATM    7  C   UNK N   1      35.867  13.259  13.559  0.00  0.00     0.194 C 
HETATM    8  C   UNK N   1      35.706  10.924  11.869  0.00  0.00     0.090 C 
HETATM    9  C   UNK N   1      34.938  12.176  11.393  0.00  0.00     0.065 C 
HETATM   10  C   UNK N   1      35.309  13.421  12.177  0.00  0.00     0.033 C 
HETATM   11  C   UNK N   1      34.975  14.644  11.685  0.00  0.00     0.097 C 
HETATM   12  C   UNK N   1      35.196  12.449   9.912  0.00  0.00     0.024 C 
HETATM   13  C   UNK N   1      34.229  13.523   9.418  0.00  0.00     0.075 C 
HETATM   14  C   UNK N   1      34.320  14.822  10.313  0.00  0.00     0.177 C 
HETATM   15  C   UNK N   1      34.916  15.979   9.527  0.00  0.00     0.208 C 
HETATM   16  C   UNK N   1      34.288  16.260   8.222  0.00  0.00     0.112 C 
HETATM   17  C   UNK N   1      33.925  15.182   7.486  0.00  0.00     0.096 C 
HETATM   18  C   UNK N   1      34.457  13.806   7.896  0.00  0.00     0.286 C 
HETATM   19  C   UNK N   1      35.173   9.684  11.147  0.00  0.00     0.052 C 
HETATM   20  O   UNK N   1      37.056  11.070  11.532  0.00  0.00    -0.385 OA
HETATM   21  O   UNK N   1      36.214  14.234  14.210  0.00  0.00    -0.287 OA
HETATM   22  O   UNK N   1      35.717  16.760  10.021  0.00  0.00    -0.288 OA
HETATM   23  H   UNK N   1      37.978  11.303  11.347  0.00  0.00     0.211 HD
ENDROOT
BRANCH  11  24
HETATM   24  O   UNK N   1      35.173  15.748  12.439  0.00  0.00    -0.361 OA
HETATM   25  H   UNK N   1      35.182  15.703  13.375  0.00  0.00     0.217 HD
ENDBRANCH  11  24
BRANCH   3  26
HETATM   26  O   UNK N   1      36.062  12.822  16.406  0.00  0.00    -0.360 OA
HETATM   27  H   UNK N   1      35.755  12.807  17.292  0.00  0.00     0.217 HD
ENDBRANCH   3  26
BRANCH  14  28
HETATM   28  O   UNK N   1      33.003  15.220  10.570  0.00  0.00    -0.374 OA
HETATM   29  H   UNK N   1      32.295  15.844  10.793  0.00  0.00     0.211 HD
ENDBRANCH  14  28
BRANCH  18  30
HETATM   30  N   UNK N   1      34.032  12.702   6.997  0.00  0.00     0.091 N 
HETATM   31  C   UNK N   1      35.190  12.072   6.374  0.00  0.00     0.310 C 
HETATM   32  C   UNK N   1      33.437  11.619   7.766  0.00  0.00     0.310 C 
ENDBRANCH  18  30
BRANCH  17  33
HETATM   33  O   UNK N   1      33.126  15.315   6.412  0.00  0.00    -0.362 OA
HETATM   34  H   UNK N   1      32.312  15.774   6.344  0.00  0.00     0.217 HD
ENDBRANCH  17  33
BRANCH  16  35
HETATM   35  C   UNK N   1      33.940  17.672   7.859  0.00  0.00     0.259 C 
HETATM   36  O   UNK N   1      34.739  18.313   7.188  0.00  0.00    -0.267 OA
HETATM   37  N   UNK N   1      32.759  18.256   8.188  0.00  0.00    -0.331 N 
HETATM   38  H   UNK N   1      32.671  19.231   8.082  0.00  0.00     0.164 HD
BRANCH  37  39
HETATM   39  C   UNK N   1      31.627  17.512   8.688  0.00  0.00     0.397 C 
BRANCH  39  40
HETATM   40  N   UNK N   1      30.376  18.149   8.319  0.00  0.00     0.105 N 
HETATM   41  C   UNK N   1      29.637  17.256   7.444  0.00  0.00     0.274 C 
HETATM   42  C   UNK N   1      28.180  17.430   7.788  0.00  0.00     0.032 C 
HETATM   43  C   UNK N   1      28.188  17.765   9.256  0.00  0.00     0.032 C 
HETATM   44  C   UNK N   1      29.595  18.246   9.546  0.00  0.00     0.274 C 
ENDBRANCH  39  40
ENDBRANCH  37  39
ENDBRANCH  16  35
TORSDOF 8
ENDMDL
MODEL 4
REMARK VINA RESULT:      -8.3      8.621     14.093
REMARK  8 active torsions:
REMARK  status: ('A' for Active; 'I' for Inactive)
REMARK    1  A    between atoms: C_3  and  O_32 
REMARK    2  A    between atoms: C_11  and  O_34 
REMARK    3  A    between atoms: C_14  and  O_38 
REMARK    4  A    between atoms: C_16  and  C_19 
REMARK    5  A    between atoms: C_17  and  O_37 
REMARK    6  A    between atoms: C_18  and  N_27 
REMARK       I    between atoms: C_19  and  N_20 
REMARK    7  A    between atoms: N_20  and  C_21 
REMARK    8  A    between atoms: C_21  and  N_22 
ROOT
HETATM    1  C   UNK N   1      19.680  18.735   2.698  0.00  0.00     0.003 A 
HETATM    2  C   UNK N   1      20.219  19.985   2.401  0.00  0.00     0.037 A 
HETATM    3  C   UNK N   1      21.521  20.304   2.793  0.00  0.00     0.080 A 
HETATM    4  C   UNK N   1      20.431  17.802   3.412  0.00  0.00     0.011 A 
HETATM    5  C   UNK N   1      21.742  18.101   3.821  0.00  0.00    -0.007 A 
HETATM    6  C   UNK N   1      22.300  19.358   3.498  0.00  0.00     0.057 A 
HETATM    7  C   UNK N   1      23.722  19.627   3.844  0.00  0.00     0.194 C 
HETATM    8  C   UNK N   1      22.524  17.145   4.704  0.00  0.00     0.090 C 
HETATM    9  C   UNK N   1      24.009  17.087   4.286  0.00  0.00     0.065 C 
HETATM   10  C   UNK N   1      24.625  18.465   4.130  0.00  0.00     0.033 C 
HETATM   11  C   UNK N   1      25.979  18.590   4.085  0.00  0.00     0.097 C 
HETATM   12  C   UNK N   1      24.837  16.306   5.306  0.00  0.00     0.024 C 
HETATM   13  C   UNK N   1      26.230  16.048   4.737  0.00  0.00     0.075 C 
HETATM   14  C   UNK N   1      26.917  17.396   4.284  0.00  0.00     0.177 C 
HETATM   15  C   UNK N   1      28.100  17.728   5.179  0.00  0.00     0.208 C 
HETATM   16  C   UNK N   1      29.089  16.648   5.361  0.00  0.00     0.112 C 
HETATM   17  C   UNK N   1      28.592  15.395   5.493  0.00  0.00     0.096 C 
HETATM   18  C   UNK N   1      27.092  15.228   5.753  0.00  0.00     0.286 C 
HETATM   19  C   UNK N   1      21.927  15.736   4.691  0.00  0.00     0.052 C 
HETATM   20  O   UNK N   1      22.444  17.633   6.013  0.00  0.00    -0.385 OA
HETATM   21  O   UNK N   1      24.173  20.759   3.749  0.00  0.00    -0.287 OA
HETATM   22  O   UNK N   1      28.337  18.868   5.555  0.00  0.00    -0.288 OA
HETATM   23  H   UNK N   1      22.484  18.067   6.879  0.00  0.00     0.211 HD
ENDROOT
BRANCH  11  24
HETATM   24  O   UNK N   1      26.533  19.790   3.804  0.00  0.00    -0.361 OA
HETATM   25  H   UNK N   1      26.014  20.569   3.767  0.00  0.00     0.217 HD
ENDBRANCH  11  24
BRANCH   3  26
HETATM   26  O   UNK N   1      22.023  21.507   2.460  0.00  0.00    -0.360 OA
HETATM   27  H   UNK N   1      22.500  22.019   3.083  0.00  0.00     0.217 HD
ENDBRANCH   3  26
BRANCH  14  28
HETATM   28  O   UNK N   1      27.489  17.150   3.030  0.00  0.00    -0.374 OA
HETATM   29  H   UNK N   1      28.208  17.083   2.384  0.00  0.00     0.211 HD
ENDBRANCH  14  28
BRANCH  18  30
HETATM   30  N   UNK N   1      26.663  13.817   5.923  0.00  0.00     0.091 N 
HETATM   31  C   UNK N   1      25.561  13.725   6.875  0.00  0.00     0.310 C 
HETATM   32  C   UNK N   1      26.080  13.309   4.690  0.00  0.00     0.310 C 
ENDBRANCH  18  30
BRANCH  17  33
HETATM   33  O   UNK N   1      29.397  14.320   5.410  0.00  0.00    -0.362 OA
HETATM   34  H   UNK N   1      29.962  13.962   6.067  0.00  0.00     0.217 HD
ENDBRANCH  17  33
BRANCH  16  35
HETATM   35  C   UNK N   1      30.551  16.956   5.228  0.00  0.00     0.259 C 
HETATM   36  O   UNK N   1      30.971  17.320   4.138  0.00  0.00    -0.267 OA
HETATM   37  N   UNK N   1      31.419  16.906   6.271  0.00  0.00    -0.331 N 
HETATM   38  H   UNK N   1      32.385  16.938   6.081  0.00  0.00     0.164 HD
BRANCH  37  39
HETATM   39  C   UNK N   1      30.991  16.806   7.646  0.00  0.00     0.397 C 
BRANCH  39  40
HETATM   40  N   UNK N   1      32.085  17.088   8.559  0.00  0.00     0.105 N 
HETATM   41  C   UNK N   1      32.938  15.916   8.641  0.00  0.00     0.274 C 
HETATM   42  C   UNK N   1      34.350  16.425   8.772  0.00  0.00     0.032 C 
HETATM   43  C   UNK N   1      34.345  17.722   8.008  0.00  0.00     0.032 C 
HETATM   44  C   UNK N   1      32.887  18.124   7.920  0.00  0.00     0.274 C 
ENDBRANCH  39  40
ENDBRANCH  37  39
ENDBRANCH  16  35
TORSDOF 8
ENDMDL
MODEL 5
REMARK VINA RESULT:      -7.9      2.398      8.007
REMARK  8 active torsions:
REMARK  status: ('A' for Active; 'I' for Inactive)
REMARK    1  A    between atoms: C_3  and  O_32 
REMARK    2  A    between atoms: C_11  and  O_34 
REMARK    3  A    between atoms: C_14  and  O_38 
REMARK    4  A    between atoms: C_16  and  C_19 
REMARK    5  A    between atoms: C_17  and  O_37 
REMARK    6  A    between atoms: C_18  and  N_27 
REMARK       I    between atoms: C_19  and  N_20 
REMARK    7  A    between atoms: N_20  and  C_21 
REMARK    8  A    between atoms: C_21  and  N_22 
ROOT
HETATM    1  C   UNK N   1      33.425  16.450   5.066  0.00  0.00     0.003 A 
HETATM    2  C   UNK N   1      33.752  17.589   5.799  0.00  0.00     0.037 A 
HETATM    3  C   UNK N   1      34.027  17.496   7.164  0.00  0.00     0.080 A 
HETATM    4  C   UNK N   1      33.346  15.211   5.700  0.00  0.00     0.011 A 
HETATM    5  C   UNK N   1      33.614  15.091   7.074  0.00  0.00    -0.007 A 
HETATM    6  C   UNK N   1      33.972  16.241   7.814  0.00  0.00     0.057 A 
HETATM    7  C   UNK N   1      34.353  16.090   9.244  0.00  0.00     0.194 C 
HETATM    8  C   UNK N   1      33.410  13.774   7.801  0.00  0.00     0.090 C 
HETATM    9  C   UNK N   1      34.524  13.533   8.842  0.00  0.00     0.065 C 
HETATM   10  C   UNK N   1      34.751  14.733   9.742  0.00  0.00     0.033 C 
HETATM   11  C   UNK N   1      35.453  14.578  10.897  0.00  0.00     0.097 C 
HETATM   12  C   UNK N   1      34.201  12.327   9.724  0.00  0.00     0.024 C 
HETATM   13  C   UNK N   1      35.428  11.964  10.556  0.00  0.00     0.075 C 
HETATM   14  C   UNK N   1      35.947  13.211  11.377  0.00  0.00     0.177 C 
HETATM   15  C   UNK N   1      35.733  13.004  12.868  0.00  0.00     0.208 C 
HETATM   16  C   UNK N   1      36.249  11.737  13.420  0.00  0.00     0.112 C 
HETATM   17  C   UNK N   1      36.083  10.635  12.650  0.00  0.00     0.096 C 
HETATM   18  C   UNK N   1      35.131  10.717  11.454  0.00  0.00     0.286 C 
HETATM   19  C   UNK N   1      33.342  12.591   6.832  0.00  0.00     0.052 C 
HETATM   20  O   UNK N   1      32.182  13.855   8.467  0.00  0.00    -0.385 OA
HETATM   21  O   UNK N   1      34.484  17.078   9.952  0.00  0.00    -0.287 OA
HETATM   22  O   UNK N   1      35.354  13.903  13.605  0.00  0.00    -0.288 OA
HETATM   23  H   UNK N   1      31.400  13.993   9.022  0.00  0.00     0.211 HD
ENDROOT
BRANCH  11  24
HETATM   24  O   UNK N   1      35.782  15.663  11.632  0.00  0.00    -0.361 OA
HETATM   25  H   UNK N   1      35.393  16.499  11.468  0.00  0.00     0.217 HD
ENDBRANCH  11  24
BRANCH   3  26
HETATM   26  O   UNK N   1      34.374  18.610   7.834  0.00  0.00    -0.360 OA
HETATM   27  H   UNK N   1      35.229  18.981   7.743  0.00  0.00     0.217 HD
ENDBRANCH   3  26
BRANCH  14  28
HETATM   28  O   UNK N   1      37.338  13.235  11.226  0.00  0.00    -0.374 OA
HETATM   29  H   UNK N   1      38.261  13.194  11.522  0.00  0.00     0.211 HD
ENDBRANCH  14  28
BRANCH  18  30
HETATM   30  N   UNK N   1      34.992   9.442  10.704  0.00  0.00     0.091 N 
HETATM   31  C   UNK N   1      33.590   9.169  10.408  0.00  0.00     0.310 C 
HETATM   32  C   UNK N   1      35.594   9.559   9.384  0.00  0.00     0.310 C 
ENDBRANCH  18  30
BRANCH  17  33
HETATM   33  O   UNK N   1      36.729   9.489  12.933  0.00  0.00    -0.362 OA
HETATM   34  H   UNK N   1      37.492   9.133  12.521  0.00  0.00     0.217 HD
ENDBRANCH  17  33
BRANCH  16  35
HETATM   35  C   UNK N   1      37.051  11.756  14.686  0.00  0.00     0.259 C 
HETATM   36  O   UNK N   1      38.118  12.355  14.689  0.00  0.00    -0.267 OA
HETATM   37  N   UNK N   1      36.625  11.190  15.846  0.00  0.00    -0.331 N 
HETATM   38  H   UNK N   1      37.272  11.078  16.579  0.00  0.00     0.164 HD
BRANCH  37  39
HETATM   39  C   UNK N   1      35.268  10.745  16.051  0.00  0.00     0.397 C 
BRANCH  39  40
HETATM   40  N   UNK N   1      34.655  11.428  17.175  0.00  0.00     0.105 N 
HETATM   41  C   UNK N   1      35.465  11.200  18.358  0.00  0.00     0.274 C 
HETATM   42  C   UNK N   1      35.414  12.472  19.164  0.00  0.00     0.032 C 
HETATM   43  C   UNK N   1      35.271  13.556  18.128  0.00  0.00     0.032 C 
HETATM   44  C   UNK N   1      34.759  12.854  16.888  0.00  0.00     0.274 C 
ENDBRANCH  39  40
ENDBRANCH  37  39
ENDBRANCH  16  35
TORSDOF 8
ENDMDL
MODEL 6
REMARK VINA RESULT:      -7.8      1.963      3.384
REMARK  8 active torsions:
REMARK  status: ('A' for Active; 'I' for Inactive)
REMARK    1  A    between atoms: C_3  and  O_32 
REMARK    2  A    between atoms: C_11  and  O_34 
REMARK    3  A    between atoms: C_14  and  O_38 
REMARK    4  A    between atoms: C_16  and  C_19 
REMARK    5  A    between atoms: C_17  and  O_37 
REMARK    6  A    between atoms: C_18  and  N_27 
REMARK       I    between atoms: C_19  and  N_20 
REMARK    7  A    between atoms: N_20  and  C_21 
REMARK    8  A    between atoms: C_21  and  N_22 
ROOT
HETATM    1  C   UNK N   1      34.963  12.076  19.145  0.00  0.00     0.003 A 
HETATM    2  C   UNK N   1      35.390  13.402  19.157  0.00  0.00     0.037 A 
HETATM    3  C   UNK N   1      35.857  14.004  17.988  0.00  0.00     0.080 A 
HETATM    4  C   UNK N   1      35.022  11.334  17.967  0.00  0.00     0.011 A 
HETATM    5  C   UNK N   1      35.492  11.916  16.777  0.00  0.00    -0.007 A 
HETATM    6  C   UNK N   1      35.901  13.269  16.781  0.00  0.00     0.057 A 
HETATM    7  C   UNK N   1      36.299  13.906  15.497  0.00  0.00     0.194 C 
HETATM    8  C   UNK N   1      35.679  11.086  15.519  0.00  0.00     0.090 C 
HETATM    9  C   UNK N   1      35.258  11.877  14.261  0.00  0.00     0.065 C 
HETATM   10  C   UNK N   1      35.871  13.263  14.212  0.00  0.00     0.033 C 
HETATM   11  C   UNK N   1      35.865  13.955  13.040  0.00  0.00     0.097 C 
HETATM   12  C   UNK N   1      35.654  11.133  12.987  0.00  0.00     0.024 C 
HETATM   13  C   UNK N   1      34.999  11.806  11.783  0.00  0.00     0.075 C 
HETATM   14  C   UNK N   1      35.347  13.346  11.735  0.00  0.00     0.177 C 
HETATM   15  C   UNK N   1      36.243  13.661  10.548  0.00  0.00     0.208 C 
HETATM   16  C   UNK N   1      35.772  13.169   9.239  0.00  0.00     0.112 C 
HETATM   17  C   UNK N   1      35.204  11.939   9.230  0.00  0.00     0.096 C 
HETATM   18  C   UNK N   1      35.370  11.049  10.465  0.00  0.00     0.286 C 
HETATM   19  C   UNK N   1      34.907   9.767  15.584  0.00  0.00     0.052 C 
HETATM   20  O   UNK N   1      37.041  10.782  15.424  0.00  0.00    -0.385 OA
HETATM   21  O   UNK N   1      36.832  15.006  15.498  0.00  0.00    -0.287 OA
HETATM   22  O   UNK N   1      37.179  14.445  10.625  0.00  0.00    -0.288 OA
HETATM   23  H   UNK N   1      38.001  10.706  15.315  0.00  0.00     0.211 HD
ENDROOT
BRANCH  11  24
HETATM   24  O   UNK N   1      36.278  15.241  13.018  0.00  0.00    -0.361 OA
HETATM   25  H   UNK N   1      35.999  15.854  13.669  0.00  0.00     0.217 HD
ENDBRANCH  11  24
BRANCH   3  26
HETATM   26  O   UNK N   1      36.229  15.297  18.026  0.00  0.00    -0.360 OA
HETATM   27  H   UNK N   1      35.713  15.934  18.480  0.00  0.00     0.217 HD
ENDBRANCH   3  26
BRANCH  14  28
HETATM   28  O   UNK N   1      34.150  14.015  11.452  0.00  0.00    -0.374 OA
HETATM   29  H   UNK N   1      33.294  14.152  11.019  0.00  0.00     0.211 HD
ENDBRANCH  14  28
BRANCH  18  30
HETATM   30  N   UNK N   1      34.744   9.708  10.330  0.00  0.00     0.091 N 
HETATM   31  C   UNK N   1      35.583   8.685  10.945  0.00  0.00     0.310 C 
HETATM   32  C   UNK N   1      33.515   9.640  11.106  0.00  0.00     0.310 C 
ENDBRANCH  18  30
BRANCH  17  33
HETATM   33  O   UNK N   1      34.519  11.502   8.157  0.00  0.00    -0.362 OA
HETATM   34  H   UNK N   1      34.678  10.739   7.635  0.00  0.00     0.217 HD
ENDBRANCH  17  33
BRANCH  16  35
HETATM   35  C   UNK N   1      35.791  14.087   8.054  0.00  0.00     0.259 C 
HETATM   36  O   UNK N   1      34.893  14.913   7.945  0.00  0.00    -0.267 OA
HETATM   37  N   UNK N   1      36.785  14.087   7.129  0.00  0.00    -0.331 N 
HETATM   38  H   UNK N   1      36.644  14.581   6.288  0.00  0.00     0.164 HD
BRANCH  37  39
HETATM   39  C   UNK N   1      38.038  13.396   7.321  0.00  0.00     0.397 C 
BRANCH  39  40
HETATM   40  N   UNK N   1      38.999  13.757   6.295  0.00  0.00     0.105 N 
HETATM   41  C   UNK N   1      40.131  14.412   6.925  0.00  0.00     0.274 C 
HETATM   42  C   UNK N   1      41.355  13.980   6.159  0.00  0.00     0.032 C 
HETATM   43  C   UNK N   1      41.020  12.590   5.686  0.00  0.00     0.032 C 
HETATM   44  C   UNK N   1      39.510  12.500   5.760  0.00  0.00     0.274 C 
ENDBRANCH  39  40
ENDBRANCH  37  39
ENDBRANCH  16  35
TORSDOF 8
ENDMDL
MODEL 7
REMARK VINA RESULT:      -7.6      7.435     11.643
REMARK  8 active torsions:
REMARK  status: ('A' for Active; 'I' for Inactive)
REMARK    1  A    between atoms: C_3  and  O_32 
REMARK    2  A    between atoms: C_11  and  O_34 
REMARK    3  A    between atoms: C_14  and  O_38 
REMARK    4  A    between atoms: C_16  and  C_19 
REMARK    5  A    between atoms: C_17  and  O_37 
REMARK    6  A    between atoms: C_18  and  N_27 
REMARK       I    between atoms: C_19  and  N_20 
REMARK    7  A    between atoms: N_20  and  C_21 
REMARK    8  A    between atoms: C_21  and  N_22 
ROOT
HETATM    1  C   UNK N   1      35.887  14.030   5.801  0.00  0.00     0.003 A 
HETATM    2  C   UNK N   1      35.743  13.885   4.423  0.00  0.00     0.037 A 
HETATM    3  C   UNK N   1      34.534  14.204   3.802  0.00  0.00     0.080 A 
HETATM    4  C   UNK N   1      34.814  14.473   6.574  0.00  0.00     0.011 A 
HETATM    5  C   UNK N   1      33.585  14.796   5.972  0.00  0.00    -0.007 A 
HETATM    6  C   UNK N   1      33.445  14.674   4.572  0.00  0.00     0.057 A 
HETATM    7  C   UNK N   1      32.176  15.116   3.933  0.00  0.00     0.194 C 
HETATM    8  C   UNK N   1      32.373  15.158   6.813  0.00  0.00     0.090 C 
HETATM    9  C   UNK N   1      31.561  16.297   6.158  0.00  0.00     0.065 C 
HETATM   10  C   UNK N   1      31.271  16.039   4.692  0.00  0.00     0.033 C 
HETATM   11  C   UNK N   1      30.311  16.769   4.063  0.00  0.00     0.097 C 
HETATM   12  C   UNK N   1      30.231  16.508   6.880  0.00  0.00     0.024 C 
HETATM   13  C   UNK N   1      29.581  17.795   6.379  0.00  0.00     0.075 C 
HETATM   14  C   UNK N   1      29.437  17.783   4.805  0.00  0.00     0.177 C 
HETATM   15  C   UNK N   1      27.975  17.704   4.396  0.00  0.00     0.208 C 
HETATM   16  C   UNK N   1      27.081  18.699   5.016  0.00  0.00     0.112 C 
HETATM   17  C   UNK N   1      27.305  18.977   6.323  0.00  0.00     0.096 C 
HETATM   18  C   UNK N   1      28.225  18.047   7.119  0.00  0.00     0.286 C 
HETATM   19  C   UNK N   1      32.763  15.553   8.239  0.00  0.00     0.052 C 
HETATM   20  O   UNK N   1      31.567  14.017   6.888  0.00  0.00    -0.385 OA
HETATM   21  O   UNK N   1      31.956  14.851   2.760  0.00  0.00    -0.287 OA
HETATM   22  O   UNK N   1      27.594  17.009   3.464  0.00  0.00    -0.288 OA
HETATM   23  H   UNK N   1      30.970  13.258   6.807  0.00  0.00     0.211 HD
ENDROOT
BRANCH  11  24
HETATM   24  O   UNK N   1      30.143  16.647   2.727  0.00  0.00    -0.361 OA
HETATM   25  H   UNK N   1      29.289  16.622   2.344  0.00  0.00     0.217 HD
ENDBRANCH  11  24
BRANCH   3  26
HETATM   26  O   UNK N   1      34.439  14.085   2.465  0.00  0.00    -0.360 OA
HETATM   27  H   UNK N   1      34.941  13.444   2.002  0.00  0.00     0.217 HD
ENDBRANCH   3  26
BRANCH  14  28
HETATM   28  O   UNK N   1      29.854  19.042   4.358  0.00  0.00    -0.374 OA
HETATM   29  H   UNK N   1      30.420  19.669   3.881  0.00  0.00     0.211 HD
ENDBRANCH  14  28
BRANCH  18  30
HETATM   30  N   UNK N   1      28.368  18.419   8.550  0.00  0.00     0.091 N 
HETATM   31  C   UNK N   1      28.072  17.279   9.410  0.00  0.00     0.310 C 
HETATM   32  C   UNK N   1      29.757  18.720   8.861  0.00  0.00     0.310 C 
ENDBRANCH  18  30
BRANCH  17  33
HETATM   33  O   UNK N   1      26.725  20.037   6.914  0.00  0.00    -0.362 OA
HETATM   34  H   UNK N   1      26.048  20.593   6.581  0.00  0.00     0.217 HD
ENDBRANCH  17  33
BRANCH  16  35
HETATM   35  C   UNK N   1      26.108  19.453   4.159  0.00  0.00     0.259 C 
HETATM   36  O   UNK N   1      26.531  20.375   3.474  0.00  0.00    -0.267 OA
HETATM   37  N   UNK N   1      24.793  19.126   4.062  0.00  0.00    -0.331 N 
HETATM   38  H   UNK N   1      24.181  19.766   3.632  0.00  0.00     0.164 HD
BRANCH  37  39
HETATM   39  C   UNK N   1      24.253  17.884   4.560  0.00  0.00     0.397 C 
BRANCH  39  40
HETATM   40  N   UNK N   1      22.805  17.938   4.649  0.00  0.00     0.105 N 
HETATM   41  C   UNK N   1      22.326  19.014   3.800  0.00  0.00     0.274 C 
HETATM   42  C   UNK N   1      21.024  18.541   3.207  0.00  0.00     0.032 C 
HETATM   43  C   UNK N   1      21.193  17.050   3.092  0.00  0.00     0.032 C 
HETATM   44  C   UNK N   1      22.317  16.704   4.047  0.00  0.00     0.274 C 
ENDBRANCH  39  40
ENDBRANCH  37  39
ENDBRANCH  16  35
TORSDOF 8
ENDMDL
MODEL 8
REMARK VINA RESULT:      -7.5      5.548     11.583
REMARK  8 active torsions:
REMARK  status: ('A' for Active; 'I' for Inactive)
REMARK    1  A    between atoms: C_3  and  O_32 
REMARK    2  A    between atoms: C_11  and  O_34 
REMARK    3  A    between atoms: C_14  and  O_38 
REMARK    4  A    between atoms: C_16  and  C_19 
REMARK    5  A    between atoms: C_17  and  O_37 
REMARK    6  A    between atoms: C_18  and  N_27 
REMARK       I    between atoms: C_19  and  N_20 
REMARK    7  A    between atoms: N_20  and  C_21 
REMARK    8  A    between atoms: C_21  and  N_22 
ROOT
HETATM    1  C   UNK N   1      26.062  11.811   1.714  0.00  0.00     0.003 A 
HETATM    2  C   UNK N   1      27.221  11.268   1.163  0.00  0.00     0.037 A 
HETATM    3  C   UNK N   1      28.466  11.836   1.438  0.00  0.00     0.080 A 
HETATM    4  C   UNK N   1      26.138  12.943   2.525  0.00  0.00     0.011 A 
HETATM    5  C   UNK N   1      27.379  13.535   2.813  0.00  0.00    -0.007 A 
HETATM    6  C   UNK N   1      28.558  12.971   2.277  0.00  0.00     0.057 A 
HETATM    7  C   UNK N   1      29.875  13.542   2.669  0.00  0.00     0.194 C 
HETATM    8  C   UNK N   1      27.465  14.838   3.590  0.00  0.00     0.090 C 
HETATM    9  C   UNK N   1      28.660  14.827   4.567  0.00  0.00     0.065 C 
HETATM   10  C   UNK N   1      29.952  14.390   3.903  0.00  0.00     0.033 C 
HETATM   11  C   UNK N   1      31.138  14.632   4.525  0.00  0.00     0.097 C 
HETATM   12  C   UNK N   1      28.881  16.209   5.181  0.00  0.00     0.024 C 
HETATM   13  C   UNK N   1      29.889  16.101   6.323  0.00  0.00     0.075 C 
HETATM   14  C   UNK N   1      31.228  15.419   5.835  0.00  0.00     0.177 C 
HETATM   15  C   UNK N   1      32.375  16.416   5.839  0.00  0.00     0.208 C 
HETATM   16  C   UNK N   1      32.572  17.163   7.096  0.00  0.00     0.112 C 
HETATM   17  C   UNK N   1      31.448  17.566   7.736  0.00  0.00     0.096 C 
HETATM   18  C   UNK N   1      30.116  17.501   6.984  0.00  0.00     0.286 C 
HETATM   19  C   UNK N   1      26.173  15.133   4.355  0.00  0.00     0.052 C 
HETATM   20  O   UNK N   1      27.656  15.863   2.657  0.00  0.00    -0.385 OA
HETATM   21  O   UNK N   1      30.891  13.200   2.082  0.00  0.00    -0.287 OA
HETATM   22  O   UNK N   1      33.212  16.453   4.947  0.00  0.00    -0.288 OA
HETATM   23  H   UNK N   1      27.922  16.527   2.004  0.00  0.00     0.211 HD
ENDROOT
BRANCH  11  24
HETATM   24  O   UNK N   1      32.280  14.123   4.014  0.00  0.00    -0.361 OA
HETATM   25  H   UNK N   1      32.393  14.010   3.091  0.00  0.00     0.217 HD
ENDBRANCH  11  24
BRANCH   3  26
HETATM   26  O   UNK N   1      29.569  11.266   0.918  0.00  0.00    -0.360 OA
HETATM   27  H   UNK N   1      30.176  10.805   1.463  0.00  0.00     0.217 HD
ENDBRANCH   3  26
BRANCH  14  28
HETATM   28  O   UNK N   1      31.578  14.484   6.817  0.00  0.00    -0.374 OA
HETATM   29  H   UNK N   1      32.098  14.127   7.553  0.00  0.00     0.211 HD
ENDBRANCH  14  28
BRANCH  18  30
HETATM   30  N   UNK N   1      28.957  18.005   7.765  0.00  0.00     0.091 N 
HETATM   31  C   UNK N   1      28.245  19.037   7.020  0.00  0.00     0.310 C 
HETATM   32  C   UNK N   1      27.957  16.960   7.925  0.00  0.00     0.310 C 
ENDBRANCH  18  30
BRANCH  17  33
HETATM   33  O   UNK N   1      31.500  18.026   9.000  0.00  0.00    -0.362 OA
HETATM   34  H   UNK N   1      30.919  18.625   9.427  0.00  0.00     0.217 HD
ENDBRANCH  17  33
BRANCH  16  35
HETATM   35  C   UNK N   1      33.951  17.292   7.670  0.00  0.00     0.259 C 
HETATM   36  O   UNK N   1      34.622  18.266   7.358  0.00  0.00    -0.267 OA
HETATM   37  N   UNK N   1      34.469  16.411   8.566  0.00  0.00    -0.331 N 
HETATM   38  H   UNK N   1      35.433  16.450   8.759  0.00  0.00     0.164 HD
BRANCH  37  39
HETATM   39  C   UNK N   1      33.669  15.420   9.245  0.00  0.00     0.397 C 
BRANCH  39  40
HETATM   40  N   UNK N   1      34.505  14.439   9.914  0.00  0.00     0.105 N 
HETATM   41  C   UNK N   1      35.864  14.569   9.419  0.00  0.00     0.274 C 
HETATM   42  C   UNK N   1      36.772  14.299  10.591  0.00  0.00     0.032 C 
HETATM   43  C   UNK N   1      35.990  14.787  11.781  0.00  0.00     0.032 C 
HETATM   44  C   UNK N   1      34.549  14.834  11.316  0.00  0.00     0.274 C 
ENDBRANCH  39  40
ENDBRANCH  37  39
ENDBRANCH  16  35
TORSDOF 8
ENDMDL
MODEL 9
REMARK VINA RESULT:      -7.3      2.100      3.155
REMARK  8 active torsions:
REMARK  status: ('A' for Active; 'I' for Inactive)
REMARK    1  A    between atoms: C_3  and  O_32 
REMARK    2  A    between atoms: C_11  and  O_34 
REMARK    3  A    between atoms: C_14  and  O_38 
REMARK    4  A    between atoms: C_16  and  C_19 
REMARK    5  A    between atoms: C_17  and  O_37 
REMARK    6  A    between atoms: C_18  and  N_27 
REMARK       I    between atoms: C_19  and  N_20 
REMARK    7  A    between atoms: N_20  and  C_21 
REMARK    8  A    between atoms: C_21  and  N_22 
ROOT
HETATM    1  C   UNK N   1      34.956   6.861  17.932  0.00  0.00     0.003 A 
HETATM    2  C   UNK N   1      34.546   7.896  18.769  0.00  0.00     0.037 A 
HETATM    3  C   UNK N   1      34.730   9.226  18.388  0.00  0.00     0.080 A 
HETATM    4  C   UNK N   1      35.577   7.147  16.717  0.00  0.00     0.011 A 
HETATM    5  C   UNK N   1      35.777   8.479  16.313  0.00  0.00    -0.007 A 
HETATM    6  C   UNK N   1      35.338   9.531  17.148  0.00  0.00     0.057 A 
HETATM    7  C   UNK N   1      35.461  10.933  16.667  0.00  0.00     0.194 C 
HETATM    8  C   UNK N   1      36.562   8.806  15.055  0.00  0.00     0.090 C 
HETATM    9  C   UNK N   1      35.929   9.992  14.296  0.00  0.00     0.065 C 
HETATM   10  C   UNK N   1      35.643  11.177  15.199  0.00  0.00     0.033 C 
HETATM   11  C   UNK N   1      35.393  12.394  14.645  0.00  0.00     0.097 C 
HETATM   12  C   UNK N   1      36.836  10.464  13.160  0.00  0.00     0.024 C 
HETATM   13  C   UNK N   1      36.073  11.451  12.279  0.00  0.00     0.075 C 
HETATM   14  C   UNK N   1      35.485  12.640  13.137  0.00  0.00     0.177 C 
HETATM   15  C   UNK N   1      36.183  13.947  12.800  0.00  0.00     0.208 C 
HETATM   16  C   UNK N   1      36.247  14.290  11.367  0.00  0.00     0.112 C 
HETATM   17  C   UNK N   1      36.488  13.266  10.515  0.00  0.00     0.096 C 
HETATM   18  C   UNK N   1      36.974  11.934  11.094  0.00  0.00     0.286 C 
HETATM   19  C   UNK N   1      36.678   7.598  14.123  0.00  0.00     0.052 C 
HETATM   20  O   UNK N   1      37.853   9.166  15.455  0.00  0.00    -0.385 OA
HETATM   21  O   UNK N   1      35.267  11.864  17.435  0.00  0.00    -0.287 OA
HETATM   22  O   UNK N   1      36.487  14.766  13.657  0.00  0.00    -0.288 OA
HETATM   23  H   UNK N   1      38.690   9.538  15.772  0.00  0.00     0.211 HD
ENDROOT
BRANCH  11  24
HETATM   24  O   UNK N   1      34.998  13.420  15.430  0.00  0.00    -0.361 OA
HETATM   25  H   UNK N   1      34.704  14.230  15.063  0.00  0.00     0.217 HD
ENDBRANCH  11  24
BRANCH   3  26
HETATM   26  O   UNK N   1      34.291  10.202  19.204  0.00  0.00    -0.360 OA
HETATM   27  H   UNK N   1      33.454  10.602  19.070  0.00  0.00     0.217 HD
ENDBRANCH   3  26
BRANCH  14  28
HETATM   28  O   UNK N   1      34.167  12.829  12.702  0.00  0.00    -0.374 OA
HETATM   29  H   UNK N   1      33.443  13.286  12.249  0.00  0.00     0.211 HD
ENDBRANCH  14  28
BRANCH  18  30
HETATM   30  N   UNK N   1      37.247  10.894  10.068  0.00  0.00     0.091 N 
HETATM   31  C   UNK N   1      38.384  10.069  10.462  0.00  0.00     0.310 C 
HETATM   32  C   UNK N   1      36.150   9.940  10.006  0.00  0.00     0.310 C 
ENDBRANCH  18  30
BRANCH  17  33
HETATM   33  O   UNK N   1      36.318  13.414   9.188  0.00  0.00    -0.362 OA
HETATM   34  H   UNK N   1      35.541  13.658   8.724  0.00  0.00     0.217 HD
ENDBRANCH  17  33
BRANCH  16  35
HETATM   35  C   UNK N   1      35.889  15.677  10.923  0.00  0.00     0.259 C 
HETATM   36  O   UNK N   1      36.764  16.532  10.928  0.00  0.00    -0.267 OA
HETATM   37  N   UNK N   1      34.657  16.016  10.461  0.00  0.00    -0.331 N 
HETATM   38  H   UNK N   1      34.439  16.970  10.362  0.00  0.00     0.164 HD
BRANCH  37  39
HETATM   39  C   UNK N   1      33.654  15.039  10.110  0.00  0.00     0.397 C 
BRANCH  39  40
HETATM   40  N   UNK N   1      33.551  14.887   8.670  0.00  0.00     0.105 N 
HETATM   41  C   UNK N   1      32.276  14.266   8.356  0.00  0.00     0.274 C 
HETATM   42  C   UNK N   1      31.802  14.891   7.069  0.00  0.00     0.032 C 
HETATM   43  C   UNK N   1      32.354  16.291   7.116  0.00  0.00     0.032 C 
HETATM   44  C   UNK N   1      33.483  16.238   8.125  0.00  0.00     0.274 C 
ENDBRANCH  39  40
ENDBRANCH  37  39
ENDBRANCH  16  35
TORSDOF 8
ENDMDL
