MODEL 1
REMARK VINA RESULT:      -1.3      0.000      0.000
REMARK  1 active torsions:
REMARK  status: ('A' for Active; 'I' for Inactive)
REMARK    1  A    between atoms: K_1  and  K_1 
ROOT
HETATM    1  K   UNK N   1      38.596  29.706  19.362  0.00  0.00     0.000 K 
ENDROOT
TORSDOF 1
ENDMDL
MODEL 2
REMARK VINA RESULT:      -1.2     11.042     11.042
REMARK  1 active torsions:
REMARK  status: ('A' for Active; 'I' for Inactive)
REMARK    1  A    between atoms: K_1  and  K_1 
ROOT
HETATM    1  K   UNK N   1      35.636  21.382  12.738  0.00  0.00     0.000 K 
ENDROOT
TORSDOF 1
ENDMDL
MODEL 3
REMARK VINA RESULT:      -1.2     31.889     31.889
REMARK  1 active torsions:
REMARK  status: ('A' for Active; 'I' for Inactive)
REMARK    1  A    between atoms: K_1  and  K_1 
ROOT
HETATM    1  K   UNK N   1      21.453  21.778  -6.332  0.00  0.00     0.000 K 
ENDROOT
TORSDOF 1
ENDMDL
MODEL 4
REMARK VINA RESULT:      -1.1     15.613     15.613
REMARK  1 active torsions:
REMARK  status: ('A' for Active; 'I' for Inactive)
REMARK    1  A    between atoms: K_1  and  K_1 
ROOT
HETATM    1  K   UNK N   1      43.320  25.304   5.147  0.00  0.00     0.000 K 
ENDROOT
TORSDOF 1
ENDMDL
MODEL 5
REMARK VINA RESULT:      -1.0     33.003     33.003
REMARK  1 active torsions:
REMARK  status: ('A' for Active; 'I' for Inactive)
REMARK    1  A    between atoms: K_1  and  K_1 
ROOT
HETATM    1  K   UNK N   1      19.919  20.078  -6.087  0.00  0.00     0.000 K 
ENDROOT
TORSDOF 1
ENDMDL
MODEL 6
REMARK VINA RESULT:      -1.0      9.040      9.040
REMARK  1 active torsions:
REMARK  status: ('A' for Active; 'I' for Inactive)
REMARK    1  A    between atoms: K_1  and  K_1 
ROOT
HETATM    1  K   UNK N   1      41.691  21.639  22.017  0.00  0.00     0.000 K 
ENDROOT
TORSDOF 1
ENDMDL
MODEL 7
REMARK VINA RESULT:      -1.0      4.994      4.994
REMARK  1 active torsions:
REMARK  status: ('A' for Active; 'I' for Inactive)
REMARK    1  A    between atoms: K_1  and  K_1 
ROOT
HETATM    1  K   UNK N   1      42.899  29.357  16.852  0.00  0.00     0.000 K 
ENDROOT
TORSDOF 1
ENDMDL
MODEL 8
REMARK VINA RESULT:      -1.0     25.523     25.523
REMARK  1 active torsions:
REMARK  status: ('A' for Active; 'I' for Inactive)
REMARK    1  A    between atoms: K_1  and  K_1 
ROOT
HETATM    1  K   UNK N   1      17.312  25.063   6.062  0.00  0.00     0.000 K 
ENDROOT
TORSDOF 1
ENDMDL
MODEL 9
REMARK VINA RESULT:      -0.9     24.674     24.674
REMARK  1 active torsions:
REMARK  status: ('A' for Active; 'I' for Inactive)
REMARK    1  A    between atoms: K_1  and  K_1 
ROOT
HETATM    1  K   UNK N   1      17.493  20.393  10.604  0.00  0.00     0.000 K 
ENDROOT
TORSDOF 1
ENDMDL
