MODEL 1
REMARK VINA RESULT:      -1.8      0.000      0.000
REMARK  8 active torsions:
REMARK  status: ('A' for Active; 'I' for Inactive)
REMARK    1  A    between atoms: O_3  and  Si_5 
REMARK    2  A    between atoms: Si_5  and  O_6 
REMARK    3  A    between atoms: Si_5  and  O_8 
REMARK    4  A    between atoms: Si_5  and  O_10 
REMARK    5  A    between atoms: O_10  and  Si_11 
REMARK    6  A    between atoms: Si_11  and  O_12 
REMARK    7  A    between atoms: Si_11  and  O_14 
REMARK    8  A    between atoms: Si_11  and  O_16 
ROOT
HETATM    1  O   UNK N   1      35.458  22.121  12.850  0.00  0.00    -0.411 OA
HETATM    2  H   UNK N   1      34.928  21.851  13.617  0.00  0.00     0.205 HD
HETATM    3  H   UNK N   1      36.380  21.832  12.772  0.00  0.00     0.205 HD
ENDROOT
TORSDOF 8
ENDMDL
MODEL 2
REMARK VINA RESULT:      -1.5     19.772     19.772
REMARK  8 active torsions:
REMARK  status: ('A' for Active; 'I' for Inactive)
REMARK    1  A    between atoms: O_3  and  Si_5 
REMARK    2  A    between atoms: Si_5  and  O_6 
REMARK    3  A    between atoms: Si_5  and  O_8 
REMARK    4  A    between atoms: Si_5  and  O_10 
REMARK    5  A    between atoms: O_10  and  Si_11 
REMARK    6  A    between atoms: Si_11  and  O_12 
REMARK    7  A    between atoms: Si_11  and  O_14 
REMARK    8  A    between atoms: Si_11  and  O_16 
ROOT
HETATM    1  O   UNK N   1      20.609  20.611  -0.117  0.00  0.00    -0.411 OA
HETATM    2  H   UNK N   1      21.383  20.464  -0.683  0.00  0.00     0.205 HD
HETATM    3  H   UNK N   1      19.730  20.714  -0.513  0.00  0.00     0.205 HD
ENDROOT
TORSDOF 8
ENDMDL
MODEL 3
REMARK VINA RESULT:      -1.4     10.371     10.371
REMARK  8 active torsions:
REMARK  status: ('A' for Active; 'I' for Inactive)
REMARK    1  A    between atoms: O_3  and  Si_5 
REMARK    2  A    between atoms: Si_5  and  O_6 
REMARK    3  A    between atoms: Si_5  and  O_8 
REMARK    4  A    between atoms: Si_5  and  O_10 
REMARK    5  A    between atoms: O_10  and  Si_11 
REMARK    6  A    between atoms: Si_11  and  O_12 
REMARK    7  A    between atoms: Si_11  and  O_14 
REMARK    8  A    between atoms: Si_11  and  O_16 
ROOT
HETATM    1  O   UNK N   1      41.252  21.761  21.445  0.00  0.00    -0.411 OA
HETATM    2  H   UNK N   1      41.988  21.348  20.967  0.00  0.00     0.205 HD
HETATM    3  H   UNK N   1      40.695  22.420  21.002  0.00  0.00     0.205 HD
ENDROOT
TORSDOF 8
ENDMDL
MODEL 4
REMARK VINA RESULT:      -1.4     18.265     18.265
REMARK  8 active torsions:
REMARK  status: ('A' for Active; 'I' for Inactive)
REMARK    1  A    between atoms: O_3  and  Si_5 
REMARK    2  A    between atoms: Si_5  and  O_6 
REMARK    3  A    between atoms: Si_5  and  O_8 
REMARK    4  A    between atoms: Si_5  and  O_10 
REMARK    5  A    between atoms: O_10  and  Si_11 
REMARK    6  A    between atoms: Si_11  and  O_12 
REMARK    7  A    between atoms: Si_11  and  O_14 
REMARK    8  A    between atoms: Si_11  and  O_16 
ROOT
HETATM    1  O   UNK N   1      20.801  30.116  20.258  0.00  0.00    -0.411 OA
HETATM    2  H   UNK N   1      21.425  29.936  20.979  0.00  0.00     0.205 HD
HETATM    3  H   UNK N   1      20.073  29.500  20.082  0.00  0.00     0.205 HD
ENDROOT
TORSDOF 8
ENDMDL
MODEL 5
REMARK VINA RESULT:      -1.3      5.089      5.089
REMARK  8 active torsions:
REMARK  status: ('A' for Active; 'I' for Inactive)
REMARK    1  A    between atoms: O_3  and  Si_5 
REMARK    2  A    between atoms: Si_5  and  O_6 
REMARK    3  A    between atoms: Si_5  and  O_8 
REMARK    4  A    between atoms: Si_5  and  O_10 
REMARK    5  A    between atoms: O_10  and  Si_11 
REMARK    6  A    between atoms: Si_11  and  O_12 
REMARK    7  A    between atoms: Si_11  and  O_14 
REMARK    8  A    between atoms: Si_11  and  O_16 
ROOT
HETATM    1  O   UNK N   1      35.400  19.346   8.585  0.00  0.00    -0.411 OA
HETATM    2  H   UNK N   1      36.028  19.688   9.242  0.00  0.00     0.205 HD
HETATM    3  H   UNK N   1      35.649  19.311   7.649  0.00  0.00     0.205 HD
ENDROOT
TORSDOF 8
ENDMDL
MODEL 6
REMARK VINA RESULT:      -1.3     18.829     18.829
REMARK  8 active torsions:
REMARK  status: ('A' for Active; 'I' for Inactive)
REMARK    1  A    between atoms: O_3  and  Si_5 
REMARK    2  A    between atoms: Si_5  and  O_6 
REMARK    3  A    between atoms: Si_5  and  O_8 
REMARK    4  A    between atoms: Si_5  and  O_10 
REMARK    5  A    between atoms: O_10  and  Si_11 
REMARK    6  A    between atoms: Si_11  and  O_12 
REMARK    7  A    between atoms: Si_11  and  O_14 
REMARK    8  A    between atoms: Si_11  and  O_16 
ROOT
HETATM    1  O   UNK N   1      17.989  26.179   7.114  0.00  0.00    -0.411 OA
HETATM    2  H   UNK N   1      18.616  26.521   7.770  0.00  0.00     0.205 HD
HETATM    3  H   UNK N   1      18.238  26.144   6.177  0.00  0.00     0.205 HD
ENDROOT
TORSDOF 8
ENDMDL
MODEL 7
REMARK VINA RESULT:      -1.3     16.556     16.556
REMARK  8 active torsions:
REMARK  status: ('A' for Active; 'I' for Inactive)
REMARK    1  A    between atoms: O_3  and  Si_5 
REMARK    2  A    between atoms: Si_5  and  O_6 
REMARK    3  A    between atoms: Si_5  and  O_8 
REMARK    4  A    between atoms: Si_5  and  O_10 
REMARK    5  A    between atoms: O_10  and  Si_11 
REMARK    6  A    between atoms: Si_11  and  O_12 
REMARK    7  A    between atoms: Si_11  and  O_14 
REMARK    8  A    between atoms: Si_11  and  O_16 
ROOT
HETATM    1  O   UNK N   1      19.138  19.834  11.257  0.00  0.00    -0.411 OA
HETATM    2  H   UNK N   1      19.874  19.422  10.779  0.00  0.00     0.205 HD
HETATM    3  H   UNK N   1      18.580  20.493  10.814  0.00  0.00     0.205 HD
ENDROOT
TORSDOF 8
ENDMDL
MODEL 8
REMARK VINA RESULT:      -1.2     11.320     11.320
REMARK  8 active torsions:
REMARK  status: ('A' for Active; 'I' for Inactive)
REMARK    1  A    between atoms: O_3  and  Si_5 
REMARK    2  A    between atoms: Si_5  and  O_6 
REMARK    3  A    between atoms: Si_5  and  O_8 
REMARK    4  A    between atoms: Si_5  and  O_10 
REMARK    5  A    between atoms: O_10  and  Si_11 
REMARK    6  A    between atoms: Si_11  and  O_12 
REMARK    7  A    between atoms: Si_11  and  O_14 
REMARK    8  A    between atoms: Si_11  and  O_16 
ROOT
HETATM    1  O   UNK N   1      24.805  21.393   9.092  0.00  0.00    -0.411 OA
HETATM    2  H   UNK N   1      25.076  20.782   9.795  0.00  0.00     0.205 HD
HETATM    3  H   UNK N   1      24.102  22.040   9.256  0.00  0.00     0.205 HD
ENDROOT
TORSDOF 8
ENDMDL
MODEL 9
REMARK VINA RESULT:      -1.2     15.064     15.064
REMARK  8 active torsions:
REMARK  status: ('A' for Active; 'I' for Inactive)
REMARK    1  A    between atoms: O_3  and  Si_5 
REMARK    2  A    between atoms: Si_5  and  O_6 
REMARK    3  A    between atoms: Si_5  and  O_8 
REMARK    4  A    between atoms: Si_5  and  O_10 
REMARK    5  A    between atoms: O_10  and  Si_11 
REMARK    6  A    between atoms: Si_11  and  O_12 
REMARK    7  A    between atoms: Si_11  and  O_14 
REMARK    8  A    between atoms: Si_11  and  O_16 
ROOT
HETATM    1  O   UNK N   1      32.865  21.100  -1.954  0.00  0.00    -0.411 OA
HETATM    2  H   UNK N   1      33.136  20.489  -1.251  0.00  0.00     0.205 HD
HETATM    3  H   UNK N   1      32.161  21.747  -1.789  0.00  0.00     0.205 HD
ENDROOT
TORSDOF 8
ENDMDL
