MODEL 1
REMARK VINA RESULT:      -5.9      0.000      0.000
REMARK  2 active torsions:
REMARK  status: ('A' for Active; 'I' for Inactive)
REMARK    1  A    between atoms: C_2  and  C_3 
REMARK    2  A    between atoms: C_2  and  C_9 
ROOT
HETATM    1  O   UNK N   1      26.691  23.625  -2.531  0.00  0.00    -0.287 OA
HETATM    2  C   UNK N   1      27.281  24.382  -3.287  0.00  0.00     0.192 C 
ENDROOT
BRANCH   2   3
HETATM    3  C   UNK N   1      26.498  25.460  -3.971  0.00  0.00     0.015 A 
HETATM    4  C   UNK N   1      25.870  25.246  -5.208  0.00  0.00     0.015 A 
HETATM    5  C   UNK N   1      25.145  26.261  -5.831  0.00  0.00     0.001 A 
HETATM    6  C   UNK N   1      25.037  27.512  -5.223  0.00  0.00     0.000 A 
HETATM    7  C   UNK N   1      25.656  27.744  -3.993  0.00  0.00     0.001 A 
HETATM    8  C   UNK N   1      26.383  26.724  -3.369  0.00  0.00     0.015 A 
ENDBRANCH   2   3
BRANCH   2   9
HETATM    9  C   UNK N   1      28.753  24.186  -3.487  0.00  0.00     0.015 A 
HETATM   10  C   UNK N   1      29.436  23.228  -2.719  0.00  0.00     0.015 A 
HETATM   11  C   UNK N   1      30.811  23.030  -2.892  0.00  0.00     0.001 A 
HETATM   12  C   UNK N   1      31.516  23.787  -3.832  0.00  0.00     0.000 A 
HETATM   13  C   UNK N   1      30.847  24.741  -4.599  0.00  0.00     0.001 A 
HETATM   14  C   UNK N   1      29.478  24.936  -4.425  0.00  0.00     0.015 A 
ENDBRANCH   2   9
TORSDOF 2
ENDMDL
MODEL 2
REMARK VINA RESULT:      -5.8      0.324      5.154
REMARK  2 active torsions:
REMARK  status: ('A' for Active; 'I' for Inactive)
REMARK    1  A    between atoms: C_2  and  C_3 
REMARK    2  A    between atoms: C_2  and  C_9 
ROOT
HETATM    1  O   UNK N   1      26.373  23.512  -2.901  0.00  0.00    -0.287 OA
HETATM    2  C   UNK N   1      27.062  24.374  -3.427  0.00  0.00     0.192 C 
ENDROOT
BRANCH   2   3
HETATM    3  C   UNK N   1      28.544  24.168  -3.481  0.00  0.00     0.015 A 
HETATM    4  C   UNK N   1      29.354  24.861  -4.395  0.00  0.00     0.015 A 
HETATM    5  C   UNK N   1      30.732  24.657  -4.432  0.00  0.00     0.001 A 
HETATM    6  C   UNK N   1      31.325  23.753  -3.551  0.00  0.00     0.000 A 
HETATM    7  C   UNK N   1      30.536  23.055  -2.634  0.00  0.00     0.001 A 
HETATM    8  C   UNK N   1      29.153  23.260  -2.598  0.00  0.00     0.015 A 
ENDBRANCH   2   3
BRANCH   2   9
HETATM    9  C   UNK N   1      26.383  25.587  -3.984  0.00  0.00     0.015 A 
HETATM   10  C   UNK N   1      26.357  26.776  -3.235  0.00  0.00     0.015 A 
HETATM   11  C   UNK N   1      25.729  27.920  -3.740  0.00  0.00     0.001 A 
HETATM   12  C   UNK N   1      25.118  27.887  -4.997  0.00  0.00     0.000 A 
HETATM   13  C   UNK N   1      25.137  26.713  -5.750  0.00  0.00     0.001 A 
HETATM   14  C   UNK N   1      25.764  25.575  -5.244  0.00  0.00     0.015 A 
ENDBRANCH   2   9
TORSDOF 2
ENDMDL
MODEL 3
REMARK VINA RESULT:      -5.7     16.959     18.882
REMARK  2 active torsions:
REMARK  status: ('A' for Active; 'I' for Inactive)
REMARK    1  A    between atoms: C_2  and  C_3 
REMARK    2  A    between atoms: C_2  and  C_9 
ROOT
HETATM    1  O   UNK N   1      21.018  12.271   7.718  0.00  0.00    -0.287 OA
HETATM    2  C   UNK N   1      21.468  13.137   8.454  0.00  0.00     0.192 C 
ENDROOT
BRANCH   2   3
HETATM    3  C   UNK N   1      22.375  12.723   9.572  0.00  0.00     0.015 A 
HETATM    4  C   UNK N   1      21.873  12.330  10.823  0.00  0.00     0.015 A 
HETATM    5  C   UNK N   1      22.731  11.947  11.853  0.00  0.00     0.001 A 
HETATM    6  C   UNK N   1      24.111  11.952  11.646  0.00  0.00     0.000 A 
HETATM    7  C   UNK N   1      24.628  12.340  10.409  0.00  0.00     0.001 A 
HETATM    8  C   UNK N   1      23.766  12.724   9.376  0.00  0.00     0.015 A 
ENDBRANCH   2   3
BRANCH   2   9
HETATM    9  C   UNK N   1      21.084  14.562   8.196  0.00  0.00     0.015 A 
HETATM   10  C   UNK N   1      21.693  15.265   7.142  0.00  0.00     0.015 A 
HETATM   11  C   UNK N   1      21.346  16.596   6.885  0.00  0.00     0.001 A 
HETATM   12  C   UNK N   1      20.390  17.238   7.678  0.00  0.00     0.000 A 
HETATM   13  C   UNK N   1      19.780  16.550   8.726  0.00  0.00     0.001 A 
HETATM   14  C   UNK N   1      20.127  15.224   8.980  0.00  0.00     0.015 A 
ENDBRANCH   2   9
TORSDOF 2
ENDMDL
MODEL 4
REMARK VINA RESULT:      -5.7     16.937     18.288
REMARK  2 active torsions:
REMARK  status: ('A' for Active; 'I' for Inactive)
REMARK    1  A    between atoms: C_2  and  C_3 
REMARK    2  A    between atoms: C_2  and  C_9 
ROOT
HETATM    1  O   UNK N   1      21.040  12.287   7.694  0.00  0.00    -0.287 OA
HETATM    2  C   UNK N   1      21.481  13.154   8.436  0.00  0.00     0.192 C 
ENDROOT
BRANCH   2   3
HETATM    3  C   UNK N   1      21.092  14.577   8.180  0.00  0.00     0.015 A 
HETATM    4  C   UNK N   1      20.182  15.255   9.007  0.00  0.00     0.015 A 
HETATM    5  C   UNK N   1      19.831  16.580   8.755  0.00  0.00     0.001 A 
HETATM    6  C   UNK N   1      20.387  17.251   7.665  0.00  0.00     0.000 A 
HETATM    7  C   UNK N   1      21.294  16.593   6.831  0.00  0.00     0.001 A 
HETATM    8  C   UNK N   1      21.646  15.263   7.086  0.00  0.00     0.015 A 
ENDBRANCH   2   3
BRANCH   2   9
HETATM    9  C   UNK N   1      22.385  12.740   9.556  0.00  0.00     0.015 A 
HETATM   10  C   UNK N   1      23.777  12.754   9.367  0.00  0.00     0.015 A 
HETATM   11  C   UNK N   1      24.638  12.373  10.403  0.00  0.00     0.001 A 
HETATM   12  C   UNK N   1      24.116  11.972  11.636  0.00  0.00     0.000 A 
HETATM   13  C   UNK N   1      22.736  11.954  11.835  0.00  0.00     0.001 A 
HETATM   14  C   UNK N   1      21.881  12.335  10.802  0.00  0.00     0.015 A 
ENDBRANCH   2   9
TORSDOF 2
ENDMDL
MODEL 5
REMARK VINA RESULT:      -5.7      2.278      6.124
REMARK  2 active torsions:
REMARK  status: ('A' for Active; 'I' for Inactive)
REMARK    1  A    between atoms: C_2  and  C_3 
REMARK    2  A    between atoms: C_2  and  C_9 
ROOT
HETATM    1  O   UNK N   1      30.501  23.010  -1.255  0.00  0.00    -0.287 OA
HETATM    2  C   UNK N   1      30.316  22.893  -2.458  0.00  0.00     0.192 C 
ENDROOT
BRANCH   2   3
HETATM    3  C   UNK N   1      31.123  21.879  -3.208  0.00  0.00     0.015 A 
HETATM    4  C   UNK N   1      32.460  21.608  -2.879  0.00  0.00     0.015 A 
HETATM    5  C   UNK N   1      33.197  20.661  -3.589  0.00  0.00     0.001 A 
HETATM    6  C   UNK N   1      32.604  19.967  -4.643  0.00  0.00     0.000 A 
HETATM    7  C   UNK N   1      31.275  20.223  -4.985  0.00  0.00     0.001 A 
HETATM    8  C   UNK N   1      30.537  21.174  -4.273  0.00  0.00     0.015 A 
ENDBRANCH   2   3
BRANCH   2   9
HETATM    9  C   UNK N   1      29.295  23.773  -3.110  0.00  0.00     0.015 A 
HETATM   10  C   UNK N   1      27.930  23.569  -2.845  0.00  0.00     0.015 A 
HETATM   11  C   UNK N   1      26.961  24.382  -3.444  0.00  0.00     0.001 A 
HETATM   12  C   UNK N   1      27.346  25.406  -4.315  0.00  0.00     0.000 A 
HETATM   13  C   UNK N   1      28.697  25.618  -4.585  0.00  0.00     0.001 A 
HETATM   14  C   UNK N   1      29.660  24.807  -3.987  0.00  0.00     0.015 A 
ENDBRANCH   2   9
TORSDOF 2
ENDMDL
MODEL 6
REMARK VINA RESULT:      -5.6     25.915     28.438
REMARK  2 active torsions:
REMARK  status: ('A' for Active; 'I' for Inactive)
REMARK    1  A    between atoms: C_2  and  C_3 
REMARK    2  A    between atoms: C_2  and  C_9 
ROOT
HETATM    1  O   UNK N   1      36.360  10.469  20.628  0.00  0.00    -0.287 OA
HETATM    2  C   UNK N   1      35.334  10.664  19.994  0.00  0.00     0.192 C 
ENDROOT
BRANCH   2   3
HETATM    3  C   UNK N   1      34.088   9.947  20.416  0.00  0.00     0.015 A 
HETATM    4  C   UNK N   1      33.434  10.248  21.621  0.00  0.00     0.015 A 
HETATM    5  C   UNK N   1      32.275   9.570  21.999  0.00  0.00     0.001 A 
HETATM    6  C   UNK N   1      31.751   8.577  21.172  0.00  0.00     0.000 A 
HETATM    7  C   UNK N   1      32.387   8.264  19.969  0.00  0.00     0.001 A 
HETATM    8  C   UNK N   1      33.550   8.944  19.592  0.00  0.00     0.015 A 
ENDBRANCH   2   3
BRANCH   2   9
HETATM    9  C   UNK N   1      35.382  11.608  18.832  0.00  0.00     0.015 A 
HETATM   10  C   UNK N   1      35.170  12.981  19.043  0.00  0.00     0.015 A 
HETATM   11  C   UNK N   1      35.213  13.878  17.970  0.00  0.00     0.001 A 
HETATM   12  C   UNK N   1      35.465  13.413  16.676  0.00  0.00     0.000 A 
HETATM   13  C   UNK N   1      35.677  12.052  16.455  0.00  0.00     0.001 A 
HETATM   14  C   UNK N   1      35.634  11.160  17.526  0.00  0.00     0.015 A 
ENDBRANCH   2   9
TORSDOF 2
ENDMDL
MODEL 7
REMARK VINA RESULT:      -5.6     13.482     16.088
REMARK  2 active torsions:
REMARK  status: ('A' for Active; 'I' for Inactive)
REMARK    1  A    between atoms: C_2  and  C_3 
REMARK    2  A    between atoms: C_2  and  C_9 
ROOT
HETATM    1  O   UNK N   1      34.922  18.924   8.332  0.00  0.00    -0.287 OA
HETATM    2  C   UNK N   1      34.427  17.811   8.231  0.00  0.00     0.192 C 
ENDROOT
BRANCH   2   3
HETATM    3  C   UNK N   1      33.357  17.597   7.206  0.00  0.00     0.015 A 
HETATM    4  C   UNK N   1      33.646  17.564   5.832  0.00  0.00     0.015 A 
HETATM    5  C   UNK N   1      32.638  17.363   4.890  0.00  0.00     0.001 A 
HETATM    6  C   UNK N   1      31.319  17.192   5.310  0.00  0.00     0.000 A 
HETATM    7  C   UNK N   1      31.012  17.222   6.672  0.00  0.00     0.001 A 
HETATM    8  C   UNK N   1      32.025  17.423   7.616  0.00  0.00     0.015 A 
ENDBRANCH   2   3
BRANCH   2   9
HETATM    9  C   UNK N   1      34.918  16.727   9.141  0.00  0.00     0.015 A 
HETATM   10  C   UNK N   1      35.046  15.416   8.653  0.00  0.00     0.015 A 
HETATM   11  C   UNK N   1      35.505  14.390   9.488  0.00  0.00     0.001 A 
HETATM   12  C   UNK N   1      35.839  14.664  10.817  0.00  0.00     0.000 A 
HETATM   13  C   UNK N   1      35.716  15.962  11.312  0.00  0.00     0.001 A 
HETATM   14  C   UNK N   1      35.259  16.982  10.478  0.00  0.00     0.015 A 
ENDBRANCH   2   9
TORSDOF 2
ENDMDL
MODEL 8
REMARK VINA RESULT:      -5.5     10.259     11.908
REMARK  2 active torsions:
REMARK  status: ('A' for Active; 'I' for Inactive)
REMARK    1  A    between atoms: C_2  and  C_3 
REMARK    2  A    between atoms: C_2  and  C_9 
ROOT
HETATM    1  O   UNK N   1      28.618  16.287   5.975  0.00  0.00    -0.287 OA
HETATM    2  C   UNK N   1      29.185  17.354   5.788  0.00  0.00     0.192 C 
ENDROOT
BRANCH   2   3
HETATM    3  C   UNK N   1      28.351  18.591   5.661  0.00  0.00     0.015 A 
HETATM    4  C   UNK N   1      27.911  19.062   4.414  0.00  0.00     0.015 A 
HETATM    5  C   UNK N   1      27.136  20.216   4.314  0.00  0.00     0.001 A 
HETATM    6  C   UNK N   1      26.787  20.921   5.466  0.00  0.00     0.000 A 
HETATM    7  C   UNK N   1      27.215  20.468   6.716  0.00  0.00     0.001 A 
HETATM    8  C   UNK N   1      27.994  19.309   6.815  0.00  0.00     0.015 A 
ENDBRANCH   2   3
BRANCH   2   9
HETATM    9  C   UNK N   1      30.680  17.360   5.694  0.00  0.00     0.015 A 
HETATM   10  C   UNK N   1      31.450  17.168   6.854  0.00  0.00     0.015 A 
HETATM   11  C   UNK N   1      32.847  17.169   6.786  0.00  0.00     0.001 A 
HETATM   12  C   UNK N   1      33.489  17.363   5.559  0.00  0.00     0.000 A 
HETATM   13  C   UNK N   1      32.736  17.555   4.402  0.00  0.00     0.001 A 
HETATM   14  C   UNK N   1      31.343  17.553   4.472  0.00  0.00     0.015 A 
ENDBRANCH   2   9
TORSDOF 2
ENDMDL
MODEL 9
REMARK VINA RESULT:      -5.5     10.255     12.889
REMARK  2 active torsions:
REMARK  status: ('A' for Active; 'I' for Inactive)
REMARK    1  A    between atoms: C_2  and  C_3 
REMARK    2  A    between atoms: C_2  and  C_9 
ROOT
HETATM    1  O   UNK N   1      28.551  16.309   6.027  0.00  0.00    -0.287 OA
HETATM    2  C   UNK N   1      29.124  17.364   5.798  0.00  0.00     0.192 C 
ENDROOT
BRANCH   2   3
HETATM    3  C   UNK N   1      30.617  17.354   5.680  0.00  0.00     0.015 A 
HETATM    4  C   UNK N   1      31.262  17.533   4.447  0.00  0.00     0.015 A 
HETATM    5  C   UNK N   1      32.653  17.520   4.355  0.00  0.00     0.001 A 
HETATM    6  C   UNK N   1      33.424  17.328   5.501  0.00  0.00     0.000 A 
HETATM    7  C   UNK N   1      32.799  17.149   6.738  0.00  0.00     0.001 A 
HETATM    8  C   UNK N   1      31.403  17.161   6.828  0.00  0.00     0.015 A 
ENDBRANCH   2   3
BRANCH   2   9
HETATM    9  C   UNK N   1      28.299  18.605   5.649  0.00  0.00     0.015 A 
HETATM   10  C   UNK N   1      27.998  19.380   6.782  0.00  0.00     0.015 A 
HETATM   11  C   UNK N   1      27.230  20.544   6.662  0.00  0.00     0.001 A 
HETATM   12  C   UNK N   1      26.754  20.944   5.410  0.00  0.00     0.000 A 
HETATM   13  C   UNK N   1      27.046  20.183   4.279  0.00  0.00     0.001 A 
HETATM   14  C   UNK N   1      27.812  19.024   4.401  0.00  0.00     0.015 A 
ENDBRANCH   2   9
TORSDOF 2
ENDMDL
