REMARK  14 active torsions:
REMARK  status: ('A' for Active; 'I' for Inactive)
REMARK    1  A    between atoms: C_1  and  C_4 
REMARK       I    between atoms: N_5  and  C_4 
REMARK    2  A    between atoms: C_6  and  N_5 
REMARK    3  A    between atoms: C_7  and  C_6 
REMARK    4  A    between atoms: O_15  and  C_7 
REMARK    5  A    between atoms: C_8  and  C_9 
REMARK    6  A    between atoms: O_16  and  C_8 
REMARK    7  A    between atoms: C_9  and  C_20 
REMARK    8  A    between atoms: C_9  and  N_14 
REMARK    9  A    between atoms: C_21  and  C_13 
REMARK   10  A    between atoms: S_19  and  C_22 
REMARK   11  A    between atoms: C_20  and  S_19 
REMARK   12  A    between atoms: C_23  and  C_21 
REMARK   13  A    between atoms: C_22  and  C_24 
REMARK   14  A    between atoms: C_24  and  C_23 
ROOT
HETATM    1  C   UNK N   1       6.036  -3.729  -0.515  0.00  0.00     0.105 C 
HETATM    2  C   UNK N   1       7.112  -3.049  -0.937  0.00  0.00     0.010 C 
ENDROOT
BRANCH   2   3
HETATM    3  C   UNK N   1       8.451  -3.677  -1.131  0.00  0.00     0.030 C 
BRANCH   3   4
HETATM    4  C   UNK N   1       9.435  -2.580  -1.495  0.00  0.00     0.005 C 
BRANCH   4   5
HETATM    5  C   UNK N   1      10.799  -2.830  -0.874  0.00  0.00     0.010 C 
BRANCH   5   6
HETATM    6  C   UNK N   1      10.742  -2.720   0.641  0.00  0.00     0.074 C 
BRANCH   6   7
HETATM    7  S   UNK N   1      10.694  -4.385   1.358  0.00  0.00    -0.167 SA
BRANCH   7   8
HETATM    8  C   UNK N   1      12.486  -4.411   1.727  0.00  0.00     0.109 C 
BRANCH   8   9
HETATM    9  C   UNK N   1      13.388  -4.852   0.561  0.00  0.00     0.182 C 
BRANCH   9  10
HETATM   10  C   UNK N   1      14.083  -3.720  -0.145  0.00  0.00     0.163 C 
HETATM   11  O   UNK N   1      13.870  -2.559   0.168  0.00  0.00    -0.648 OA
BRANCH  10  12
HETATM   12  O   UNK N   1      14.979  -3.993  -1.113  0.00  0.00    -0.775 OA
HETATM   13  H   UNK N   1      15.126  -4.627  -1.786  0.00  0.00     0.167 HD
ENDBRANCH  10  12
ENDBRANCH   9  10
BRANCH   9  14
HETATM   14  N   UNK N   1      12.681  -5.692  -0.394  0.00  0.00    -0.417 N 
HETATM   15  H   UNK N   1      11.923  -5.557  -1.064  0.00  0.00     0.150 HD
HETATM   16  H   UNK N   1      13.028  -6.652  -0.394  0.00  0.00     0.150 HD
ENDBRANCH   9  14
ENDBRANCH   8   9
ENDBRANCH   7   8
ENDBRANCH   6   7
ENDBRANCH   5   6
ENDBRANCH   4   5
ENDBRANCH   3   4
ENDBRANCH   2   3
BRANCH   1  17
HETATM   17  N   UNK N   1       6.151  -5.135  -0.268  0.00  0.00    -0.322 N 
HETATM   18  C   UNK N   1       5.451  -5.848   0.662  0.00  0.00     0.227 C 
HETATM   19  O   UNK N   1       4.722  -5.283   1.461  0.00  0.00    -0.273 OA
HETATM   20  H   UNK N   1       6.795  -5.634  -0.820  0.00  0.00     0.169 HD
BRANCH  18  21
HETATM   21  C   UNK N   1       5.635  -7.343   0.796  0.00  0.00     0.086 A 
HETATM   22  C   UNK N   1       5.071  -8.169  -0.355  0.00  0.00    -0.035 A 
HETATM   23  C   UNK N   1       4.392  -7.503  -1.541  0.00  0.00     0.015 C 
HETATM   24  C   UNK N   1       4.783  -9.628  -0.069  0.00  0.00     0.015 C 
HETATM   25  C   UNK N   1       6.553  -7.889  -0.296  0.00  0.00     0.024 A 
ENDBRANCH  18  21
ENDBRANCH   1  17
BRANCH   1  26
HETATM   26  C   UNK N   1       4.749  -2.987  -0.379  0.00  0.00     0.193 C 
HETATM   27  O   UNK N   1       4.725  -1.775  -0.524  0.00  0.00    -0.645 OA
BRANCH  26  28
HETATM   28  O   UNK N   1       3.593  -3.640  -0.158  0.00  0.00    -0.772 OA
HETATM   29  H   UNK N   1       2.797  -3.171  -0.004  0.00  0.00     0.167 HD
ENDBRANCH  26  28
ENDBRANCH   1  26
TORSDOF 14
