MODEL 1
REMARK VINA RESULT:      -7.8      0.000      0.000
REMARK  7 active torsions:
REMARK  status: ('A' for Active; 'I' for Inactive)
REMARK    1  A    between atoms: C_25  and  C_2 
REMARK    2  A    between atoms: C_18  and  O_29 
REMARK    3  A    between atoms: C_22  and  C_31 
REMARK    4  A    between atoms: C_31  and  C_33 
REMARK    5  A    between atoms: C_33  and  O_34 
REMARK    6  A    between atoms: O_34  and  C_35 
REMARK    7  A    between atoms: C_35  and  C_37 
ROOT
HETATM    1  C   UNK N   1      21.684  15.867   2.572  0.00  0.00     0.052 C 
HETATM    2  C   UNK N   1      21.719  14.912   1.440  0.00  0.00     0.171 C 
HETATM    3  C   UNK N   1      23.039  14.374   1.038  0.00  0.00     0.058 C 
HETATM    4  C   UNK N   1      22.742  15.920   3.405  0.00  0.00    -0.009 C 
HETATM    5  C   UNK N   1      23.773  14.800   3.375  0.00  0.00     0.004 C 
HETATM    6  C   UNK N   1      24.046  14.411   1.929  0.00  0.00    -0.064 C 
HETATM    7  C   UNK N   1      25.456  14.199   1.484  0.00  0.00     0.036 C 
HETATM    8  C   UNK N   1      26.287  15.447   1.829  0.00  0.00     0.010 C 
HETATM    9  C   UNK N   1      25.103  15.141   4.107  0.00  0.00     0.035 C 
HETATM   10  C   UNK N   1      26.034  16.028   3.245  0.00  0.00    -0.001 C 
HETATM   11  C   UNK N   1      25.873  16.854   5.895  0.00  0.00     0.045 C 
HETATM   12  C   UNK N   1      24.806  15.843   5.453  0.00  0.00     0.124 C 
HETATM   13  C   UNK N   1      27.303  16.449   5.519  0.00  0.00     0.004 C 
HETATM   14  C   UNK N   1      27.398  16.225   3.980  0.00  0.00     0.004 C 
HETATM   15  C   UNK N   1      28.146  17.430   3.449  0.00  0.00     0.041 C 
HETATM   16  C   UNK N   1      28.395  17.545   5.871  0.00  0.00     0.160 C 
HETATM   17  C   UNK N   1      29.133  17.778   4.548  0.00  0.00     0.168 C 
HETATM   18  O   UNK N   1      30.206  16.897   4.610  0.00  0.00    -0.352 OA
HETATM   19  C   UNK N   1      30.552  17.060   5.959  0.00  0.00     0.266 C 
HETATM   20  O   UNK N   1      29.379  17.027   6.732  0.00  0.00    -0.339 OA
HETATM   21  O   UNK N   1      20.731  14.726   0.751  0.00  0.00    -0.289 OA
HETATM   22  C   UNK N   1      23.120  13.606   4.072  0.00  0.00     0.025 C 
HETATM   23  C   UNK N   1      27.587  15.126   6.249  0.00  0.00     0.019 C 
ENDROOT
BRANCH  16  24
HETATM   24  C   UNK N   1      27.895  18.873   6.466  0.00  0.00     0.188 C 
HETATM   25  O   UNK N   1      27.661  18.953   7.663  0.00  0.00    -0.292 OA
BRANCH  24  26
HETATM   26  C   UNK N   1      27.542  20.057   5.617  0.00  0.00     0.260 C 
BRANCH  26  27
HETATM   27  O   UNK N   1      26.226  20.039   5.230  0.00  0.00    -0.314 OA
BRANCH  27  28
HETATM   28  C   UNK N   1      25.786  20.119   3.940  0.00  0.00     0.262 C 
HETATM   29  O   UNK N   1      26.544  20.590   3.108  0.00  0.00    -0.265 OA
BRANCH  28  30
HETATM   30  C   UNK N   1      24.414  19.651   3.452  0.00  0.00     0.077 C 
HETATM   31  C   UNK N   1      23.692  20.772   2.729  0.00  0.00     0.020 C 
HETATM   32  C   UNK N   1      23.461  19.036   4.462  0.00  0.00     0.020 C 
ENDBRANCH  28  30
ENDBRANCH  27  28
ENDBRANCH  26  27
ENDBRANCH  24  26
ENDBRANCH  16  24
BRANCH  19  33
HETATM   33  C   UNK N   1      31.586  16.032   6.421  0.00  0.00     0.041 C 
HETATM   34  C   UNK N   1      31.994  16.272   7.881  0.00  0.00     0.009 C 
HETATM   35  C   UNK N   1      32.699  17.620   8.050  0.00  0.00     0.001 C 
HETATM   36  C   UNK N   1      33.935  17.681   7.158  0.00  0.00     0.000 C 
HETATM   37  C   UNK N   1      33.553  17.453   5.697  0.00  0.00     0.001 C 
HETATM   38  C   UNK N   1      32.834  16.109   5.532  0.00  0.00     0.009 C 
ENDBRANCH  19  33
BRANCH  12  39
HETATM   39  O   UNK N   1      24.525  14.914   6.456  0.00  0.00    -0.395 OA
HETATM   40  H   UNK N   1      23.866  14.293   6.806  0.00  0.00     0.210 HD
ENDBRANCH  12  39
TORSDOF 7
ENDMDL
MODEL 2
REMARK VINA RESULT:      -7.5     11.662     14.922
REMARK  7 active torsions:
REMARK  status: ('A' for Active; 'I' for Inactive)
REMARK    1  A    between atoms: C_25  and  C_2 
REMARK    2  A    between atoms: C_18  and  O_29 
REMARK    3  A    between atoms: C_22  and  C_31 
REMARK    4  A    between atoms: C_31  and  C_33 
REMARK    5  A    between atoms: C_33  and  O_34 
REMARK    6  A    between atoms: O_34  and  C_35 
REMARK    7  A    between atoms: C_35  and  C_37 
ROOT
HETATM    1  C   UNK N   1      26.684  27.605  -3.163  0.00  0.00     0.052 C 
HETATM    2  C   UNK N   1      26.527  28.955  -3.755  0.00  0.00     0.171 C 
HETATM    3  C   UNK N   1      26.962  29.143  -5.158  0.00  0.00     0.058 C 
HETATM    4  C   UNK N   1      26.849  26.554  -3.989  0.00  0.00    -0.009 C 
HETATM    5  C   UNK N   1      26.540  26.712  -5.471  0.00  0.00     0.004 C 
HETATM    6  C   UNK N   1      27.062  28.060  -5.949  0.00  0.00    -0.064 C 
HETATM    7  C   UNK N   1      27.801  28.138  -7.245  0.00  0.00     0.036 C 
HETATM    8  C   UNK N   1      28.965  27.132  -7.224  0.00  0.00     0.010 C 
HETATM    9  C   UNK N   1      27.098  25.565  -6.363  0.00  0.00     0.035 C 
HETATM   10  C   UNK N   1      28.609  25.734  -6.655  0.00  0.00    -0.001 C 
HETATM   11  C   UNK N   1      27.899  23.127  -5.996  0.00  0.00     0.045 C 
HETATM   12  C   UNK N   1      26.841  24.196  -5.692  0.00  0.00     0.124 C 
HETATM   13  C   UNK N   1      28.474  23.211  -7.415  0.00  0.00     0.004 C 
HETATM   14  C   UNK N   1      29.075  24.628  -7.655  0.00  0.00     0.004 C 
HETATM   15  C   UNK N   1      30.576  24.436  -7.610  0.00  0.00     0.041 C 
HETATM   16  C   UNK N   1      29.650  22.183  -7.695  0.00  0.00     0.160 C 
HETATM   17  C   UNK N   1      30.800  23.058  -8.205  0.00  0.00     0.168 C 
HETATM   18  O   UNK N   1      30.645  23.034  -9.586  0.00  0.00    -0.352 OA
HETATM   19  C   UNK N   1      30.302  21.684  -9.750  0.00  0.00     0.266 C 
HETATM   20  O   UNK N   1      29.345  21.341  -8.780  0.00  0.00    -0.339 OA
HETATM   21  O   UNK N   1      26.230  29.910  -3.058  0.00  0.00    -0.289 OA
HETATM   22  C   UNK N   1      25.015  26.727  -5.585  0.00  0.00     0.025 C 
HETATM   23  C   UNK N   1      27.295  22.983  -8.376  0.00  0.00     0.019 C 
ENDROOT
BRANCH  16  24
HETATM   24  C   UNK N   1      30.107  21.298  -6.522  0.00  0.00     0.188 C 
HETATM   25  O   UNK N   1      29.632  20.182  -6.382  0.00  0.00    -0.292 OA
BRANCH  24  26
HETATM   26  C   UNK N   1      31.020  21.796  -5.442  0.00  0.00     0.260 C 
BRANCH  26  27
HETATM   27  O   UNK N   1      30.524  21.541  -4.189  0.00  0.00    -0.314 OA
BRANCH  27  28
HETATM   28  C   UNK N   1      30.820  22.258  -3.066  0.00  0.00     0.262 C 
HETATM   29  O   UNK N   1      31.732  21.862  -2.360  0.00  0.00    -0.265 OA
BRANCH  28  30
HETATM   30  C   UNK N   1      30.100  23.534  -2.628  0.00  0.00     0.077 C 
HETATM   31  C   UNK N   1      28.630  23.259  -2.373  0.00  0.00     0.020 C 
HETATM   32  C   UNK N   1      30.214  24.766  -3.510  0.00  0.00     0.020 C 
ENDBRANCH  28  30
ENDBRANCH  27  28
ENDBRANCH  26  27
ENDBRANCH  24  26
ENDBRANCH  16  24
BRANCH  19  33
HETATM   33  C   UNK N   1      29.832  21.373 -11.171  0.00  0.00     0.041 C 
HETATM   34  C   UNK N   1      29.106  20.021 -11.232  0.00  0.00     0.009 C 
HETATM   35  C   UNK N   1      30.046  18.865 -10.883  0.00  0.00     0.001 C 
HETATM   36  C   UNK N   1      31.235  18.849 -11.838  0.00  0.00     0.000 C 
HETATM   37  C   UNK N   1      31.980  20.181 -11.788  0.00  0.00     0.001 C 
HETATM   38  C   UNK N   1      31.034  21.340 -12.125  0.00  0.00     0.009 C 
ENDBRANCH  19  33
BRANCH  12  39
HETATM   39  O   UNK N   1      25.550  23.737  -5.957  0.00  0.00    -0.395 OA
HETATM   40  H   UNK N   1      24.627  23.995  -6.110  0.00  0.00     0.210 HD
ENDBRANCH  12  39
TORSDOF 7
ENDMDL
MODEL 3
REMARK VINA RESULT:      -7.4     11.081     14.459
REMARK  7 active torsions:
REMARK  status: ('A' for Active; 'I' for Inactive)
REMARK    1  A    between atoms: C_25  and  C_2 
REMARK    2  A    between atoms: C_18  and  O_29 
REMARK    3  A    between atoms: C_22  and  C_31 
REMARK    4  A    between atoms: C_31  and  C_33 
REMARK    5  A    between atoms: C_33  and  O_34 
REMARK    6  A    between atoms: O_34  and  C_35 
REMARK    7  A    between atoms: C_35  and  C_37 
ROOT
HETATM    1  C   UNK N   1      34.509  19.222  -6.494  0.00  0.00     0.052 C 
HETATM    2  C   UNK N   1      35.858  19.791  -6.261  0.00  0.00     0.171 C 
HETATM    3  C   UNK N   1      35.941  21.216  -5.868  0.00  0.00     0.058 C 
HETATM    4  C   UNK N   1      33.440  19.871  -5.995  0.00  0.00    -0.009 C 
HETATM    5  C   UNK N   1      33.646  20.956  -4.947  0.00  0.00     0.004 C 
HETATM    6  C   UNK N   1      34.854  21.799  -5.331  0.00  0.00    -0.064 C 
HETATM    7  C   UNK N   1      34.769  23.287  -5.227  0.00  0.00     0.036 C 
HETATM    8  C   UNK N   1      33.546  23.779  -6.021  0.00  0.00     0.010 C 
HETATM    9  C   UNK N   1      32.402  21.862  -4.717  0.00  0.00     0.035 C 
HETATM   10  C   UNK N   1      32.255  22.944  -5.814  0.00  0.00    -0.001 C 
HETATM   11  C   UNK N   1      29.855  21.698  -5.169  0.00  0.00     0.045 C 
HETATM   12  C   UNK N   1      31.119  21.000  -4.652  0.00  0.00     0.124 C 
HETATM   13  C   UNK N   1      29.807  23.200  -4.864  0.00  0.00     0.004 C 
HETATM   14  C   UNK N   1      31.069  23.896  -5.456  0.00  0.00     0.004 C 
HETATM   15  C   UNK N   1      30.574  24.648  -6.673  0.00  0.00     0.041 C 
HETATM   16  C   UNK N   1      28.558  23.946  -5.497  0.00  0.00     0.160 C 
HETATM   17  C   UNK N   1      29.175  25.099  -6.296  0.00  0.00     0.168 C 
HETATM   18  O   UNK N   1      29.172  26.160  -5.399  0.00  0.00    -0.352 OA
HETATM   19  C   UNK N   1      27.918  25.948  -4.805  0.00  0.00     0.266 C 
HETATM   20  O   UNK N   1      27.788  24.582  -4.506  0.00  0.00    -0.339 OA
HETATM   21  O   UNK N   1      36.859  19.165  -6.564  0.00  0.00    -0.289 OA
HETATM   22  C   UNK N   1      33.972  20.226  -3.643  0.00  0.00     0.025 C 
HETATM   23  C   UNK N   1      29.818  23.332  -3.332  0.00  0.00     0.019 C 
ENDROOT
BRANCH  16  24
HETATM   24  C   UNK N   1      27.608  23.111  -6.374  0.00  0.00     0.188 C 
HETATM   25  O   UNK N   1      28.047  22.510  -7.343  0.00  0.00    -0.292 OA
BRANCH  24  26
HETATM   26  C   UNK N   1      26.122  23.109  -6.180  0.00  0.00     0.260 C 
BRANCH  26  27
HETATM   27  O   UNK N   1      25.520  24.182  -6.788  0.00  0.00    -0.314 OA
BRANCH  27  28
HETATM   28  C   UNK N   1      25.378  24.343  -8.136  0.00  0.00     0.262 C 
HETATM   29  O   UNK N   1      24.668  23.549  -8.732  0.00  0.00    -0.265 OA
BRANCH  28  30
HETATM   30  C   UNK N   1      26.032  25.453  -8.959  0.00  0.00     0.077 C 
HETATM   31  C   UNK N   1      26.431  26.614  -8.069  0.00  0.00     0.020 C 
HETATM   32  C   UNK N   1      25.277  26.001 -10.158  0.00  0.00     0.020 C 
ENDBRANCH  28  30
ENDBRANCH  27  28
ENDBRANCH  26  27
ENDBRANCH  24  26
ENDBRANCH  16  24
BRANCH  19  33
HETATM   33  C   UNK N   1      27.699  26.838  -3.582  0.00  0.00     0.041 C 
HETATM   34  C   UNK N   1      26.203  27.042  -3.305  0.00  0.00     0.009 C 
HETATM   35  C   UNK N   1      25.520  27.796  -4.449  0.00  0.00     0.001 C 
HETATM   36  C   UNK N   1      26.190  29.151  -4.658  0.00  0.00     0.000 C 
HETATM   37  C   UNK N   1      27.680  28.974  -4.944  0.00  0.00     0.001 C 
HETATM   38  C   UNK N   1      28.359  28.206  -3.803  0.00  0.00     0.009 C 
ENDBRANCH  19  33
BRANCH  12  39
HETATM   39  O   UNK N   1      30.933  20.465  -3.377  0.00  0.00    -0.395 OA
HETATM   40  H   UNK N   1      30.776  20.670  -2.441  0.00  0.00     0.210 HD
ENDBRANCH  12  39
TORSDOF 7
ENDMDL
MODEL 4
REMARK VINA RESULT:      -7.4      7.948     12.994
REMARK  7 active torsions:
REMARK  status: ('A' for Active; 'I' for Inactive)
REMARK    1  A    between atoms: C_25  and  C_2 
REMARK    2  A    between atoms: C_18  and  O_29 
REMARK    3  A    between atoms: C_22  and  C_31 
REMARK    4  A    between atoms: C_31  and  C_33 
REMARK    5  A    between atoms: C_33  and  O_34 
REMARK    6  A    between atoms: O_34  and  C_35 
REMARK    7  A    between atoms: C_35  and  C_37 
ROOT
HETATM    1  C   UNK N   1      34.497  12.709  16.608  0.00  0.00     0.052 C 
HETATM    2  C   UNK N   1      35.402  11.815  17.368  0.00  0.00     0.171 C 
HETATM    3  C   UNK N   1      36.367  10.999  16.595  0.00  0.00     0.058 C 
HETATM    4  C   UNK N   1      34.818  13.025  15.339  0.00  0.00    -0.009 C 
HETATM    5  C   UNK N   1      36.227  12.749  14.834  0.00  0.00     0.004 C 
HETATM    6  C   UNK N   1      36.686  11.392  15.348  0.00  0.00    -0.064 C 
HETATM    7  C   UNK N   1      37.376  10.452  14.415  0.00  0.00     0.036 C 
HETATM    8  C   UNK N   1      36.498  10.241  13.170  0.00  0.00     0.010 C 
HETATM    9  C   UNK N   1      36.373  12.821  13.286  0.00  0.00     0.035 C 
HETATM   10  C   UNK N   1      35.867  11.535  12.590  0.00  0.00    -0.001 C 
HETATM   11  C   UNK N   1      35.040  13.868  11.325  0.00  0.00     0.045 C 
HETATM   12  C   UNK N   1      35.614  14.051  12.736  0.00  0.00     0.124 C 
HETATM   13  C   UNK N   1      35.919  13.012  10.405  0.00  0.00     0.004 C 
HETATM   14  C   UNK N   1      36.160  11.618  11.058  0.00  0.00     0.004 C 
HETATM   15  C   UNK N   1      35.291  10.657  10.274  0.00  0.00     0.041 C 
HETATM   16  C   UNK N   1      35.274  12.725   8.984  0.00  0.00     0.160 C 
HETATM   17  C   UNK N   1      35.311  11.198   8.856  0.00  0.00     0.168 C 
HETATM   18  O   UNK N   1      36.512  10.952   8.201  0.00  0.00    -0.352 OA
HETATM   19  C   UNK N   1      36.483  12.006   7.275  0.00  0.00     0.266 C 
HETATM   20  O   UNK N   1      36.105  13.182   7.945  0.00  0.00    -0.339 OA
HETATM   21  O   UNK N   1      35.230  11.620  18.559  0.00  0.00    -0.289 OA
HETATM   22  C   UNK N   1      37.119  13.820  15.463  0.00  0.00     0.025 C 
HETATM   23  C   UNK N   1      37.258  13.754  10.269  0.00  0.00     0.019 C 
ENDROOT
BRANCH  16  24
HETATM   24  C   UNK N   1      33.855  13.265   8.731  0.00  0.00     0.188 C 
HETATM   25  O   UNK N   1      32.888  12.545   8.924  0.00  0.00    -0.292 OA
BRANCH  24  26
HETATM   26  C   UNK N   1      33.600  14.609   8.117  0.00  0.00     0.260 C 
BRANCH  26  27
HETATM   27  O   UNK N   1      33.360  15.572   9.064  0.00  0.00    -0.314 OA
BRANCH  27  28
HETATM   28  C   UNK N   1      33.816  16.858   9.010  0.00  0.00     0.262 C 
HETATM   29  O   UNK N   1      34.751  17.161   9.731  0.00  0.00    -0.265 OA
BRANCH  28  30
HETATM   30  C   UNK N   1      33.249  17.949   8.101  0.00  0.00     0.077 C 
HETATM   31  C   UNK N   1      31.754  18.094   8.308  0.00  0.00     0.020 C 
HETATM   32  C   UNK N   1      33.524  17.860   6.610  0.00  0.00     0.020 C 
ENDBRANCH  28  30
ENDBRANCH  27  28
ENDBRANCH  26  27
ENDBRANCH  24  26
ENDBRANCH  16  24
BRANCH  19  33
HETATM   33  C   UNK N   1      37.807  12.158   6.528  0.00  0.00     0.041 C 
HETATM   34  C   UNK N   1      37.819  13.435   5.674  0.00  0.00     0.009 C 
HETATM   35  C   UNK N   1      36.764  13.377   4.568  0.00  0.00     0.001 C 
HETATM   36  C   UNK N   1      37.006  12.164   3.675  0.00  0.00     0.000 C 
HETATM   37  C   UNK N   1      36.990  10.880   4.500  0.00  0.00     0.001 C 
HETATM   38  C   UNK N   1      38.038  10.944   5.617  0.00  0.00     0.009 C 
ENDBRANCH  19  33
BRANCH  12  39
HETATM   39  O   UNK N   1      36.387  15.209  12.836  0.00  0.00    -0.395 OA
HETATM   40  H   UNK N   1      36.979  15.727  13.404  0.00  0.00     0.210 HD
ENDBRANCH  12  39
TORSDOF 7
ENDMDL
MODEL 5
REMARK VINA RESULT:      -7.3      8.637     14.316
REMARK  7 active torsions:
REMARK  status: ('A' for Active; 'I' for Inactive)
REMARK    1  A    between atoms: C_25  and  C_2 
REMARK    2  A    between atoms: C_18  and  O_29 
REMARK    3  A    between atoms: C_22  and  C_31 
REMARK    4  A    between atoms: C_31  and  C_33 
REMARK    5  A    between atoms: C_33  and  O_34 
REMARK    6  A    between atoms: O_34  and  C_35 
REMARK    7  A    between atoms: C_35  and  C_37 
ROOT
HETATM    1  C   UNK N   1      37.896   9.353  15.617  0.00  0.00     0.052 C 
HETATM    2  C   UNK N   1      36.988   9.350  16.787  0.00  0.00     0.171 C 
HETATM    3  C   UNK N   1      35.840  10.286  16.766  0.00  0.00     0.058 C 
HETATM    4  C   UNK N   1      37.462   9.897  14.464  0.00  0.00    -0.009 C 
HETATM    5  C   UNK N   1      35.977  10.183  14.285  0.00  0.00     0.004 C 
HETATM    6  C   UNK N   1      35.420  10.760  15.579  0.00  0.00    -0.064 C 
HETATM    7  C   UNK N   1      34.506  11.940  15.519  0.00  0.00     0.036 C 
HETATM    8  C   UNK N   1      35.189  13.067  14.725  0.00  0.00     0.010 C 
HETATM    9  C   UNK N   1      35.650  11.120  13.087  0.00  0.00     0.035 C 
HETATM   10  C   UNK N   1      35.900  12.610  13.424  0.00  0.00    -0.001 C 
HETATM   11  C   UNK N   1      36.848  11.875  10.916  0.00  0.00     0.045 C 
HETATM   12  C   UNK N   1      36.482  10.713  11.849  0.00  0.00     0.124 C 
HETATM   13  C   UNK N   1      35.762  12.952  10.812  0.00  0.00     0.004 C 
HETATM   14  C   UNK N   1      35.431  13.503  12.231  0.00  0.00     0.004 C 
HETATM   15  C   UNK N   1      36.068  14.876  12.282  0.00  0.00     0.041 C 
HETATM   16  C   UNK N   1      36.184  14.209   9.940  0.00  0.00     0.160 C 
HETATM   17  C   UNK N   1      35.939  15.406  10.866  0.00  0.00     0.168 C 
HETATM   18  O   UNK N   1      34.645  15.805  10.553  0.00  0.00    -0.352 OA
HETATM   19  C   UNK N   1      34.691  15.644   9.160  0.00  0.00     0.266 C 
HETATM   20  O   UNK N   1      35.294  14.409   8.869  0.00  0.00    -0.339 OA
HETATM   21  O   UNK N   1      37.281   8.742  17.803  0.00  0.00    -0.289 OA
HETATM   22  C   UNK N   1      35.312   8.827  14.046  0.00  0.00     0.025 C 
HETATM   23  C   UNK N   1      34.519  12.260  10.227  0.00  0.00     0.019 C 
ENDROOT
BRANCH  16  24
HETATM   24  C   UNK N   1      37.616  14.229   9.378  0.00  0.00     0.188 C 
HETATM   25  O   UNK N   1      38.470  14.916   9.917  0.00  0.00    -0.292 OA
BRANCH  24  26
HETATM   26  C   UNK N   1      37.991  13.546   8.098  0.00  0.00     0.260 C 
BRANCH  26  27
HETATM   27  O   UNK N   1      39.347  13.550   7.888  0.00  0.00    -0.314 OA
BRANCH  27  28
HETATM   28  C   UNK N   1      40.106  12.445   7.630  0.00  0.00     0.262 C 
HETATM   29  O   UNK N   1      40.215  12.089   6.468  0.00  0.00    -0.265 OA
BRANCH  28  30
HETATM   30  C   UNK N   1      40.843  11.622   8.687  0.00  0.00     0.077 C 
HETATM   31  C   UNK N   1      42.326  11.562   8.379  0.00  0.00     0.020 C 
HETATM   32  C   UNK N   1      40.352  10.214   8.976  0.00  0.00     0.020 C 
ENDBRANCH  28  30
ENDBRANCH  27  28
ENDBRANCH  26  27
ENDBRANCH  24  26
ENDBRANCH  16  24
BRANCH  19  33
HETATM   33  C   UNK N   1      33.313  15.789   8.514  0.00  0.00     0.041 C 
HETATM   34  C   UNK N   1      33.319  15.268   7.070  0.00  0.00     0.009 C 
HETATM   35  C   UNK N   1      34.244  16.100   6.180  0.00  0.00     0.001 C 
HETATM   36  C   UNK N   1      33.810  17.562   6.192  0.00  0.00     0.000 C 
HETATM   37  C   UNK N   1      33.804  18.107   7.619  0.00  0.00     0.001 C 
HETATM   38  C   UNK N   1      32.887  17.264   8.513  0.00  0.00     0.009 C 
ENDBRANCH  19  33
BRANCH  12  39
HETATM   39  O   UNK N   1      35.879   9.662  11.157  0.00  0.00    -0.395 OA
HETATM   40  H   UNK N   1      35.046   9.316  10.800  0.00  0.00     0.210 HD
ENDBRANCH  12  39
TORSDOF 7
ENDMDL
MODEL 6
REMARK VINA RESULT:      -7.3      7.026     12.024
REMARK  7 active torsions:
REMARK  status: ('A' for Active; 'I' for Inactive)
REMARK    1  A    between atoms: C_25  and  C_2 
REMARK    2  A    between atoms: C_18  and  O_29 
REMARK    3  A    between atoms: C_22  and  C_31 
REMARK    4  A    between atoms: C_31  and  C_33 
REMARK    5  A    between atoms: C_33  and  O_34 
REMARK    6  A    between atoms: O_34  and  C_35 
REMARK    7  A    between atoms: C_35  and  C_37 
ROOT
HETATM    1  C   UNK N   1      34.723  12.055  16.362  0.00  0.00     0.052 C 
HETATM    2  C   UNK N   1      35.007  10.632  16.661  0.00  0.00     0.171 C 
HETATM    3  C   UNK N   1      35.171   9.711  15.513  0.00  0.00     0.058 C 
HETATM    4  C   UNK N   1      34.989  12.521  15.127  0.00  0.00    -0.009 C 
HETATM    5  C   UNK N   1      35.864  11.699  14.191  0.00  0.00     0.004 C 
HETATM    6  C   UNK N   1      35.484  10.231  14.313  0.00  0.00    -0.064 C 
HETATM    7  C   UNK N   1      35.336   9.409  13.074  0.00  0.00     0.036 C 
HETATM    8  C   UNK N   1      34.344  10.104  12.124  0.00  0.00     0.010 C 
HETATM    9  C   UNK N   1      35.807  12.155  12.704  0.00  0.00     0.035 C 
HETATM   10  C   UNK N   1      34.540  11.636  11.982  0.00  0.00    -0.001 C 
HETATM   11  C   UNK N   1      35.110  14.300  11.426  0.00  0.00     0.045 C 
HETATM   12  C   UNK N   1      35.869  13.697  12.616  0.00  0.00     0.124 C 
HETATM   13  C   UNK N   1      35.162  13.439  10.159  0.00  0.00     0.004 C 
HETATM   14  C   UNK N   1      34.608  12.016  10.468  0.00  0.00     0.004 C 
HETATM   15  C   UNK N   1      33.238  11.974   9.824  0.00  0.00     0.041 C 
HETATM   16  C   UNK N   1      34.284  14.001   8.963  0.00  0.00     0.160 C 
HETATM   17  C   UNK N   1      33.381  12.824   8.575  0.00  0.00     0.168 C 
HETATM   18  O   UNK N   1      34.089  12.185   7.564  0.00  0.00    -0.352 OA
HETATM   19  C   UNK N   1      34.568  13.312   6.879  0.00  0.00     0.266 C 
HETATM   20  O   UNK N   1      35.068  14.230   7.818  0.00  0.00    -0.339 OA
HETATM   21  O   UNK N   1      34.920  10.205  17.800  0.00  0.00    -0.289 OA
HETATM   22  C   UNK N   1      37.297  11.862  14.701  0.00  0.00     0.025 C 
HETATM   23  C   UNK N   1      36.644  13.338   9.762  0.00  0.00     0.019 C 
ENDROOT
BRANCH  16  24
HETATM   24  C   UNK N   1      33.454  15.269   9.232  0.00  0.00     0.188 C 
HETATM   25  O   UNK N   1      32.254  15.176   9.442  0.00  0.00    -0.292 OA
BRANCH  24  26
HETATM   26  C   UNK N   1      34.025  16.649   9.112  0.00  0.00     0.260 C 
BRANCH  26  27
HETATM   27  O   UNK N   1      33.313  17.427   8.234  0.00  0.00    -0.314 OA
BRANCH  27  28
HETATM   28  C   UNK N   1      33.446  17.401   6.875  0.00  0.00     0.262 C 
HETATM   29  O   UNK N   1      34.562  17.562   6.410  0.00  0.00    -0.265 OA
BRANCH  28  30
HETATM   30  C   UNK N   1      32.301  17.173   5.888  0.00  0.00     0.077 C 
HETATM   31  C   UNK N   1      31.832  15.732   5.937  0.00  0.00     0.020 C 
HETATM   32  C   UNK N   1      32.513  17.562   4.435  0.00  0.00     0.020 C 
ENDBRANCH  28  30
ENDBRANCH  27  28
ENDBRANCH  26  27
ENDBRANCH  24  26
ENDBRANCH  16  24
BRANCH  19  33
HETATM   33  C   UNK N   1      35.600  12.946   5.812  0.00  0.00     0.041 C 
HETATM   34  C   UNK N   1      36.047  14.186   5.024  0.00  0.00     0.009 C 
HETATM   35  C   UNK N   1      34.886  14.795   4.235  0.00  0.00     0.001 C 
HETATM   36  C   UNK N   1      34.305  13.762   3.275  0.00  0.00     0.000 C 
HETATM   37  C   UNK N   1      33.844  12.522   4.037  0.00  0.00     0.001 C 
HETATM   38  C   UNK N   1      35.005  11.920   4.838  0.00  0.00     0.009 C 
ENDBRANCH  19  33
BRANCH  12  39
HETATM   39  O   UNK N   1      37.186  14.155  12.678  0.00  0.00    -0.395 OA
HETATM   40  H   UNK N   1      37.759  14.913  12.877  0.00  0.00     0.210 HD
ENDBRANCH  12  39
TORSDOF 7
ENDMDL
MODEL 7
REMARK VINA RESULT:      -7.3      8.564     13.520
REMARK  7 active torsions:
REMARK  status: ('A' for Active; 'I' for Inactive)
REMARK    1  A    between atoms: C_25  and  C_2 
REMARK    2  A    between atoms: C_18  and  O_29 
REMARK    3  A    between atoms: C_22  and  C_31 
REMARK    4  A    between atoms: C_31  and  C_33 
REMARK    5  A    between atoms: C_33  and  O_34 
REMARK    6  A    between atoms: O_34  and  C_35 
REMARK    7  A    between atoms: C_35  and  C_37 
ROOT
HETATM    1  C   UNK N   1      37.682   9.439  15.697  0.00  0.00     0.052 C 
HETATM    2  C   UNK N   1      36.862   9.568  16.924  0.00  0.00     0.171 C 
HETATM    3  C   UNK N   1      35.811  10.612  16.939  0.00  0.00     0.058 C 
HETATM    4  C   UNK N   1      37.223   9.981  14.553  0.00  0.00    -0.009 C 
HETATM    5  C   UNK N   1      35.764  10.407  14.462  0.00  0.00     0.004 C 
HETATM    6  C   UNK N   1      35.357  11.082  15.764  0.00  0.00    -0.064 C 
HETATM    7  C   UNK N   1      34.560  12.344  15.714  0.00  0.00     0.036 C 
HETATM    8  C   UNK N   1      35.291  13.368  14.829  0.00  0.00     0.010 C 
HETATM    9  C   UNK N   1      35.445  11.328  13.249  0.00  0.00     0.035 C 
HETATM   10  C   UNK N   1      35.862  12.797  13.504  0.00  0.00    -0.001 C 
HETATM   11  C   UNK N   1      36.556  11.881  10.973  0.00  0.00     0.045 C 
HETATM   12  C   UNK N   1      36.145  10.796  11.977  0.00  0.00     0.124 C 
HETATM   13  C   UNK N   1      35.574  13.056  10.895  0.00  0.00     0.004 C 
HETATM   14  C   UNK N   1      35.399  13.688  12.308  0.00  0.00     0.004 C 
HETATM   15  C   UNK N   1      36.168  14.992  12.258  0.00  0.00     0.041 C 
HETATM   16  C   UNK N   1      36.054  14.233   9.944  0.00  0.00     0.160 C 
HETATM   17  C   UNK N   1      35.992  15.481  10.832  0.00  0.00     0.168 C 
HETATM   18  O   UNK N   1      34.723  15.995  10.589  0.00  0.00    -0.352 OA
HETATM   19  C   UNK N   1      34.656  15.781   9.204  0.00  0.00     0.266 C 
HETATM   20  O   UNK N   1      35.114  14.482   8.927  0.00  0.00    -0.339 OA
HETATM   21  O   UNK N   1      37.165   8.971  17.943  0.00  0.00    -0.289 OA
HETATM   22  C   UNK N   1      34.955   9.116  14.325  0.00  0.00     0.025 C 
HETATM   23  C   UNK N   1      34.233  12.471  10.424  0.00  0.00     0.019 C 
ENDROOT
BRANCH  16  24
HETATM   24  C   UNK N   1      37.438  14.090   9.288  0.00  0.00     0.188 C 
HETATM   25  O   UNK N   1      38.437  14.447   9.894  0.00  0.00    -0.292 OA
BRANCH  24  26
HETATM   26  C   UNK N   1      37.617  13.656   7.864  0.00  0.00     0.260 C 
BRANCH  26  27
HETATM   27  O   UNK N   1      37.475  12.299   7.717  0.00  0.00    -0.314 OA
BRANCH  27  28
HETATM   28  C   UNK N   1      36.336  11.668   7.306  0.00  0.00     0.262 C 
HETATM   29  O   UNK N   1      36.158  10.519   7.674  0.00  0.00    -0.265 OA
BRANCH  28  30
HETATM   30  C   UNK N   1      35.255  12.298   6.428  0.00  0.00     0.077 C 
HETATM   31  C   UNK N   1      33.897  11.699   6.738  0.00  0.00     0.020 C 
HETATM   32  C   UNK N   1      35.453  12.289   4.922  0.00  0.00     0.020 C 
ENDBRANCH  28  30
ENDBRANCH  27  28
ENDBRANCH  26  27
ENDBRANCH  24  26
ENDBRANCH  16  24
BRANCH  19  33
HETATM   33  C   UNK N   1      33.257  16.039   8.645  0.00  0.00     0.041 C 
HETATM   34  C   UNK N   1      33.068  15.356   7.283  0.00  0.00     0.009 C 
HETATM   35  C   UNK N   1      34.011  15.941   6.229  0.00  0.00     0.001 C 
HETATM   36  C   UNK N   1      33.771  17.441   6.086  0.00  0.00     0.000 C 
HETATM   37  C   UNK N   1      33.961  18.145   7.428  0.00  0.00     0.001 C 
HETATM   38  C   UNK N   1      33.026  17.548   8.486  0.00  0.00     0.009 C 
ENDBRANCH  19  33
BRANCH  12  39
HETATM   39  O   UNK N   1      35.397   9.786  11.372  0.00  0.00    -0.395 OA
HETATM   40  H   UNK N   1      35.335   9.182  10.614  0.00  0.00     0.210 HD
ENDBRANCH  12  39
TORSDOF 7
ENDMDL
MODEL 8
REMARK VINA RESULT:      -7.2     11.030     14.293
REMARK  7 active torsions:
REMARK  status: ('A' for Active; 'I' for Inactive)
REMARK    1  A    between atoms: C_25  and  C_2 
REMARK    2  A    between atoms: C_18  and  O_29 
REMARK    3  A    between atoms: C_22  and  C_31 
REMARK    4  A    between atoms: C_31  and  C_33 
REMARK    5  A    between atoms: C_33  and  O_34 
REMARK    6  A    between atoms: O_34  and  C_35 
REMARK    7  A    between atoms: C_35  and  C_37 
ROOT
HETATM    1  C   UNK N   1      33.922  19.219  -6.051  0.00  0.00     0.052 C 
HETATM    2  C   UNK N   1      35.342  19.641  -6.016  0.00  0.00     0.171 C 
HETATM    3  C   UNK N   1      35.624  21.079  -5.802  0.00  0.00     0.058 C 
HETATM    4  C   UNK N   1      32.991  20.042  -5.533  0.00  0.00    -0.009 C 
HETATM    5  C   UNK N   1      33.427  21.197  -4.643  0.00  0.00     0.004 C 
HETATM    6  C   UNK N   1      34.672  21.842  -5.235  0.00  0.00    -0.064 C 
HETATM    7  C   UNK N   1      34.763  23.332  -5.299  0.00  0.00     0.036 C 
HETATM    8  C   UNK N   1      33.523  23.883  -6.025  0.00  0.00     0.010 C 
HETATM    9  C   UNK N   1      32.322  22.266  -4.402  0.00  0.00     0.035 C 
HETATM   10  C   UNK N   1      32.177  23.237  -5.600  0.00  0.00    -0.001 C 
HETATM   11  C   UNK N   1      29.739  22.366  -4.588  0.00  0.00     0.045 C 
HETATM   12  C   UNK N   1      30.968  21.578  -4.115  0.00  0.00     0.124 C 
HETATM   13  C   UNK N   1      29.890  23.887  -4.457  0.00  0.00     0.004 C 
HETATM   14  C   UNK N   1      31.150  24.358  -5.243  0.00  0.00     0.004 C 
HETATM   15  C   UNK N   1      30.611  25.033  -6.487  0.00  0.00     0.041 C 
HETATM   16  C   UNK N   1      28.669  24.708  -5.051  0.00  0.00     0.160 C 
HETATM   17  C   UNK N   1      29.319  25.687  -6.035  0.00  0.00     0.168 C 
HETATM   18  O   UNK N   1      29.530  26.830  -5.271  0.00  0.00    -0.352 OA
HETATM   19  C   UNK N   1      28.333  26.835  -4.540  0.00  0.00     0.266 C 
HETATM   20  O   UNK N   1      28.085  25.533  -4.072  0.00  0.00    -0.339 OA
HETATM   21  O   UNK N   1      36.230  18.870  -6.338  0.00  0.00    -0.289 OA
HETATM   22  C   UNK N   1      33.810  20.575  -3.300  0.00  0.00     0.025 C 
HETATM   23  C   UNK N   1      30.081  24.177  -2.959  0.00  0.00     0.019 C 
ENDROOT
BRANCH  16  24
HETATM   24  C   UNK N   1      27.544  23.908  -5.730  0.00  0.00     0.188 C 
HETATM   25  O   UNK N   1      26.567  23.563  -5.081  0.00  0.00    -0.292 OA
BRANCH  24  26
HETATM   26  C   UNK N   1      27.649  23.400  -7.136  0.00  0.00     0.260 C 
BRANCH  26  27
HETATM   27  O   UNK N   1      27.352  22.063  -7.225  0.00  0.00    -0.314 OA
BRANCH  27  28
HETATM   28  C   UNK N   1      28.031  21.157  -7.988  0.00  0.00     0.262 C 
HETATM   29  O   UNK N   1      27.638  20.963  -9.126  0.00  0.00    -0.265 OA
BRANCH  28  30
HETATM   30  C   UNK N   1      29.260  20.373  -7.528  0.00  0.00     0.077 C 
HETATM   31  C   UNK N   1      30.530  21.008  -8.060  0.00  0.00     0.020 C 
HETATM   32  C   UNK N   1      29.312  18.881  -7.812  0.00  0.00     0.020 C 
ENDBRANCH  28  30
ENDBRANCH  27  28
ENDBRANCH  26  27
ENDBRANCH  24  26
ENDBRANCH  16  24
BRANCH  19  33
HETATM   33  C   UNK N   1      28.346  27.868  -3.414  0.00  0.00     0.041 C 
HETATM   34  C   UNK N   1      26.931  28.116  -2.871  0.00  0.00     0.009 C 
HETATM   35  C   UNK N   1      26.022  28.730  -3.937  0.00  0.00     0.001 C 
HETATM   36  C   UNK N   1      26.614  30.044  -4.437  0.00  0.00     0.000 C 
HETATM   37  C   UNK N   1      28.020  29.823  -4.991  0.00  0.00     0.001 C 
HETATM   38  C   UNK N   1      28.925  29.194  -3.926  0.00  0.00     0.009 C 
ENDBRANCH  19  33
BRANCH  12  39
HETATM   39  O   UNK N   1      30.862  21.207  -2.775  0.00  0.00    -0.395 OA
HETATM   40  H   UNK N   1      30.254  20.957  -2.061  0.00  0.00     0.210 HD
ENDBRANCH  12  39
TORSDOF 7
ENDMDL
MODEL 9
REMARK VINA RESULT:      -7.2      2.230      8.390
REMARK  7 active torsions:
REMARK  status: ('A' for Active; 'I' for Inactive)
REMARK    1  A    between atoms: C_25  and  C_2 
REMARK    2  A    between atoms: C_18  and  O_29 
REMARK    3  A    between atoms: C_22  and  C_31 
REMARK    4  A    between atoms: C_31  and  C_33 
REMARK    5  A    between atoms: C_33  and  O_34 
REMARK    6  A    between atoms: O_34  and  C_35 
REMARK    7  A    between atoms: C_35  and  C_37 
ROOT
HETATM    1  C   UNK N   1      33.080  16.913   5.318  0.00  0.00     0.052 C 
HETATM    2  C   UNK N   1      33.440  17.526   6.618  0.00  0.00     0.171 C 
HETATM    3  C   UNK N   1      32.341  17.813   7.568  0.00  0.00     0.058 C 
HETATM    4  C   UNK N   1      31.880  16.313   5.198  0.00  0.00    -0.009 C 
HETATM    5  C   UNK N   1      31.081  15.984   6.451  0.00  0.00     0.004 C 
HETATM    6  C   UNK N   1      31.181  17.147   7.428  0.00  0.00    -0.064 C 
HETATM    7  C   UNK N   1      29.949  17.622   8.127  0.00  0.00     0.036 C 
HETATM    8  C   UNK N   1      28.867  17.942   7.081  0.00  0.00     0.010 C 
HETATM    9  C   UNK N   1      29.590  15.629   6.179  0.00  0.00     0.035 C 
HETATM   10  C   UNK N   1      28.721  16.890   5.950  0.00  0.00    -0.001 C 
HETATM   11  C   UNK N   1      28.192  14.845   4.142  0.00  0.00     0.045 C 
HETATM   12  C   UNK N   1      29.481  14.685   4.959  0.00  0.00     0.124 C 
HETATM   13  C   UNK N   1      26.958  15.178   4.989  0.00  0.00     0.004 C 
HETATM   14  C   UNK N   1      27.222  16.474   5.813  0.00  0.00     0.004 C 
HETATM   15  C   UNK N   1      26.408  17.552   5.127  0.00  0.00     0.041 C 
HETATM   16  C   UNK N   1      25.649  15.457   4.138  0.00  0.00     0.160 C 
HETATM   17  C   UNK N   1      25.171  16.830   4.624  0.00  0.00     0.168 C 
HETATM   18  O   UNK N   1      24.272  16.526   5.639  0.00  0.00    -0.352 OA
HETATM   19  C   UNK N   1      23.633  15.425   5.050  0.00  0.00     0.266 C 
HETATM   20  O   UNK N   1      24.610  14.580   4.497  0.00  0.00    -0.339 OA
HETATM   21  O   UNK N   1      34.566  17.949   6.817  0.00  0.00    -0.289 OA
HETATM   22  C   UNK N   1      31.767  14.773   7.084  0.00  0.00     0.025 C 
HETATM   23  C   UNK N   1      26.757  13.993   5.948  0.00  0.00     0.019 C 
ENDROOT
BRANCH  16  24
HETATM   24  C   UNK N   1      25.785  15.431   2.605  0.00  0.00     0.188 C 
HETATM   25  O   UNK N   1      26.198  16.418   2.015  0.00  0.00    -0.292 OA
BRANCH  24  26
HETATM   26  C   UNK N   1      25.298  14.285   1.771  0.00  0.00     0.260 C 
BRANCH  26  27
HETATM   27  O   UNK N   1      24.335  14.672   0.874  0.00  0.00    -0.314 OA
BRANCH  27  28
HETATM   28  C   UNK N   1      23.072  14.159   0.807  0.00  0.00     0.262 C 
HETATM   29  O   UNK N   1      22.136  14.930   0.943  0.00  0.00    -0.265 OA
BRANCH  28  30
HETATM   30  C   UNK N   1      22.737  12.688   0.561  0.00  0.00     0.077 C 
HETATM   31  C   UNK N   1      22.657  11.931   1.872  0.00  0.00     0.020 C 
HETATM   32  C   UNK N   1      23.612  11.900  -0.399  0.00  0.00     0.020 C 
ENDBRANCH  28  30
ENDBRANCH  27  28
ENDBRANCH  26  27
ENDBRANCH  24  26
ENDBRANCH  16  24
BRANCH  19  33
HETATM   33  C   UNK N   1      22.714  14.695   6.029  0.00  0.00     0.041 C 
HETATM   34  C   UNK N   1      21.676  13.842   5.287  0.00  0.00     0.009 C 
HETATM   35  C   UNK N   1      20.729  14.711   4.457  0.00  0.00     0.001 C 
HETATM   36  C   UNK N   1      20.015  15.716   5.356  0.00  0.00     0.000 C 
HETATM   37  C   UNK N   1      21.028  16.583   6.100  0.00  0.00     0.001 C 
HETATM   38  C   UNK N   1      21.985  15.710   6.920  0.00  0.00     0.009 C 
ENDBRANCH  19  33
BRANCH  12  39
HETATM   39  O   UNK N   1      29.702  13.357   5.325  0.00  0.00    -0.395 OA
HETATM   40  H   UNK N   1      29.880  12.460   5.002  0.00  0.00     0.210 HD
ENDBRANCH  12  39
TORSDOF 7
ENDMDL
