REMARK  13 active torsions:
REMARK  status: ('A' for Active; 'I' for Inactive)
REMARK    1  A    between atoms: C_35  and  C_3 
REMARK    2  A    between atoms: C_27  and  C_20 
REMARK    3  A    between atoms: O_53  and  C_20 
REMARK    4  A    between atoms: C_37  and  C_22 
REMARK    5  A    between atoms: N_48  and  C_22 
REMARK    6  A    between atoms: C_35  and  C_26 
REMARK    7  A    between atoms: C_26  and  O_51 
REMARK    8  A    between atoms: N_46  and  C_29 
REMARK    9  A    between atoms: N_47  and  C_30 
REMARK   10  A    between atoms: N_49  and  C_31 
REMARK   11  A    between atoms: O_53  and  C_32 
REMARK   12  A    between atoms: C_37  and  C_33 
REMARK   13  A    between atoms: C_35  and  N_50 
ROOT
HETATM    1  C   UNK N   1       4.818   1.363   0.869  0.00  0.00     0.032 A 
HETATM    2  C   UNK N   1       5.563   0.985  -1.402  0.00  0.00     0.032 A 
HETATM    3  C   UNK N   1       3.856   0.415   0.735  0.00  0.00     0.039 A 
HETATM    4  C   UNK N   1       4.613  -0.002  -1.538  0.00  0.00     0.039 A 
HETATM    5  C   UNK N   1       5.707   1.633  -0.183  0.00  0.00     0.030 A 
HETATM    6  C   UNK N   1       3.760  -0.289  -0.462  0.00  0.00     0.068 A 
ENDROOT
BRANCH   5   7
HETATM    7  N   UNK N   1       6.089   2.934  -0.271  0.00  0.00    -0.378 N 
HETATM    8  C   UNK N   1       4.914   3.778  -0.350  0.00  0.00     0.143 C 
HETATM    9  C   UNK N   1       4.648   4.291   1.064  0.00  0.00     0.143 C 
HETATM   10  N   UNK N   1       5.859   5.004   1.315  0.00  0.00    -0.378 N 
HETATM   11  C   UNK N   1       6.992   4.175   1.645  0.00  0.00     0.143 C 
HETATM   12  C   UNK N   1       7.321   3.372   0.379  0.00  0.00     0.143 C 
BRANCH  10  13
HETATM   13  C   UNK N   1       6.080   6.069   0.410  0.00  0.00     0.029 C 
HETATM   14  C   UNK N   1       7.379   6.411   0.015  0.00  0.00     0.027 C 
HETATM   15  C   UNK N   1       7.554   7.440  -0.880  0.00  0.00     0.005 C 
HETATM   16  C   UNK N   1       6.427   8.134  -1.280  0.00  0.00     0.141 C 
HETATM   17  C   UNK N   1       5.195   7.494  -1.286  0.00  0.00     0.005 C 
HETATM   18  C   UNK N   1       4.992   6.544  -0.345  0.00  0.00     0.027 C 
BRANCH  16  19
HETATM   19  N   UNK N   1       6.352   9.392  -0.646  0.00  0.00    -0.281 N 
HETATM   20  C   UNK N   1       7.205  10.414  -0.742  0.00  0.00     0.205 C 
HETATM   21  N   UNK N   1       6.643  11.509  -0.189  0.00  0.00    -0.289 N 
HETATM   22  N   UNK N   1       5.455  11.158   0.278  0.00  0.00    -0.234 N 
ATOM     23  HN  UNK N   1       7.058  12.440  -0.139  1.00  0.00     0.188 HD
HETATM   24  C   UNK N   1       5.319   9.849   0.109  0.00  0.00     0.345 C 
HETATM   25  O   UNK N   1       4.370   9.195   0.490  0.00  0.00    -0.245 OA
BRANCH  22  26
HETATM   26  C   UNK N   1       4.318  12.067   0.481  0.00  0.00     0.141 C 
BRANCH  26  27
HETATM   27  C   UNK N   1       3.198  11.725  -0.550  0.00  0.00     0.025 C 
HETATM   28  C   UNK N   1       2.271  10.557  -0.234  0.00  0.00     0.007 C 
ENDBRANCH  26  27
BRANCH  26  29
HETATM   29  C   UNK N   1       4.784  13.469   0.071  0.00  0.00     0.139 C 
HETATM   30  C   UNK N   1       5.840  14.003   1.020  0.00  0.00     0.041 C 
BRANCH  29  31
HETATM   31  O   UNK N   1       3.710  14.355   0.029  0.00  0.00    -0.394 OA
HETATM   32  H   UNK N   1       3.871  15.311   0.000  0.00  0.00     0.210 HD
ENDBRANCH  29  31
ENDBRANCH  26  29
ENDBRANCH  22  26
ENDBRANCH  16  19
ENDBRANCH  10  13
ENDBRANCH   5   7
BRANCH   6  33
HETATM   33  O   UNK N   1       3.267  -1.519  -0.379  0.00  0.00    -0.351 OA
BRANCH  33  34
HETATM   34  C   UNK N   1       3.933  -2.330   0.538  0.00  0.00     0.182 C 
BRANCH  34  35
HETATM   35  C   UNK N   1       5.481  -2.206   0.306  0.00  0.00     0.037 C 
HETATM   36  C   UNK N   1       6.420  -2.998   1.148  0.00  0.00     0.054 C 
HETATM   37  C   UNK N   1       7.314  -3.650   0.099  0.00  0.00     0.109 C 
HETATM   38  O   UNK N   1       7.086  -3.062  -1.158  0.00  0.00    -0.373 OA
HETATM   39  C   UNK N   1       5.774  -2.624  -1.116  0.00  0.00     0.176 C 
BRANCH  37  40
HETATM   40  C   UNK N   1       8.825  -3.461   0.428  0.00  0.00     0.193 C 
BRANCH  40  41
HETATM   41  N   UNK N   1       9.427  -2.130   0.218  0.00  0.00    -0.284 N 
HETATM   42  C   UNK N   1       8.834  -0.938   0.015  0.00  0.00     0.201 A 
HETATM   43  N   UNK N   1       9.773   0.025  -0.126  0.00  0.00    -0.346 N 
HETATM   44  C   UNK N   1      10.948  -0.630  -0.005  0.00  0.00     0.198 A 
ATOM     45  HN  UNK N   1       9.626   1.021  -0.288  1.00  0.00     0.167 HD
HETATM   46  N   UNK N   1      10.735  -1.942   0.206  0.00  0.00    -0.293 N 
ATOM     47  HN  UNK N   1      11.450  -2.659   0.333  1.00  0.00     0.188 HD
ENDBRANCH  40  41
ENDBRANCH  37  40
BRANCH  37  48
HETATM   48  C   UNK N   1       6.914  -5.132   0.059  0.00  0.00     0.017 A 
HETATM   49  C   UNK N   1       7.916  -6.111   0.080  0.00  0.00     0.016 A 
HETATM   50  C   UNK N   1       7.587  -7.467   0.066  0.00  0.00     0.043 A 
HETATM   51  C   UNK N   1       6.251  -7.865   0.047  0.00  0.00     0.119 A 
HETATM   52  C   UNK N   1       5.244  -6.920   0.030  0.00  0.00     0.085 A 
HETATM   53  F   UNK N   1       5.924  -9.175   0.052  0.00  0.00    -0.206 F 
HETATM   54  C   UNK N   1       5.551  -5.572   0.026  0.00  0.00     0.128 A 
HETATM   55  F   UNK N   1       4.501  -4.741   0.030  0.00  0.00    -0.205 F 
ENDBRANCH  37  48
ENDBRANCH  34  35
ENDBRANCH  33  34
ENDBRANCH   6  33
TORSDOF 13
