REMARK  10 active torsions:
REMARK  status: ('A' for Active; 'I' for Inactive)
REMARK    1  A    between atoms: C_3  and  C_23 
REMARK    2  A    between atoms: C_4  and  C_14 
REMARK    3  A    between atoms: C_7  and  N_9 
REMARK       I    between atoms: N_9  and  C_10 
REMARK    4  A    between atoms: C_10  and  C_13 
REMARK    5  A    between atoms: C_13  and  C_15 
REMARK    6  A    between atoms: C_14  and  S_26 
REMARK    7  A    between atoms: C_18  and  N_28 
REMARK    8  A    between atoms: N_21  and  O_38 
REMARK    9  A    between atoms: C_23  and  O_24 
REMARK   10  A    between atoms: S_26  and  C_27 
ROOT
HETATM    1  C   UNK N   1      14.110  -9.927   0.924  0.00  0.00     0.187 A 
HETATM    2  N   UNK N   1      14.329 -11.330   0.802  0.00  0.00    -0.293 N 
HETATM    3  C   UNK N   1      15.578 -12.024   0.828  0.00  0.00     0.116 C 
HETATM    4  C   UNK N   1      16.699 -11.249   0.915  0.00  0.00    -0.027 C 
HETATM    5  C   UNK N   1      16.590  -9.741   1.009  0.00  0.00     0.113 C 
HETATM    6  S   UNK N   1      15.311  -9.070  -0.125  0.00  0.00    -0.136 SA
HETATM    7  C   UNK N   1      12.600 -10.206   0.414  0.00  0.00     0.211 A 
HETATM    8  C   UNK N   1      13.105 -11.599   0.466  0.00  0.00     0.251 A 
HETATM    9  O   UNK N   1      12.621 -12.658   0.101  0.00  0.00    -0.271 OA
ENDROOT
BRANCH   7  10
HETATM   10  N   UNK N   1      12.383  -9.949  -0.989  0.00  0.00    -0.340 N 
HETATM   11  C   UNK N   1      11.165  -9.557  -1.420  0.00  0.00     0.273 C 
HETATM   12  O   UNK N   1      10.882  -9.652  -2.603  0.00  0.00    -0.266 OA
HETATM   13  H   UNK N   1      13.122 -10.060  -1.631  0.00  0.00     0.163 HD
BRANCH  11  14
HETATM   14  C   UNK N   1      10.152  -9.075  -0.449  0.00  0.00     0.149 C 
HETATM   15  N   UNK N   1      10.368  -8.031   0.293  0.00  0.00    -0.260 N 
ATOM     16  HN  UNK N   1       9.681  -7.814   1.015  1.00  0.00     0.194 HD
BRANCH  14  17
HETATM   17  C   UNK N   1       9.002  -9.941  -0.129  0.00  0.00     0.075 A 
HETATM   18  C   UNK N   1       8.003  -9.563   0.796  0.00  0.00     0.085 A 
HETATM   19  S   UNK N   1       7.045 -10.906   0.960  0.00  0.00    -0.064 SA
HETATM   20  C   UNK N   1       7.863 -11.893  -0.068  0.00  0.00     0.142 A 
HETATM   21  N   UNK N   1       8.919 -11.237  -0.598  0.00  0.00    -0.335 N 
ATOM     22  HN  UNK N   1       9.575 -11.649  -1.262  1.00  0.00     0.168 HD
BRANCH  20  23
HETATM   23  N   UNK N   1       7.571 -13.249  -0.313  0.00  0.00    -0.380 N 
HETATM   24  H   UNK N   1       6.648 -13.546  -0.485  0.00  0.00     0.158 HD
HETATM   25  H   UNK N   1       8.301 -13.909  -0.313  0.00  0.00     0.158 HD
ENDBRANCH  20  23
ENDBRANCH  14  17
BRANCH  15  26
HETATM   26  O   UNK N   1      11.418  -7.223   0.182  0.00  0.00    -0.285 OA
HETATM   27  C   UNK N   1      11.967  -6.841  -1.024  0.00  0.00     0.237 C 
ENDBRANCH  15  26
ENDBRANCH  11  14
ENDBRANCH   7  10
BRANCH   3  28
HETATM   28  C   UNK N   1      15.643 -13.518   0.644  0.00  0.00     0.194 C 
HETATM   29  O   UNK N   1      14.628 -14.162   0.448  0.00  0.00    -0.645 OA
BRANCH  28  30
HETATM   30  O   UNK N   1      16.818 -14.175   0.678  0.00  0.00    -0.772 OA
HETATM   31  H   UNK N   1      16.831 -15.112   0.701  0.00  0.00     0.167 HD
ENDBRANCH  28  30
ENDBRANCH   3  28
BRANCH   4  32
HETATM   32  C   UNK N   1      18.070 -11.802   0.832  0.00  0.00     0.120 C 
BRANCH  32  33
HETATM   33  S   UNK N   1      18.590 -11.750  -0.903  0.00  0.00    -0.088 SA
BRANCH  33  34
HETATM   34  C   UNK N   1      20.031 -12.705  -0.474  0.00  0.00     0.164 A 
HETATM   35  N   UNK N   1      19.892 -14.037  -0.252  0.00  0.00    -0.298 N 
HETATM   36  C   UNK N   1      20.964 -14.794   0.118  0.00  0.00     0.317 A 
ATOM     37  HN  UNK N   1      18.978 -14.476  -0.365  1.00  0.00     0.171 HD
HETATM   38  C   UNK N   1      22.208 -14.182   0.264  0.00  0.00     0.328 A 
HETATM   39  O   UNK N   1      20.825 -15.988   0.321  0.00  0.00    -0.262 OA
HETATM   40  N   UNK N   1      22.314 -12.837   0.031  0.00  0.00    -0.258 N 
HETATM   41  O   UNK N   1      23.189 -14.823   0.596  0.00  0.00    -0.261 OA
HETATM   42  N   UNK N   1      21.254 -12.113  -0.326  0.00  0.00    -0.272 N 
HETATM   43  H   UNK N   1      23.189 -12.397   0.130  0.00  0.00     0.190 HD
HETATM   44  C   UNK N   1      21.423 -10.684  -0.544  0.00  0.00     0.180 C 
ENDBRANCH  33  34
ENDBRANCH  32  33
ENDBRANCH   4  32
TORSDOF 10
