MODEL 1
REMARK VINA RESULT:      -5.7      0.000      0.000
REMARK  11 active torsions:
REMARK  status: ('A' for Active; 'I' for Inactive)
REMARK    1  A    between atoms: C_1  and  O_3 
REMARK    2  A    between atoms: C_2  and  C_1 
REMARK    3  A    between atoms: C_6  and  C_1 
REMARK    4  A    between atoms: C_2  and  O_4 
REMARK    5  A    between atoms: C_5  and  C_2 
REMARK    6  A    between atoms: N_15  and  O_3 
REMARK    7  A    between atoms: N_12  and  O_4 
REMARK    8  A    between atoms: O_8  and  C_5 
REMARK    9  A    between atoms: O_7  and  C_6 
REMARK   10  A    between atoms: N_18  and  O_7 
REMARK   11  A    between atoms: N_9  and  O_8 
ROOT
HETATM    1  C   UNK N   1      20.305  18.414   4.008  0.00  0.00     0.219 C 
ENDROOT
BRANCH   1   2
HETATM    2  O   UNK N   1      21.437  18.627   4.776  0.00  0.00    -0.211 OA
BRANCH   2   3
HETATM    3  N   UNK N   1      21.558  18.204   6.024  0.00  0.00     0.005 N 
HETATM    4  O   UNK N   1      20.941  18.820   7.010  0.00  0.00    -0.511 OA
HETATM    5  O   UNK N   1      22.167  17.203   6.247  0.00  0.00    -0.511 OA
ENDBRANCH   2   3
ENDBRANCH   1   2
BRANCH   1   6
HETATM    6  C   UNK N   1      20.511  17.162   3.150  0.00  0.00     0.219 C 
BRANCH   6   7
HETATM    7  O   UNK N   1      19.917  17.361   1.917  0.00  0.00    -0.211 OA
BRANCH   7   8
HETATM    8  N   UNK N   1      20.407  16.877   0.787  0.00  0.00     0.005 N 
HETATM    9  O   UNK N   1      20.996  15.699   0.755  0.00  0.00    -0.511 OA
HETATM   10  O   UNK N   1      20.389  17.551  -0.197  0.00  0.00    -0.511 OA
ENDBRANCH   7   8
ENDBRANCH   6   7
BRANCH   6  11
HETATM   11  C   UNK N   1      19.880  15.957   3.852  0.00  0.00     0.245 C 
BRANCH  11  12
HETATM   12  O   UNK N   1      18.767  16.330   4.576  0.00  0.00    -0.219 OA
BRANCH  12  13
HETATM   13  N   UNK N   1      18.513  15.850   5.782  0.00  0.00     0.005 N 
HETATM   14  O   UNK N   1      17.353  16.102   6.350  0.00  0.00    -0.511 OA
HETATM   15  O   UNK N   1      19.339  15.227   6.380  0.00  0.00    -0.511 OA
ENDBRANCH  12  13
ENDBRANCH  11  12
ENDBRANCH   6  11
ENDBRANCH   1   6
BRANCH   1  16
HETATM   16  C   UNK N   1      20.055  19.616   3.093  0.00  0.00     0.245 C 
BRANCH  16  17
HETATM   17  O   UNK N   1      20.983  20.612   3.314  0.00  0.00    -0.219 OA
BRANCH  17  18
HETATM   18  N   UNK N   1      21.945  20.888   2.449  0.00  0.00     0.005 N 
HETATM   19  O   UNK N   1      23.109  21.315   2.887  0.00  0.00    -0.511 OA
HETATM   20  O   UNK N   1      21.783  20.715   1.277  0.00  0.00    -0.511 OA
ENDBRANCH  17  18
ENDBRANCH  16  17
ENDBRANCH   1  16
TORSDOF 11
ENDMDL
MODEL 2
REMARK VINA RESULT:      -5.7     11.083     12.903
REMARK  11 active torsions:
REMARK  status: ('A' for Active; 'I' for Inactive)
REMARK    1  A    between atoms: C_1  and  O_3 
REMARK    2  A    between atoms: C_2  and  C_1 
REMARK    3  A    between atoms: C_6  and  C_1 
REMARK    4  A    between atoms: C_2  and  O_4 
REMARK    5  A    between atoms: C_5  and  C_2 
REMARK    6  A    between atoms: N_15  and  O_3 
REMARK    7  A    between atoms: N_12  and  O_4 
REMARK    8  A    between atoms: O_8  and  C_5 
REMARK    9  A    between atoms: O_7  and  C_6 
REMARK   10  A    between atoms: N_18  and  O_7 
REMARK   11  A    between atoms: N_9  and  O_8 
ROOT
HETATM    1  C   UNK N   1      32.682  16.672   8.137  0.00  0.00     0.219 C 
ENDROOT
BRANCH   1   2
HETATM    2  O   UNK N   1      33.312  17.838   8.536  0.00  0.00    -0.211 OA
BRANCH   2   3
HETATM    3  N   UNK N   1      34.336  18.369   7.888  0.00  0.00     0.005 N 
HETATM    4  O   UNK N   1      35.212  19.128   8.513  0.00  0.00    -0.511 OA
HETATM    5  O   UNK N   1      34.515  18.088   6.743  0.00  0.00    -0.511 OA
ENDBRANCH   2   3
ENDBRANCH   1   2
BRANCH   1   6
HETATM    6  C   UNK N   1      31.188  16.952   7.942  0.00  0.00     0.219 C 
BRANCH   6   7
HETATM    7  O   UNK N   1      30.952  17.216   6.605  0.00  0.00    -0.211 OA
BRANCH   7   8
HETATM    8  N   UNK N   1      29.747  17.180   6.060  0.00  0.00     0.005 N 
HETATM    9  O   UNK N   1      28.909  16.201   6.333  0.00  0.00    -0.511 OA
HETATM   10  O   UNK N   1      29.447  18.000   5.247  0.00  0.00    -0.511 OA
ENDBRANCH   7   8
ENDBRANCH   6   7
BRANCH   6  11
HETATM   11  C   UNK N   1      30.783  18.156   8.797  0.00  0.00     0.245 C 
BRANCH  11  12
HETATM   12  O   UNK N   1      29.733  17.842   9.633  0.00  0.00    -0.219 OA
BRANCH  12  13
HETATM   13  N   UNK N   1      28.470  17.962   9.259  0.00  0.00     0.005 N 
HETATM   14  O   UNK N   1      27.599  17.042   9.613  0.00  0.00    -0.511 OA
HETATM   15  O   UNK N   1      28.118  18.871   8.568  0.00  0.00    -0.511 OA
ENDBRANCH  12  13
ENDBRANCH  11  12
ENDBRANCH   6  11
ENDBRANCH   1   6
BRANCH   1  16
HETATM   16  C   UNK N   1      32.856  15.588   9.204  0.00  0.00     0.245 C 
BRANCH  16  17
HETATM   17  O   UNK N   1      34.179  15.454   9.567  0.00  0.00    -0.219 OA
BRANCH  17  18
HETATM   18  N   UNK N   1      34.604  15.694  10.797  0.00  0.00     0.005 N 
HETATM   19  O   UNK N   1      35.206  16.831  11.065  0.00  0.00    -0.511 OA
HETATM   20  O   UNK N   1      34.409  14.908  11.677  0.00  0.00    -0.511 OA
ENDBRANCH  17  18
ENDBRANCH  16  17
ENDBRANCH   1  16
TORSDOF 11
ENDMDL
MODEL 3
REMARK VINA RESULT:      -5.6      1.303      3.774
REMARK  11 active torsions:
REMARK  status: ('A' for Active; 'I' for Inactive)
REMARK    1  A    between atoms: C_1  and  O_3 
REMARK    2  A    between atoms: C_2  and  C_1 
REMARK    3  A    between atoms: C_6  and  C_1 
REMARK    4  A    between atoms: C_2  and  O_4 
REMARK    5  A    between atoms: C_5  and  C_2 
REMARK    6  A    between atoms: N_15  and  O_3 
REMARK    7  A    between atoms: N_12  and  O_4 
REMARK    8  A    between atoms: O_8  and  C_5 
REMARK    9  A    between atoms: O_7  and  C_6 
REMARK   10  A    between atoms: N_18  and  O_7 
REMARK   11  A    between atoms: N_9  and  O_8 
ROOT
HETATM    1  C   UNK N   1      20.753  17.636   2.878  0.00  0.00     0.219 C 
ENDROOT
BRANCH   1   2
HETATM    2  O   UNK N   1      19.927  17.078   1.918  0.00  0.00    -0.211 OA
BRANCH   2   3
HETATM    3  N   UNK N   1      20.364  16.654   0.742  0.00  0.00     0.005 N 
HETATM    4  O   UNK N   1      20.363  17.450  -0.307  0.00  0.00    -0.511 OA
HETATM    5  O   UNK N   1      20.841  15.565   0.652  0.00  0.00    -0.511 OA
ENDBRANCH   2   3
ENDBRANCH   1   2
BRANCH   1   6
HETATM    6  C   UNK N   1      20.745  16.744   4.124  0.00  0.00     0.219 C 
BRANCH   6   7
HETATM    7  O   UNK N   1      19.452  16.316   4.361  0.00  0.00    -0.211 OA
BRANCH   7   8
HETATM    8  N   UNK N   1      19.112  15.040   4.443  0.00  0.00     0.005 N 
HETATM    9  O   UNK N   1      18.960  14.309   3.358  0.00  0.00    -0.511 OA
HETATM   10  O   UNK N   1      18.858  14.568   5.509  0.00  0.00    -0.511 OA
ENDBRANCH   7   8
ENDBRANCH   6   7
BRANCH   6  11
HETATM   11  C   UNK N   1      21.266  17.542   5.322  0.00  0.00     0.245 C 
BRANCH  11  12
HETATM   12  O   UNK N   1      20.939  16.925   6.511  0.00  0.00    -0.219 OA
BRANCH  12  13
HETATM   13  N   UNK N   1      20.646  17.607   7.606  0.00  0.00     0.005 N 
HETATM   14  O   UNK N   1      20.712  18.921   7.588  0.00  0.00    -0.511 OA
HETATM   15  O   UNK N   1      20.365  17.045   8.622  0.00  0.00    -0.511 OA
ENDBRANCH  12  13
ENDBRANCH  11  12
ENDBRANCH   6  11
ENDBRANCH   1   6
BRANCH   1  16
HETATM   16  C   UNK N   1      20.252  19.032   3.257  0.00  0.00     0.245 C 
BRANCH  16  17
HETATM   17  O   UNK N   1      20.139  19.840   2.145  0.00  0.00    -0.219 OA
BRANCH  17  18
HETATM   18  N   UNK N   1      21.144  20.577   1.700  0.00  0.00     0.005 N 
HETATM   19  O   UNK N   1      21.917  21.205   2.558  0.00  0.00    -0.511 OA
HETATM   20  O   UNK N   1      21.382  20.646   0.531  0.00  0.00    -0.511 OA
ENDBRANCH  17  18
ENDBRANCH  16  17
ENDBRANCH   1  16
TORSDOF 11
ENDMDL
MODEL 4
REMARK VINA RESULT:      -5.4     10.885     13.030
REMARK  11 active torsions:
REMARK  status: ('A' for Active; 'I' for Inactive)
REMARK    1  A    between atoms: C_1  and  O_3 
REMARK    2  A    between atoms: C_2  and  C_1 
REMARK    3  A    between atoms: C_6  and  C_1 
REMARK    4  A    between atoms: C_2  and  O_4 
REMARK    5  A    between atoms: C_5  and  C_2 
REMARK    6  A    between atoms: N_15  and  O_3 
REMARK    7  A    between atoms: N_12  and  O_4 
REMARK    8  A    between atoms: O_8  and  C_5 
REMARK    9  A    between atoms: O_7  and  C_6 
REMARK   10  A    between atoms: N_18  and  O_7 
REMARK   11  A    between atoms: N_9  and  O_8 
ROOT
HETATM    1  C   UNK N   1      32.403  16.955   8.072  0.00  0.00     0.219 C 
ENDROOT
BRANCH   1   2
HETATM    2  O   UNK N   1      33.146  18.059   8.452  0.00  0.00    -0.211 OA
BRANCH   2   3
HETATM    3  N   UNK N   1      34.275  18.414   7.858  0.00  0.00     0.005 N 
HETATM    4  O   UNK N   1      35.186  19.113   8.502  0.00  0.00    -0.511 OA
HETATM    5  O   UNK N   1      34.505  18.023   6.756  0.00  0.00    -0.511 OA
ENDBRANCH   2   3
ENDBRANCH   1   2
BRANCH   1   6
HETATM    6  C   UNK N   1      30.927  17.355   7.976  0.00  0.00     0.219 C 
BRANCH   6   7
HETATM    7  O   UNK N   1      30.285  16.986   9.144  0.00  0.00    -0.211 OA
BRANCH   7   8
HETATM    8  N   UNK N   1      29.357  17.726   9.728  0.00  0.00     0.005 N 
HETATM    9  O   UNK N   1      28.095  17.348   9.737  0.00  0.00    -0.511 OA
HETATM   10  O   UNK N   1      29.655  18.790  10.180  0.00  0.00    -0.511 OA
ENDBRANCH   7   8
ENDBRANCH   6   7
BRANCH   6  11
HETATM   11  C   UNK N   1      30.288  16.650   6.776  0.00  0.00     0.245 C 
BRANCH  11  12
HETATM   12  O   UNK N   1      28.978  17.046   6.606  0.00  0.00    -0.219 OA
BRANCH  12  13
HETATM   13  N   UNK N   1      28.655  18.222   6.094  0.00  0.00     0.005 N 
HETATM   14  O   UNK N   1      28.983  18.501   4.851  0.00  0.00    -0.511 OA
HETATM   15  O   UNK N   1      28.107  19.050   6.759  0.00  0.00    -0.511 OA
ENDBRANCH  12  13
ENDBRANCH  11  12
ENDBRANCH   6  11
ENDBRANCH   1   6
BRANCH   1  16
HETATM   16  C   UNK N   1      32.554  15.837   9.106  0.00  0.00     0.245 C 
BRANCH  16  17
HETATM   17  O   UNK N   1      33.882  15.575   9.367  0.00  0.00    -0.219 OA
BRANCH  17  18
HETATM   18  N   UNK N   1      34.392  15.646  10.586  0.00  0.00     0.005 N 
HETATM   19  O   UNK N   1      35.202  16.635  10.894  0.00  0.00    -0.511 OA
HETATM   20  O   UNK N   1      34.094  14.845  11.422  0.00  0.00    -0.511 OA
ENDBRANCH  17  18
ENDBRANCH  16  17
ENDBRANCH   1  16
TORSDOF 11
ENDMDL
MODEL 5
REMARK VINA RESULT:      -5.3     11.238     13.455
REMARK  11 active torsions:
REMARK  status: ('A' for Active; 'I' for Inactive)
REMARK    1  A    between atoms: C_1  and  O_3 
REMARK    2  A    between atoms: C_2  and  C_1 
REMARK    3  A    between atoms: C_6  and  C_1 
REMARK    4  A    between atoms: C_2  and  O_4 
REMARK    5  A    between atoms: C_5  and  C_2 
REMARK    6  A    between atoms: N_15  and  O_3 
REMARK    7  A    between atoms: N_12  and  O_4 
REMARK    8  A    between atoms: O_8  and  C_5 
REMARK    9  A    between atoms: O_7  and  C_6 
REMARK   10  A    between atoms: N_18  and  O_7 
REMARK   11  A    between atoms: N_9  and  O_8 
ROOT
HETATM    1  C   UNK N   1      32.374  17.007   8.141  0.00  0.00     0.219 C 
ENDROOT
BRANCH   1   2
HETATM    2  O   UNK N   1      33.207  18.028   8.564  0.00  0.00    -0.211 OA
BRANCH   2   3
HETATM    3  N   UNK N   1      34.303  18.389   7.915  0.00  0.00     0.005 N 
HETATM    4  O   UNK N   1      35.221  19.131   8.497  0.00  0.00    -0.511 OA
HETATM    5  O   UNK N   1      34.499  17.966   6.817  0.00  0.00    -0.511 OA
ENDBRANCH   2   3
ENDBRANCH   1   2
BRANCH   1   6
HETATM    6  C   UNK N   1      30.950  17.553   7.992  0.00  0.00     0.219 C 
BRANCH   6   7
HETATM    7  O   UNK N   1      30.148  16.983   8.964  0.00  0.00    -0.211 OA
BRANCH   7   8
HETATM    8  N   UNK N   1      29.244  17.664   9.651  0.00  0.00     0.005 N 
HETATM    9  O   UNK N   1      29.566  18.780  10.273  0.00  0.00    -0.511 OA
HETATM   10  O   UNK N   1      28.145  17.218   9.776  0.00  0.00    -0.511 OA
ENDBRANCH   7   8
ENDBRANCH   6   7
BRANCH   6  11
HETATM   11  C   UNK N   1      30.418  17.205   6.599  0.00  0.00     0.245 C 
BRANCH  11  12
HETATM   12  O   UNK N   1      31.441  17.149   5.676  0.00  0.00    -0.219 OA
BRANCH  12  13
HETATM   13  N   UNK N   1      31.224  17.230   4.373  0.00  0.00     0.005 N 
HETATM   14  O   UNK N   1      32.205  17.589   3.574  0.00  0.00    -0.511 OA
HETATM   15  O   UNK N   1      30.139  17.023   3.918  0.00  0.00    -0.511 OA
ENDBRANCH  12  13
ENDBRANCH  11  12
ENDBRANCH   6  11
ENDBRANCH   1   6
BRANCH   1  16
HETATM   16  C   UNK N   1      32.372  15.870   9.166  0.00  0.00     0.245 C 
BRANCH  16  17
HETATM   17  O   UNK N   1      33.617  15.282   9.261  0.00  0.00    -0.219 OA
BRANCH  17  18
HETATM   18  N   UNK N   1      34.396  15.441  10.319  0.00  0.00     0.005 N 
HETATM   19  O   UNK N   1      34.076  14.857  11.452  0.00  0.00    -0.511 OA
HETATM   20  O   UNK N   1      35.407  16.074  10.246  0.00  0.00    -0.511 OA
ENDBRANCH  17  18
ENDBRANCH  16  17
ENDBRANCH   1  16
TORSDOF 11
ENDMDL
MODEL 6
REMARK VINA RESULT:      -5.2      9.814     11.304
REMARK  11 active torsions:
REMARK  status: ('A' for Active; 'I' for Inactive)
REMARK    1  A    between atoms: C_1  and  O_3 
REMARK    2  A    between atoms: C_2  and  C_1 
REMARK    3  A    between atoms: C_6  and  C_1 
REMARK    4  A    between atoms: C_2  and  O_4 
REMARK    5  A    between atoms: C_5  and  C_2 
REMARK    6  A    between atoms: N_15  and  O_3 
REMARK    7  A    between atoms: N_12  and  O_4 
REMARK    8  A    between atoms: O_8  and  C_5 
REMARK    9  A    between atoms: O_7  and  C_6 
REMARK   10  A    between atoms: N_18  and  O_7 
REMARK   11  A    between atoms: N_9  and  O_8 
ROOT
HETATM    1  C   UNK N   1      30.839  17.529   7.898  0.00  0.00     0.219 C 
ENDROOT
BRANCH   1   2
HETATM    2  O   UNK N   1      29.927  17.033   8.813  0.00  0.00    -0.211 OA
BRANCH   2   3
HETATM    3  N   UNK N   1      29.144  17.804   9.550  0.00  0.00     0.005 N 
HETATM    4  O   UNK N   1      29.628  18.851  10.185  0.00  0.00    -0.511 OA
HETATM    5  O   UNK N   1      27.969  17.598   9.570  0.00  0.00    -0.511 OA
ENDBRANCH   2   3
ENDBRANCH   1   2
BRANCH   1   6
HETATM    6  C   UNK N   1      30.629  16.827   6.552  0.00  0.00     0.219 C 
BRANCH   6   7
HETATM    7  O   UNK N   1      31.457  17.408   5.609  0.00  0.00    -0.211 OA
BRANCH   7   8
HETATM    8  N   UNK N   1      32.118  16.715   4.696  0.00  0.00     0.005 N 
HETATM    9  O   UNK N   1      32.495  15.475   4.930  0.00  0.00    -0.511 OA
HETATM   10  O   UNK N   1      32.448  17.247   3.681  0.00  0.00    -0.511 OA
ENDBRANCH   7   8
ENDBRANCH   6   7
BRANCH   6  11
HETATM   11  C   UNK N   1      29.165  16.969   6.130  0.00  0.00     0.245 C 
BRANCH  11  12
HETATM   12  O   UNK N   1      28.879  18.265   5.755  0.00  0.00    -0.219 OA
BRANCH  12  13
HETATM   13  N   UNK N   1      27.778  18.888   6.143  0.00  0.00     0.005 N 
HETATM   14  O   UNK N   1      26.637  18.621   5.544  0.00  0.00    -0.511 OA
HETATM   15  O   UNK N   1      27.813  19.719   7.000  0.00  0.00    -0.511 OA
ENDBRANCH  12  13
ENDBRANCH  11  12
ENDBRANCH   6  11
ENDBRANCH   1   6
BRANCH   1  16
HETATM   16  C   UNK N   1      32.267  17.270   8.383  0.00  0.00     0.245 C 
BRANCH  16  17
HETATM   17  O   UNK N   1      33.012  18.431   8.383  0.00  0.00    -0.219 OA
BRANCH  17  18
HETATM   18  N   UNK N   1      34.243  18.482   7.901  0.00  0.00     0.005 N 
HETATM   19  O   UNK N   1      34.536  17.826   6.800  0.00  0.00    -0.511 OA
HETATM   20  O   UNK N   1      35.082  19.149   8.431  0.00  0.00    -0.511 OA
ENDBRANCH  17  18
ENDBRANCH  16  17
ENDBRANCH   1  16
TORSDOF 11
ENDMDL
MODEL 7
REMARK VINA RESULT:      -5.2     13.862     15.949
REMARK  11 active torsions:
REMARK  status: ('A' for Active; 'I' for Inactive)
REMARK    1  A    between atoms: C_1  and  O_3 
REMARK    2  A    between atoms: C_2  and  C_1 
REMARK    3  A    between atoms: C_6  and  C_1 
REMARK    4  A    between atoms: C_2  and  O_4 
REMARK    5  A    between atoms: C_5  and  C_2 
REMARK    6  A    between atoms: N_15  and  O_3 
REMARK    7  A    between atoms: N_12  and  O_4 
REMARK    8  A    between atoms: O_8  and  C_5 
REMARK    9  A    between atoms: O_7  and  C_6 
REMARK   10  A    between atoms: N_18  and  O_7 
REMARK   11  A    between atoms: N_9  and  O_8 
ROOT
HETATM    1  C   UNK N   1      34.761  15.099   9.559  0.00  0.00     0.219 C 
ENDROOT
BRANCH   1   2
HETATM    2  O   UNK N   1      36.055  15.032   9.074  0.00  0.00    -0.211 OA
BRANCH   2   3
HETATM    3  N   UNK N   1      36.935  14.127   9.472  0.00  0.00     0.005 N 
HETATM    4  O   UNK N   1      36.614  12.852   9.531  0.00  0.00    -0.511 OA
HETATM    5  O   UNK N   1      38.057  14.461   9.700  0.00  0.00    -0.511 OA
ENDBRANCH   2   3
ENDBRANCH   1   2
BRANCH   1   6
HETATM    6  C   UNK N   1      33.971  16.123   8.738  0.00  0.00     0.219 C 
BRANCH   6   7
HETATM    7  O   UNK N   1      34.354  17.396   9.121  0.00  0.00    -0.211 OA
BRANCH   7   8
HETATM    8  N   UNK N   1      34.786  18.312   8.269  0.00  0.00     0.005 N 
HETATM    9  O   UNK N   1      35.415  19.389   8.694  0.00  0.00    -0.511 OA
HETATM   10  O   UNK N   1      34.529  18.202   7.109  0.00  0.00    -0.511 OA
ENDBRANCH   7   8
ENDBRANCH   6   7
BRANCH   6  11
HETATM   11  C   UNK N   1      32.474  15.926   8.986  0.00  0.00     0.245 C 
BRANCH  11  12
HETATM   12  O   UNK N   1      31.776  15.862   7.798  0.00  0.00    -0.219 OA
BRANCH  12  13
HETATM   13  N   UNK N   1      31.262  16.935   7.221  0.00  0.00     0.005 N 
HETATM   14  O   UNK N   1      31.547  17.193   5.962  0.00  0.00    -0.511 OA
HETATM   15  O   UNK N   1      30.578  17.695   7.838  0.00  0.00    -0.511 OA
ENDBRANCH  12  13
ENDBRANCH  11  12
ENDBRANCH   6  11
ENDBRANCH   1   6
BRANCH   1  16
HETATM   16  C   UNK N   1      34.771  15.532  11.028  0.00  0.00     0.245 C 
BRANCH  16  17
HETATM   17  O   UNK N   1      34.409  14.491  11.857  0.00  0.00    -0.219 OA
BRANCH  17  18
HETATM   18  N   UNK N   1      35.214  14.023  12.797  0.00  0.00     0.005 N 
HETATM   19  O   UNK N   1      34.733  13.222  13.722  0.00  0.00    -0.511 OA
HETATM   20  O   UNK N   1      36.380  14.285  12.792  0.00  0.00    -0.511 OA
ENDBRANCH  17  18
ENDBRANCH  16  17
ENDBRANCH   1  16
TORSDOF 11
ENDMDL
MODEL 8
REMARK VINA RESULT:      -5.2     14.359     16.283
REMARK  11 active torsions:
REMARK  status: ('A' for Active; 'I' for Inactive)
REMARK    1  A    between atoms: C_1  and  O_3 
REMARK    2  A    between atoms: C_2  and  C_1 
REMARK    3  A    between atoms: C_6  and  C_1 
REMARK    4  A    between atoms: C_2  and  O_4 
REMARK    5  A    between atoms: C_5  and  C_2 
REMARK    6  A    between atoms: N_15  and  O_3 
REMARK    7  A    between atoms: N_12  and  O_4 
REMARK    8  A    between atoms: O_8  and  C_5 
REMARK    9  A    between atoms: O_7  and  C_6 
REMARK   10  A    between atoms: N_18  and  O_7 
REMARK   11  A    between atoms: N_9  and  O_8 
ROOT
HETATM    1  C   UNK N   1      35.371  15.473  10.089  0.00  0.00     0.219 C 
ENDROOT
BRANCH   1   2
HETATM    2  O   UNK N   1      34.644  14.804  11.058  0.00  0.00    -0.211 OA
BRANCH   2   3
HETATM    3  N   UNK N   1      35.146  14.456  12.232  0.00  0.00     0.005 N 
HETATM    4  O   UNK N   1      36.067  15.192  12.819  0.00  0.00    -0.511 OA
HETATM    5  O   UNK N   1      34.698  13.510  12.804  0.00  0.00    -0.511 OA
ENDBRANCH   2   3
ENDBRANCH   1   2
BRANCH   1   6
HETATM    6  C   UNK N   1      34.403  16.095   9.078  0.00  0.00     0.219 C 
BRANCH   6   7
HETATM    7  O   UNK N   1      34.392  17.468   9.252  0.00  0.00    -0.211 OA
BRANCH   7   8
HETATM    8  N   UNK N   1      34.812  18.320   8.331  0.00  0.00     0.005 N 
HETATM    9  O   UNK N   1      35.438  19.429   8.670  0.00  0.00    -0.511 OA
HETATM   10  O   UNK N   1      34.548  18.122   7.185  0.00  0.00    -0.511 OA
ENDBRANCH   7   8
ENDBRANCH   6   7
BRANCH   6  11
HETATM   11  C   UNK N   1      33.000  15.524   9.303  0.00  0.00     0.245 C 
BRANCH  11  12
HETATM   12  O   UNK N   1      32.261  15.546   8.140  0.00  0.00    -0.219 OA
BRANCH  12  13
HETATM   13  N   UNK N   1      31.572  16.610   7.758  0.00  0.00     0.005 N 
HETATM   14  O   UNK N   1      31.013  17.380   8.666  0.00  0.00    -0.511 OA
HETATM   15  O   UNK N   1      31.417  16.856   6.599  0.00  0.00    -0.511 OA
ENDBRANCH  12  13
ENDBRANCH  11  12
ENDBRANCH   6  11
ENDBRANCH   1   6
BRANCH   1  16
HETATM   16  C   UNK N   1      36.301  14.499   9.361  0.00  0.00     0.245 C 
BRANCH  16  17
HETATM   17  O   UNK N   1      37.580  14.552   9.875  0.00  0.00    -0.219 OA
BRANCH  17  18
HETATM   18  N   UNK N   1      38.247  13.464  10.225  0.00  0.00     0.005 N 
HETATM   19  O   UNK N   1      39.210  13.017   9.450  0.00  0.00    -0.511 OA
HETATM   20  O   UNK N   1      38.013  12.908  11.257  0.00  0.00    -0.511 OA
ENDBRANCH  17  18
ENDBRANCH  16  17
ENDBRANCH   1  16
TORSDOF 11
ENDMDL
MODEL 9
REMARK VINA RESULT:      -5.1     14.756     16.824
REMARK  11 active torsions:
REMARK  status: ('A' for Active; 'I' for Inactive)
REMARK    1  A    between atoms: C_1  and  O_3 
REMARK    2  A    between atoms: C_2  and  C_1 
REMARK    3  A    between atoms: C_6  and  C_1 
REMARK    4  A    between atoms: C_2  and  O_4 
REMARK    5  A    between atoms: C_5  and  C_2 
REMARK    6  A    between atoms: N_15  and  O_3 
REMARK    7  A    between atoms: N_12  and  O_4 
REMARK    8  A    between atoms: O_8  and  C_5 
REMARK    9  A    between atoms: O_7  and  C_6 
REMARK   10  A    between atoms: N_18  and  O_7 
REMARK   11  A    between atoms: N_9  and  O_8 
ROOT
HETATM    1  C   UNK N   1      34.715  15.239   9.336  0.00  0.00     0.219 C 
ENDROOT
BRANCH   1   2
HETATM    2  O   UNK N   1      33.473  15.207   8.727  0.00  0.00    -0.211 OA
BRANCH   2   3
HETATM    3  N   UNK N   1      33.200  14.459   7.670  0.00  0.00     0.005 N 
HETATM    4  O   UNK N   1      34.164  14.009   6.893  0.00  0.00    -0.511 OA
HETATM    5  O   UNK N   1      32.076  14.117   7.468  0.00  0.00    -0.511 OA
ENDBRANCH   2   3
ENDBRANCH   1   2
BRANCH   1   6
HETATM    6  C   UNK N   1      34.737  14.222  10.482  0.00  0.00     0.219 C 
BRANCH   6   7
HETATM    7  O   UNK N   1      35.150  14.858  11.638  0.00  0.00    -0.211 OA
BRANCH   7   8
HETATM    8  N   UNK N   1      35.426  14.216  12.762  0.00  0.00     0.005 N 
HETATM    9  O   UNK N   1      36.621  14.294  13.310  0.00  0.00    -0.511 OA
HETATM   10  O   UNK N   1      34.607  13.491  13.239  0.00  0.00    -0.511 OA
ENDBRANCH   7   8
ENDBRANCH   6   7
BRANCH   6  11
HETATM   11  C   UNK N   1      35.700  13.085  10.132  0.00  0.00     0.245 C 
BRANCH  11  12
HETATM   12  O   UNK N   1      36.762  13.546   9.381  0.00  0.00    -0.219 OA
BRANCH  12  13
HETATM   13  N   UNK N   1      37.943  13.811   9.914  0.00  0.00     0.005 N 
HETATM   14  O   UNK N   1      38.445  12.996  10.816  0.00  0.00    -0.511 OA
HETATM   15  O   UNK N   1      38.540  14.803   9.618  0.00  0.00    -0.511 OA
ENDBRANCH  12  13
ENDBRANCH  11  12
ENDBRANCH   6  11
ENDBRANCH   1   6
BRANCH   1  16
HETATM   16  C   UNK N   1      34.991  16.636   9.898  0.00  0.00     0.245 C 
BRANCH  16  17
HETATM   17  O   UNK N   1      34.242  17.593   9.245  0.00  0.00    -0.219 OA
BRANCH  17  18
HETATM   18  N   UNK N   1      34.753  18.371   8.305  0.00  0.00     0.005 N 
HETATM   19  O   UNK N   1      34.536  18.086   7.040  0.00  0.00    -0.511 OA
HETATM   20  O   UNK N   1      35.373  19.352   8.591  0.00  0.00    -0.511 OA
ENDBRANCH  17  18
ENDBRANCH  16  17
ENDBRANCH   1  16
TORSDOF 11
ENDMDL
