MODEL 1
REMARK VINA RESULT:      -7.2      0.000      0.000
REMARK  10 active torsions:
REMARK  status: ('A' for Active; 'I' for Inactive)
REMARK    1  A    between atoms: C_1  and  C_28 
REMARK    2  A    between atoms: C_2  and  O_32 
REMARK    3  A    between atoms: C_4  and  S_11 
REMARK    4  A    between atoms: C_5  and  C_8 
REMARK    5  A    between atoms: S_11  and  C_23 
REMARK    6  A    between atoms: S_12  and  C_13 
REMARK    7  A    between atoms: C_23  and  S_12 
REMARK    8  A    between atoms: C_15  and  O_33 
REMARK    9  A    between atoms: C_16  and  C_24 
REMARK   10  A    between atoms: C_17  and  C_20 
ROOT
HETATM    1  C   UNK N   1      29.676  14.822   3.555  0.00  0.00     0.058 C 
HETATM    2  C   UNK N   1      29.285  14.478   4.987  0.00  0.00     0.039 C 
HETATM    3  C   UNK N   1      30.542  13.689   3.038  0.00  0.00     0.039 C 
ENDROOT
BRANCH   1   4
HETATM    4  S   UNK N   1      30.568  16.426   3.417  0.00  0.00    -0.109 SA
BRANCH   4   5
HETATM    5  C   UNK N   1      30.775  16.650   5.178  0.00  0.00     0.003 A 
HETATM    6  C   UNK N   1      32.048  16.628   5.723  0.00  0.00     0.029 A 
HETATM    7  C   UNK N   1      32.269  16.934   7.071  0.00  0.00    -0.016 A 
HETATM    8  C   UNK N   1      31.148  17.282   7.886  0.00  0.00     0.079 A 
HETATM    9  C   UNK N   1      29.835  17.293   7.326  0.00  0.00    -0.016 A 
HETATM   10  C   UNK N   1      29.682  16.966   5.973  0.00  0.00     0.029 A 
BRANCH   7  11
HETATM   11  C   UNK N   1      33.721  16.897   7.553  0.00  0.00    -0.021 C 
HETATM   12  C   UNK N   1      34.610  16.377   6.433  0.00  0.00     0.019 C 
HETATM   13  C   UNK N   1      34.306  18.227   7.995  0.00  0.00     0.019 C 
HETATM   14  C   UNK N   1      33.836  15.946   8.731  0.00  0.00     0.019 C 
ENDBRANCH   7  11
BRANCH   8  15
HETATM   15  O   UNK N   1      31.330  17.599   9.178  0.00  0.00    -0.360 OA
HETATM   16  H   UNK N   1      31.096  18.413   9.578  0.00  0.00     0.217 HD
ENDBRANCH   8  15
BRANCH   9  17
HETATM   17  C   UNK N   1      28.562  17.671   8.091  0.00  0.00    -0.021 C 
HETATM   18  C   UNK N   1      28.347  19.173   7.996  0.00  0.00     0.019 C 
HETATM   19  C   UNK N   1      28.550  17.324   9.570  0.00  0.00     0.019 C 
HETATM   20  C   UNK N   1      27.365  16.981   7.460  0.00  0.00     0.019 C 
ENDBRANCH   9  17
ENDBRANCH   4   5
ENDBRANCH   1   4
BRANCH   1  21
HETATM   21  S   UNK N   1      28.228  14.864   2.441  0.00  0.00    -0.109 SA
BRANCH  21  22
HETATM   22  C   UNK N   1      27.056  15.944   3.288  0.00  0.00     0.003 A 
HETATM   23  C   UNK N   1      25.902  15.354   3.788  0.00  0.00     0.029 A 
HETATM   24  C   UNK N   1      24.923  16.101   4.448  0.00  0.00    -0.016 A 
HETATM   25  C   UNK N   1      25.123  17.493   4.617  0.00  0.00     0.079 A 
HETATM   26  C   UNK N   1      26.294  18.113   4.115  0.00  0.00    -0.016 A 
HETATM   27  C   UNK N   1      27.243  17.321   3.442  0.00  0.00     0.029 A 
BRANCH  24  28
HETATM   28  C   UNK N   1      23.666  15.409   4.966  0.00  0.00    -0.021 C 
HETATM   29  C   UNK N   1      23.645  13.959   4.518  0.00  0.00     0.019 C 
HETATM   30  C   UNK N   1      22.383  16.059   4.461  0.00  0.00     0.019 C 
HETATM   31  C   UNK N   1      23.632  15.462   6.483  0.00  0.00     0.019 C 
ENDBRANCH  24  28
BRANCH  25  32
HETATM   32  O   UNK N   1      24.195  18.230   5.258  0.00  0.00    -0.360 OA
HETATM   33  H   UNK N   1      24.458  18.959   5.786  0.00  0.00     0.217 HD
ENDBRANCH  25  32
BRANCH  26  34
HETATM   34  C   UNK N   1      26.531  19.609   4.300  0.00  0.00    -0.021 C 
HETATM   35  C   UNK N   1      28.020  19.902   4.356  0.00  0.00     0.019 C 
HETATM   36  C   UNK N   1      25.910  20.153   5.581  0.00  0.00     0.019 C 
HETATM   37  C   UNK N   1      25.922  20.379   3.141  0.00  0.00     0.019 C 
ENDBRANCH  26  34
ENDBRANCH  21  22
ENDBRANCH   1  21
TORSDOF 10
ENDMDL
MODEL 2
REMARK VINA RESULT:      -7.1      0.163      3.051
REMARK  10 active torsions:
REMARK  status: ('A' for Active; 'I' for Inactive)
REMARK    1  A    between atoms: C_1  and  C_28 
REMARK    2  A    between atoms: C_2  and  O_32 
REMARK    3  A    between atoms: C_4  and  S_11 
REMARK    4  A    between atoms: C_5  and  C_8 
REMARK    5  A    between atoms: S_11  and  C_23 
REMARK    6  A    between atoms: S_12  and  C_13 
REMARK    7  A    between atoms: C_23  and  S_12 
REMARK    8  A    between atoms: C_15  and  O_33 
REMARK    9  A    between atoms: C_16  and  C_24 
REMARK   10  A    between atoms: C_17  and  C_20 
ROOT
HETATM    1  C   UNK N   1      29.571  14.877   3.493  0.00  0.00     0.058 C 
HETATM    2  C   UNK N   1      29.113  14.564   4.911  0.00  0.00     0.039 C 
HETATM    3  C   UNK N   1      30.431  13.718   3.028  0.00  0.00     0.039 C 
ENDROOT
BRANCH   1   4
HETATM    4  S   UNK N   1      30.507  16.458   3.371  0.00  0.00    -0.109 SA
BRANCH   4   5
HETATM    5  C   UNK N   1      30.708  16.665   5.134  0.00  0.00     0.003 A 
HETATM    6  C   UNK N   1      31.980  16.637   5.683  0.00  0.00     0.029 A 
HETATM    7  C   UNK N   1      32.197  16.930   7.035  0.00  0.00    -0.016 A 
HETATM    8  C   UNK N   1      31.073  17.270   7.849  0.00  0.00     0.079 A 
HETATM    9  C   UNK N   1      29.762  17.287   7.286  0.00  0.00    -0.016 A 
HETATM   10  C   UNK N   1      29.613  16.973   5.929  0.00  0.00     0.029 A 
BRANCH   7  11
HETATM   11  C   UNK N   1      33.648  16.888   7.521  0.00  0.00    -0.021 C 
HETATM   12  C   UNK N   1      34.544  16.410   6.388  0.00  0.00     0.019 C 
HETATM   13  C   UNK N   1      34.221  18.207   8.006  0.00  0.00     0.019 C 
HETATM   14  C   UNK N   1      33.765  15.901   8.669  0.00  0.00     0.019 C 
ENDBRANCH   7  11
BRANCH   8  15
HETATM   15  O   UNK N   1      31.252  17.575   9.146  0.00  0.00    -0.360 OA
HETATM   16  H   UNK N   1      30.570  17.741   9.765  0.00  0.00     0.217 HD
ENDBRANCH   8  15
BRANCH   9  17
HETATM   17  C   UNK N   1      28.487  17.658   8.051  0.00  0.00    -0.021 C 
HETATM   18  C   UNK N   1      28.268  19.160   7.962  0.00  0.00     0.019 C 
HETATM   19  C   UNK N   1      28.474  17.304   9.528  0.00  0.00     0.019 C 
HETATM   20  C   UNK N   1      27.293  16.967   7.415  0.00  0.00     0.019 C 
ENDBRANCH   9  17
ENDBRANCH   4   5
ENDBRANCH   1   4
BRANCH   1  21
HETATM   21  S   UNK N   1      28.173  14.937   2.318  0.00  0.00    -0.109 SA
BRANCH  21  22
HETATM   22  C   UNK N   1      26.891  15.840   3.210  0.00  0.00     0.003 A 
HETATM   23  C   UNK N   1      27.079  17.207   3.371  0.00  0.00     0.029 A 
HETATM   24  C   UNK N   1      26.154  17.999   4.058  0.00  0.00    -0.016 A 
HETATM   25  C   UNK N   1      24.994  17.388   4.593  0.00  0.00     0.079 A 
HETATM   26  C   UNK N   1      24.785  15.995   4.438  0.00  0.00    -0.016 A 
HETATM   27  C   UNK N   1      25.752  15.237   3.754  0.00  0.00     0.029 A 
BRANCH  24  28
HETATM   28  C   UNK N   1      26.413  19.493   4.221  0.00  0.00    -0.021 C 
HETATM   29  C   UNK N   1      27.906  19.769   4.218  0.00  0.00     0.019 C 
HETATM   30  C   UNK N   1      25.850  20.052   5.522  0.00  0.00     0.019 C 
HETATM   31  C   UNK N   1      25.764  20.260   3.082  0.00  0.00     0.019 C 
ENDBRANCH  24  28
BRANCH  25  32
HETATM   32  O   UNK N   1      24.086  18.135   5.250  0.00  0.00    -0.360 OA
HETATM   33  H   UNK N   1      23.944  19.027   5.001  0.00  0.00     0.217 HD
ENDBRANCH  25  32
BRANCH  26  34
HETATM   34  C   UNK N   1      23.533  15.323   4.997  0.00  0.00    -0.021 C 
HETATM   35  C   UNK N   1      22.298  15.829   4.274  0.00  0.00     0.019 C 
HETATM   36  C   UNK N   1      23.333  15.586   6.484  0.00  0.00     0.019 C 
HETATM   37  C   UNK N   1      23.626  13.817   4.814  0.00  0.00     0.019 C 
ENDBRANCH  26  34
ENDBRANCH  21  22
ENDBRANCH   1  21
TORSDOF 10
ENDMDL
MODEL 3
REMARK VINA RESULT:      -6.8      0.974      7.000
REMARK  10 active torsions:
REMARK  status: ('A' for Active; 'I' for Inactive)
REMARK    1  A    between atoms: C_1  and  C_28 
REMARK    2  A    between atoms: C_2  and  O_32 
REMARK    3  A    between atoms: C_4  and  S_11 
REMARK    4  A    between atoms: C_5  and  C_8 
REMARK    5  A    between atoms: S_11  and  C_23 
REMARK    6  A    between atoms: S_12  and  C_13 
REMARK    7  A    between atoms: C_23  and  S_12 
REMARK    8  A    between atoms: C_15  and  O_33 
REMARK    9  A    between atoms: C_16  and  C_24 
REMARK   10  A    between atoms: C_17  and  C_20 
ROOT
HETATM    1  C   UNK N   1      28.894  14.820   3.533  0.00  0.00     0.058 C 
HETATM    2  C   UNK N   1      29.816  13.642   3.248  0.00  0.00     0.039 C 
HETATM    3  C   UNK N   1      28.269  14.586   4.895  0.00  0.00     0.039 C 
ENDROOT
BRANCH   1   4
HETATM    4  S   UNK N   1      27.586  15.038   2.256  0.00  0.00    -0.109 SA
BRANCH   4   5
HETATM    5  C   UNK N   1      26.526  16.049   3.279  0.00  0.00     0.003 A 
HETATM    6  C   UNK N   1      26.826  17.389   3.458  0.00  0.00     0.029 A 
HETATM    7  C   UNK N   1      25.952  18.248   4.135  0.00  0.00    -0.016 A 
HETATM    8  C   UNK N   1      24.726  17.716   4.641  0.00  0.00     0.079 A 
HETATM    9  C   UNK N   1      24.423  16.332   4.468  0.00  0.00    -0.016 A 
HETATM   10  C   UNK N   1      25.346  15.526   3.789  0.00  0.00     0.029 A 
BRANCH   7  11
HETATM   11  C   UNK N   1      26.383  19.712   4.251  0.00  0.00    -0.021 C 
HETATM   12  C   UNK N   1      25.837  20.493   3.065  0.00  0.00     0.019 C 
HETATM   13  C   UNK N   1      25.924  20.440   5.503  0.00  0.00     0.019 C 
HETATM   14  C   UNK N   1      27.898  19.795   4.217  0.00  0.00     0.019 C 
ENDBRANCH   7  11
BRANCH   8  15
HETATM   15  O   UNK N   1      23.859  18.519   5.279  0.00  0.00    -0.360 OA
HETATM   16  H   UNK N   1      24.001  19.421   5.485  0.00  0.00     0.217 HD
ENDBRANCH   8  15
BRANCH   9  17
HETATM   17  C   UNK N   1      23.133  15.654   4.943  0.00  0.00    -0.021 C 
HETATM   18  C   UNK N   1      21.965  16.157   4.111  0.00  0.00     0.019 C 
HETATM   19  C   UNK N   1      22.762  15.883   6.397  0.00  0.00     0.019 C 
HETATM   20  C   UNK N   1      23.245  14.152   4.741  0.00  0.00     0.019 C 
ENDBRANCH   9  17
ENDBRANCH   4   5
ENDBRANCH   1   4
BRANCH   1  21
HETATM   21  S   UNK N   1      29.817  16.389   3.694  0.00  0.00    -0.109 SA
BRANCH  21  22
HETATM   22  C   UNK N   1      30.390  16.385   5.405  0.00  0.00     0.003 A 
HETATM   23  C   UNK N   1      29.676  17.159   6.311  0.00  0.00     0.029 A 
HETATM   24  C   UNK N   1      30.042  17.238   7.658  0.00  0.00    -0.016 A 
HETATM   25  C   UNK N   1      31.165  16.501   8.105  0.00  0.00     0.079 A 
HETATM   26  C   UNK N   1      31.907  15.706   7.196  0.00  0.00    -0.016 A 
HETATM   27  C   UNK N   1      31.509  15.672   5.847  0.00  0.00     0.029 A 
BRANCH  24  28
HETATM   28  C   UNK N   1      29.234  18.113   8.610  0.00  0.00    -0.021 C 
HETATM   29  C   UNK N   1      28.258  18.975   7.828  0.00  0.00     0.019 C 
HETATM   30  C   UNK N   1      30.107  19.051   9.436  0.00  0.00     0.019 C 
HETATM   31  C   UNK N   1      28.459  17.244   9.584  0.00  0.00     0.019 C 
ENDBRANCH  24  28
BRANCH  25  32
HETATM   32  O   UNK N   1      31.530  16.557   9.401  0.00  0.00    -0.360 OA
HETATM   33  H   UNK N   1      30.991  17.009  10.021  0.00  0.00     0.217 HD
ENDBRANCH  25  32
BRANCH  26  34
HETATM   34  C   UNK N   1      33.112  14.895   7.665  0.00  0.00    -0.021 C 
HETATM   35  C   UNK N   1      32.704  13.941   8.773  0.00  0.00     0.019 C 
HETATM   36  C   UNK N   1      34.239  15.767   8.204  0.00  0.00     0.019 C 
HETATM   37  C   UNK N   1      33.678  14.089   6.508  0.00  0.00     0.019 C 
ENDBRANCH  26  34
ENDBRANCH  21  22
ENDBRANCH   1  21
TORSDOF 10
ENDMDL
MODEL 4
REMARK VINA RESULT:      -6.8      0.970      6.921
REMARK  10 active torsions:
REMARK  status: ('A' for Active; 'I' for Inactive)
REMARK    1  A    between atoms: C_1  and  C_28 
REMARK    2  A    between atoms: C_2  and  O_32 
REMARK    3  A    between atoms: C_4  and  S_11 
REMARK    4  A    between atoms: C_5  and  C_8 
REMARK    5  A    between atoms: S_11  and  C_23 
REMARK    6  A    between atoms: S_12  and  C_13 
REMARK    7  A    between atoms: C_23  and  S_12 
REMARK    8  A    between atoms: C_15  and  O_33 
REMARK    9  A    between atoms: C_16  and  C_24 
REMARK   10  A    between atoms: C_17  and  C_20 
ROOT
HETATM    1  C   UNK N   1      28.858  14.801   3.486  0.00  0.00     0.058 C 
HETATM    2  C   UNK N   1      29.713  13.567   3.233  0.00  0.00     0.039 C 
HETATM    3  C   UNK N   1      28.238  14.648   4.862  0.00  0.00     0.039 C 
ENDROOT
BRANCH   1   4
HETATM    4  S   UNK N   1      27.547  15.043   2.216  0.00  0.00    -0.109 SA
BRANCH   4   5
HETATM    5  C   UNK N   1      26.492  16.041   3.258  0.00  0.00     0.003 A 
HETATM    6  C   UNK N   1      26.780  17.384   3.432  0.00  0.00     0.029 A 
HETATM    7  C   UNK N   1      25.907  18.232   4.125  0.00  0.00    -0.016 A 
HETATM    8  C   UNK N   1      24.697  17.686   4.651  0.00  0.00     0.079 A 
HETATM    9  C   UNK N   1      24.406  16.299   4.482  0.00  0.00    -0.016 A 
HETATM   10  C   UNK N   1      25.327  15.503   3.787  0.00  0.00     0.029 A 
BRANCH   7  11
HETATM   11  C   UNK N   1      26.323  19.701   4.235  0.00  0.00    -0.021 C 
HETATM   12  C   UNK N   1      25.747  20.477   3.060  0.00  0.00     0.019 C 
HETATM   13  C   UNK N   1      25.879  20.422   5.496  0.00  0.00     0.019 C 
HETATM   14  C   UNK N   1      27.837  19.802   4.173  0.00  0.00     0.019 C 
ENDBRANCH   7  11
BRANCH   8  15
HETATM   15  O   UNK N   1      23.831  18.479   5.305  0.00  0.00    -0.360 OA
HETATM   16  H   UNK N   1      23.064  18.869   4.936  0.00  0.00     0.217 HD
ENDBRANCH   8  15
BRANCH   9  17
HETATM   17  C   UNK N   1      23.133  15.605   4.978  0.00  0.00    -0.021 C 
HETATM   18  C   UNK N   1      21.924  16.237   4.307  0.00  0.00     0.019 C 
HETATM   19  C   UNK N   1      22.884  15.671   6.475  0.00  0.00     0.019 C 
HETATM   20  C   UNK N   1      23.173  14.136   4.595  0.00  0.00     0.019 C 
ENDBRANCH   9  17
ENDBRANCH   4   5
ENDBRANCH   1   4
BRANCH   1  21
HETATM   21  S   UNK N   1      29.863  16.324   3.581  0.00  0.00    -0.109 SA
BRANCH  21  22
HETATM   22  C   UNK N   1      30.297  16.453   5.328  0.00  0.00     0.003 A 
HETATM   23  C   UNK N   1      31.414  15.748   5.755  0.00  0.00     0.029 A 
HETATM   24  C   UNK N   1      31.830  15.767   7.089  0.00  0.00    -0.016 A 
HETATM   25  C   UNK N   1      31.093  16.536   8.024  0.00  0.00     0.079 A 
HETATM   26  C   UNK N   1      29.950  17.263   7.607  0.00  0.00    -0.016 A 
HETATM   27  C   UNK N   1      29.561  17.198   6.256  0.00  0.00     0.029 A 
BRANCH  24  28
HETATM   28  C   UNK N   1      33.055  14.964   7.511  0.00  0.00    -0.021 C 
HETATM   29  C   UNK N   1      32.708  14.049   8.672  0.00  0.00     0.019 C 
HETATM   30  C   UNK N   1      34.215  15.846   7.959  0.00  0.00     0.019 C 
HETATM   31  C   UNK N   1      33.551  14.124   6.347  0.00  0.00     0.019 C 
ENDBRANCH  24  28
BRANCH  25  32
HETATM   32  O   UNK N   1      31.481  16.575   9.312  0.00  0.00    -0.360 OA
HETATM   33  H   UNK N   1      31.265  15.868   9.889  0.00  0.00     0.217 HD
ENDBRANCH  25  32
BRANCH  26  34
HETATM   34  C   UNK N   1      29.153  18.107   8.599  0.00  0.00    -0.021 C 
HETATM   35  C   UNK N   1      30.091  18.951   9.442  0.00  0.00     0.019 C 
HETATM   36  C   UNK N   1      28.312  17.265   9.551  0.00  0.00     0.019 C 
HETATM   37  C   UNK N   1      28.202  19.026   7.851  0.00  0.00     0.019 C 
ENDBRANCH  26  34
ENDBRANCH  21  22
ENDBRANCH   1  21
TORSDOF 10
ENDMDL
MODEL 5
REMARK VINA RESULT:      -6.7      1.076      4.321
REMARK  10 active torsions:
REMARK  status: ('A' for Active; 'I' for Inactive)
REMARK    1  A    between atoms: C_1  and  C_28 
REMARK    2  A    between atoms: C_2  and  O_32 
REMARK    3  A    between atoms: C_4  and  S_11 
REMARK    4  A    between atoms: C_5  and  C_8 
REMARK    5  A    between atoms: S_11  and  C_23 
REMARK    6  A    between atoms: S_12  and  C_13 
REMARK    7  A    between atoms: C_23  and  S_12 
REMARK    8  A    between atoms: C_15  and  O_33 
REMARK    9  A    between atoms: C_16  and  C_24 
REMARK   10  A    between atoms: C_17  and  C_20 
ROOT
HETATM    1  C   UNK N   1      29.079  14.901   3.861  0.00  0.00     0.058 C 
HETATM    2  C   UNK N   1      28.491  14.732   5.255  0.00  0.00     0.039 C 
HETATM    3  C   UNK N   1      29.934  13.680   3.579  0.00  0.00     0.039 C 
ENDROOT
BRANCH   1   4
HETATM    4  S   UNK N   1      30.077  16.438   3.681  0.00  0.00    -0.109 SA
BRANCH   4   5
HETATM    5  C   UNK N   1      30.559  16.521   5.400  0.00  0.00     0.003 A 
HETATM    6  C   UNK N   1      29.810  17.282   6.282  0.00  0.00     0.029 A 
HETATM    7  C   UNK N   1      30.068  17.267   7.658  0.00  0.00    -0.016 A 
HETATM    8  C   UNK N   1      31.124  16.439   8.146  0.00  0.00     0.079 A 
HETATM    9  C   UNK N   1      31.903  15.663   7.236  0.00  0.00    -0.016 A 
HETATM   10  C   UNK N   1      31.599  15.732   5.870  0.00  0.00     0.029 A 
BRANCH   7  11
HETATM   11  C   UNK N   1      29.160  18.134   8.534  0.00  0.00    -0.021 C 
HETATM   12  C   UNK N   1      30.017  18.984   9.460  0.00  0.00     0.019 C 
HETATM   13  C   UNK N   1      28.238  19.086   7.793  0.00  0.00     0.019 C 
HETATM   14  C   UNK N   1      28.282  17.238   9.389  0.00  0.00     0.019 C 
ENDBRANCH   7  11
BRANCH   8  15
HETATM   15  O   UNK N   1      31.383  16.388   9.464  0.00  0.00    -0.360 OA
HETATM   16  H   UNK N   1      31.769  15.665   9.916  0.00  0.00     0.217 HD
ENDBRANCH   8  15
BRANCH   9  17
HETATM   17  C   UNK N   1      33.042  14.721   7.642  0.00  0.00    -0.021 C 
HETATM   18  C   UNK N   1      33.327  13.757   6.501  0.00  0.00     0.019 C 
HETATM   19  C   UNK N   1      32.791  13.873   8.876  0.00  0.00     0.019 C 
HETATM   20  C   UNK N   1      34.301  15.530   7.903  0.00  0.00     0.019 C 
ENDBRANCH   9  17
ENDBRANCH   4   5
ENDBRANCH   1   4
BRANCH   1  21
HETATM   21  S   UNK N   1      27.789  14.891   2.567  0.00  0.00    -0.109 SA
BRANCH  21  22
HETATM   22  C   UNK N   1      26.510  15.985   3.217  0.00  0.00     0.003 A 
HETATM   23  C   UNK N   1      26.851  17.320   3.393  0.00  0.00     0.029 A 
HETATM   24  C   UNK N   1      25.941  18.250   3.903  0.00  0.00    -0.016 A 
HETATM   25  C   UNK N   1      24.635  17.816   4.238  0.00  0.00     0.079 A 
HETATM   26  C   UNK N   1      24.268  16.458   4.066  0.00  0.00    -0.016 A 
HETATM   27  C   UNK N   1      25.225  15.556   3.565  0.00  0.00     0.029 A 
BRANCH  24  28
HETATM   28  C   UNK N   1      26.369  19.702   4.090  0.00  0.00    -0.021 C 
HETATM   29  C   UNK N   1      27.883  19.798   4.143  0.00  0.00     0.019 C 
HETATM   30  C   UNK N   1      25.830  20.315   5.377  0.00  0.00     0.019 C 
HETATM   31  C   UNK N   1      25.857  20.547   2.938  0.00  0.00     0.019 C 
ENDBRANCH  24  28
BRANCH  25  32
HETATM   32  O   UNK N   1      23.740  18.697   4.723  0.00  0.00    -0.360 OA
HETATM   33  H   UNK N   1      23.333  18.543   5.554  0.00  0.00     0.217 HD
ENDBRANCH  25  32
BRANCH  26  34
HETATM   34  C   UNK N   1      22.861  15.976   4.410  0.00  0.00    -0.021 C 
HETATM   35  C   UNK N   1      21.839  16.662   3.521  0.00  0.00     0.019 C 
HETATM   36  C   UNK N   1      22.475  16.261   5.856  0.00  0.00     0.019 C 
HETATM   37  C   UNK N   1      22.761  14.474   4.204  0.00  0.00     0.019 C 
ENDBRANCH  26  34
ENDBRANCH  21  22
ENDBRANCH   1  21
TORSDOF 10
ENDMDL
MODEL 6
REMARK VINA RESULT:      -6.7      1.246      7.458
REMARK  10 active torsions:
REMARK  status: ('A' for Active; 'I' for Inactive)
REMARK    1  A    between atoms: C_1  and  C_28 
REMARK    2  A    between atoms: C_2  and  O_32 
REMARK    3  A    between atoms: C_4  and  S_11 
REMARK    4  A    between atoms: C_5  and  C_8 
REMARK    5  A    between atoms: S_11  and  C_23 
REMARK    6  A    between atoms: S_12  and  C_13 
REMARK    7  A    between atoms: C_23  and  S_12 
REMARK    8  A    between atoms: C_15  and  O_33 
REMARK    9  A    between atoms: C_16  and  C_24 
REMARK   10  A    between atoms: C_17  and  C_20 
ROOT
HETATM    1  C   UNK N   1      28.811  15.031   3.639  0.00  0.00     0.058 C 
HETATM    2  C   UNK N   1      27.877  15.160   2.443  0.00  0.00     0.039 C 
HETATM    3  C   UNK N   1      29.700  13.828   3.390  0.00  0.00     0.039 C 
ENDROOT
BRANCH   1   4
HETATM    4  S   UNK N   1      27.915  14.846   5.237  0.00  0.00    -0.109 SA
BRANCH   4   5
HETATM    5  C   UNK N   1      26.669  16.072   4.867  0.00  0.00     0.003 A 
HETATM    6  C   UNK N   1      25.334  15.705   4.856  0.00  0.00     0.029 A 
HETATM    7  C   UNK N   1      24.317  16.657   4.709  0.00  0.00    -0.016 A 
HETATM    8  C   UNK N   1      24.683  18.032   4.575  0.00  0.00     0.079 A 
HETATM    9  C   UNK N   1      26.059  18.408   4.575  0.00  0.00    -0.016 A 
HETATM   10  C   UNK N   1      27.026  17.405   4.716  0.00  0.00     0.029 A 
BRANCH   7  11
HETATM   11  C   UNK N   1      22.879  16.133   4.732  0.00  0.00    -0.021 C 
HETATM   12  C   UNK N   1      22.897  14.622   4.902  0.00  0.00     0.019 C 
HETATM   13  C   UNK N   1      21.992  16.687   5.833  0.00  0.00     0.019 C 
HETATM   14  C   UNK N   1      22.205  16.455   3.411  0.00  0.00     0.019 C 
ENDBRANCH   7  11
BRANCH   8  15
HETATM   15  O   UNK N   1      23.729  18.970   4.451  0.00  0.00    -0.360 OA
HETATM   16  H   UNK N   1      23.450  19.360   3.647  0.00  0.00     0.217 HD
ENDBRANCH   8  15
BRANCH   9  17
HETATM   17  C   UNK N   1      26.572  19.848   4.464  0.00  0.00    -0.021 C 
HETATM   18  C   UNK N   1      28.092  19.842   4.462  0.00  0.00     0.019 C 
HETATM   19  C   UNK N   1      26.142  20.791   5.575  0.00  0.00     0.019 C 
HETATM   20  C   UNK N   1      26.099  20.456   3.154  0.00  0.00     0.019 C 
ENDBRANCH   9  17
ENDBRANCH   4   5
ENDBRANCH   1   4
BRANCH   1  21
HETATM   21  S   UNK N   1      29.953  16.451   3.773  0.00  0.00    -0.109 SA
BRANCH  21  22
HETATM   22  C   UNK N   1      30.539  16.380   5.478  0.00  0.00     0.003 A 
HETATM   23  C   UNK N   1      29.843  17.132   6.416  0.00  0.00     0.029 A 
HETATM   24  C   UNK N   1      30.220  17.160   7.762  0.00  0.00    -0.016 A 
HETATM   25  C   UNK N   1      31.337  16.392   8.174  0.00  0.00     0.079 A 
HETATM   26  C   UNK N   1      32.060  15.619   7.232  0.00  0.00    -0.016 A 
HETATM   27  C   UNK N   1      31.652  15.637   5.886  0.00  0.00     0.029 A 
BRANCH  24  28
HETATM   28  C   UNK N   1      29.432  18.012   8.750  0.00  0.00    -0.021 C 
HETATM   29  C   UNK N   1      30.335  19.059   9.376  0.00  0.00     0.019 C 
HETATM   30  C   UNK N   1      28.830  17.195   9.887  0.00  0.00     0.019 C 
HETATM   31  C   UNK N   1      28.285  18.707   8.037  0.00  0.00     0.019 C 
ENDBRANCH  24  28
BRANCH  25  32
HETATM   32  O   UNK N   1      31.712  16.398   9.468  0.00  0.00    -0.360 OA
HETATM   33  H   UNK N   1      31.357  15.766  10.062  0.00  0.00     0.217 HD
ENDBRANCH  25  32
BRANCH  26  34
HETATM   34  C   UNK N   1      33.258  14.776   7.663  0.00  0.00    -0.021 C 
HETATM   35  C   UNK N   1      34.331  15.660   8.272  0.00  0.00     0.019 C 
HETATM   36  C   UNK N   1      33.893  14.015   6.505  0.00  0.00     0.019 C 
HETATM   37  C   UNK N   1      32.825  13.748   8.694  0.00  0.00     0.019 C 
ENDBRANCH  26  34
ENDBRANCH  21  22
ENDBRANCH   1  21
TORSDOF 10
ENDMDL
MODEL 7
REMARK VINA RESULT:      -6.6      4.764     10.511
REMARK  10 active torsions:
REMARK  status: ('A' for Active; 'I' for Inactive)
REMARK    1  A    between atoms: C_1  and  C_28 
REMARK    2  A    between atoms: C_2  and  O_32 
REMARK    3  A    between atoms: C_4  and  S_11 
REMARK    4  A    between atoms: C_5  and  C_8 
REMARK    5  A    between atoms: S_11  and  C_23 
REMARK    6  A    between atoms: S_12  and  C_13 
REMARK    7  A    between atoms: C_23  and  S_12 
REMARK    8  A    between atoms: C_15  and  O_33 
REMARK    9  A    between atoms: C_16  and  C_24 
REMARK   10  A    between atoms: C_17  and  C_20 
ROOT
HETATM    1  C   UNK N   1      34.641  15.813   9.303  0.00  0.00     0.058 C 
HETATM    2  C   UNK N   1      35.001  14.890   8.146  0.00  0.00     0.039 C 
HETATM    3  C   UNK N   1      33.379  15.266   9.942  0.00  0.00     0.039 C 
ENDROOT
BRANCH   1   4
HETATM    4  S   UNK N   1      34.387  17.560   8.778  0.00  0.00    -0.109 SA
BRANCH   4   5
HETATM    5  C   UNK N   1      32.863  17.247   7.899  0.00  0.00     0.003 A 
HETATM    6  C   UNK N   1      31.660  17.647   8.455  0.00  0.00     0.029 A 
HETATM    7  C   UNK N   1      30.458  17.546   7.744  0.00  0.00    -0.016 A 
HETATM    8  C   UNK N   1      30.493  17.025   6.414  0.00  0.00     0.079 A 
HETATM    9  C   UNK N   1      31.732  16.602   5.845  0.00  0.00    -0.016 A 
HETATM   10  C   UNK N   1      32.896  16.719   6.616  0.00  0.00     0.029 A 
BRANCH   7  11
HETATM   11  C   UNK N   1      29.197  18.040   8.457  0.00  0.00    -0.021 C 
HETATM   12  C   UNK N   1      28.536  19.123   7.618  0.00  0.00     0.019 C 
HETATM   13  C   UNK N   1      28.136  16.987   8.727  0.00  0.00     0.019 C 
HETATM   14  C   UNK N   1      29.579  18.642   9.797  0.00  0.00     0.019 C 
ENDBRANCH   7  11
BRANCH   8  15
HETATM   15  O   UNK N   1      29.359  16.934   5.699  0.00  0.00    -0.360 OA
HETATM   16  H   UNK N   1      28.958  16.138   5.412  0.00  0.00     0.217 HD
ENDBRANCH   8  15
BRANCH   9  17
HETATM   17  C   UNK N   1      31.898  16.050   4.425  0.00  0.00    -0.021 C 
HETATM   18  C   UNK N   1      31.773  17.190   3.426  0.00  0.00     0.019 C 
HETATM   19  C   UNK N   1      30.894  14.991   4.004  0.00  0.00     0.019 C 
HETATM   20  C   UNK N   1      33.281  15.440   4.276  0.00  0.00     0.019 C 
ENDBRANCH   9  17
ENDBRANCH   4   5
ENDBRANCH   1   4
BRANCH   1  21
HETATM   21  S   UNK N   1      35.902  15.780  10.625  0.00  0.00    -0.109 SA
BRANCH  21  22
HETATM   22  C   UNK N   1      35.639  14.191  11.439  0.00  0.00     0.003 A 
HETATM   23  C   UNK N   1      35.868  14.138  12.807  0.00  0.00     0.029 A 
HETATM   24  C   UNK N   1      35.708  12.954  13.534  0.00  0.00    -0.016 A 
HETATM   25  C   UNK N   1      35.293  11.785  12.851  0.00  0.00     0.079 A 
HETATM   26  C   UNK N   1      35.055  11.819  11.454  0.00  0.00    -0.016 A 
HETATM   27  C   UNK N   1      35.246  13.030  10.764  0.00  0.00     0.029 A 
BRANCH  24  28
HETATM   28  C   UNK N   1      35.986  12.944  15.033  0.00  0.00    -0.021 C 
HETATM   29  C   UNK N   1      36.788  11.712  15.408  0.00  0.00     0.019 C 
HETATM   30  C   UNK N   1      34.712  12.929  15.870  0.00  0.00     0.019 C 
HETATM   31  C   UNK N   1      36.768  14.185  15.424  0.00  0.00     0.019 C 
ENDBRANCH  24  28
BRANCH  25  32
HETATM   32  O   UNK N   1      35.125  10.636  13.533  0.00  0.00    -0.360 OA
HETATM   33  H   UNK N   1      35.845  10.044  13.639  0.00  0.00     0.217 HD
ENDBRANCH  25  32
BRANCH  26  34
HETATM   34  C   UNK N   1      34.594  10.571  10.706  0.00  0.00    -0.021 C 
HETATM   35  C   UNK N   1      34.123  10.939   9.310  0.00  0.00     0.019 C 
HETATM   36  C   UNK N   1      33.444   9.853  11.402  0.00  0.00     0.019 C 
HETATM   37  C   UNK N   1      35.741   9.580  10.592  0.00  0.00     0.019 C 
ENDBRANCH  26  34
ENDBRANCH  21  22
ENDBRANCH   1  21
TORSDOF 10
ENDMDL
MODEL 8
REMARK VINA RESULT:      -6.5      1.285      7.401
REMARK  10 active torsions:
REMARK  status: ('A' for Active; 'I' for Inactive)
REMARK    1  A    between atoms: C_1  and  C_28 
REMARK    2  A    between atoms: C_2  and  O_32 
REMARK    3  A    between atoms: C_4  and  S_11 
REMARK    4  A    between atoms: C_5  and  C_8 
REMARK    5  A    between atoms: S_11  and  C_23 
REMARK    6  A    between atoms: S_12  and  C_13 
REMARK    7  A    between atoms: C_23  and  S_12 
REMARK    8  A    between atoms: C_15  and  O_33 
REMARK    9  A    between atoms: C_16  and  C_24 
REMARK   10  A    between atoms: C_17  and  C_20 
ROOT
HETATM    1  C   UNK N   1      28.581  14.889   3.421  0.00  0.00     0.058 C 
HETATM    2  C   UNK N   1      27.648  14.979   2.221  0.00  0.00     0.039 C 
HETATM    3  C   UNK N   1      29.446  13.659   3.230  0.00  0.00     0.039 C 
ENDROOT
BRANCH   1   4
HETATM    4  S   UNK N   1      27.683  14.799   5.026  0.00  0.00    -0.109 SA
BRANCH   4   5
HETATM    5  C   UNK N   1      26.421  15.980   4.574  0.00  0.00     0.003 A 
HETATM    6  C   UNK N   1      25.102  15.568   4.484  0.00  0.00     0.029 A 
HETATM    7  C   UNK N   1      24.065  16.483   4.269  0.00  0.00    -0.016 A 
HETATM    8  C   UNK N   1      24.390  17.869   4.147  0.00  0.00     0.079 A 
HETATM    9  C   UNK N   1      25.751  18.292   4.228  0.00  0.00    -0.016 A 
HETATM   10  C   UNK N   1      26.741  17.323   4.434  0.00  0.00     0.029 A 
BRANCH   7  11
HETATM   11  C   UNK N   1      22.646  15.910   4.209  0.00  0.00    -0.021 C 
HETATM   12  C   UNK N   1      21.865  16.374   5.429  0.00  0.00     0.019 C 
HETATM   13  C   UNK N   1      21.827  16.297   2.990  0.00  0.00     0.019 C 
HETATM   14  C   UNK N   1      22.715  14.394   4.237  0.00  0.00     0.019 C 
ENDBRANCH   7  11
BRANCH   8  15
HETATM   15  O   UNK N   1      23.415  18.773   3.959  0.00  0.00    -0.360 OA
HETATM   16  H   UNK N   1      23.515  19.602   3.535  0.00  0.00     0.217 HD
ENDBRANCH   8  15
BRANCH   9  17
HETATM   17  C   UNK N   1      26.220  19.749   4.137  0.00  0.00    -0.021 C 
HETATM   18  C   UNK N   1      25.645  20.384   2.882  0.00  0.00     0.019 C 
HETATM   19  C   UNK N   1      27.723  19.958   4.082  0.00  0.00     0.019 C 
HETATM   20  C   UNK N   1      25.704  20.523   5.338  0.00  0.00     0.019 C 
ENDBRANCH   9  17
ENDBRANCH   4   5
ENDBRANCH   1   4
BRANCH   1  21
HETATM   21  S   UNK N   1      29.750  16.292   3.486  0.00  0.00    -0.109 SA
BRANCH  21  22
HETATM   22  C   UNK N   1      30.197  16.407   5.231  0.00  0.00     0.003 A 
HETATM   23  C   UNK N   1      31.264  15.629   5.661  0.00  0.00     0.029 A 
HETATM   24  C   UNK N   1      31.685  15.632   6.994  0.00  0.00    -0.016 A 
HETATM   25  C   UNK N   1      31.007  16.459   7.923  0.00  0.00     0.079 A 
HETATM   26  C   UNK N   1      29.916  17.260   7.503  0.00  0.00    -0.016 A 
HETATM   27  C   UNK N   1      29.519  17.210   6.154  0.00  0.00     0.029 A 
BRANCH  24  28
HETATM   28  C   UNK N   1      32.852  14.749   7.420  0.00  0.00    -0.021 C 
HETATM   29  C   UNK N   1      33.134  13.704   6.355  0.00  0.00     0.019 C 
HETATM   30  C   UNK N   1      32.587  14.007   8.725  0.00  0.00     0.019 C 
HETATM   31  C   UNK N   1      34.095  15.596   7.627  0.00  0.00     0.019 C 
ENDBRANCH  24  28
BRANCH  25  32
HETATM   32  O   UNK N   1      31.401  16.483   9.210  0.00  0.00    -0.360 OA
HETATM   33  H   UNK N   1      32.255  16.800   9.434  0.00  0.00     0.217 HD
ENDBRANCH  25  32
BRANCH  26  34
HETATM   34  C   UNK N   1      29.183  18.167   8.488  0.00  0.00    -0.021 C 
HETATM   35  C   UNK N   1      28.268  19.123   7.742  0.00  0.00     0.019 C 
HETATM   36  C   UNK N   1      30.130  19.008   9.336  0.00  0.00     0.019 C 
HETATM   37  C   UNK N   1      28.346  17.330   9.441  0.00  0.00     0.019 C 
ENDBRANCH  26  34
ENDBRANCH  21  22
ENDBRANCH   1  21
TORSDOF 10
ENDMDL
MODEL 9
REMARK VINA RESULT:      -6.4      4.856     10.427
REMARK  10 active torsions:
REMARK  status: ('A' for Active; 'I' for Inactive)
REMARK    1  A    between atoms: C_1  and  C_28 
REMARK    2  A    between atoms: C_2  and  O_32 
REMARK    3  A    between atoms: C_4  and  S_11 
REMARK    4  A    between atoms: C_5  and  C_8 
REMARK    5  A    between atoms: S_11  and  C_23 
REMARK    6  A    between atoms: S_12  and  C_13 
REMARK    7  A    between atoms: C_23  and  S_12 
REMARK    8  A    between atoms: C_15  and  O_33 
REMARK    9  A    between atoms: C_16  and  C_24 
REMARK   10  A    between atoms: C_17  and  C_20 
ROOT
HETATM    1  C   UNK N   1      34.604  15.573   9.419  0.00  0.00     0.058 C 
HETATM    2  C   UNK N   1      34.521  14.632   8.225  0.00  0.00     0.039 C 
HETATM    3  C   UNK N   1      33.504  15.176  10.385  0.00  0.00     0.039 C 
ENDROOT
BRANCH   1   4
HETATM    4  S   UNK N   1      34.437  17.346   8.951  0.00  0.00    -0.109 SA
BRANCH   4   5
HETATM    5  C   UNK N   1      32.939  17.124   8.002  0.00  0.00     0.003 A 
HETATM    6  C   UNK N   1      31.729  17.539   8.531  0.00  0.00     0.029 A 
HETATM    7  C   UNK N   1      30.553  17.511   7.771  0.00  0.00    -0.016 A 
HETATM    8  C   UNK N   1      30.623  17.049   6.421  0.00  0.00     0.079 A 
HETATM    9  C   UNK N   1      31.869  16.611   5.879  0.00  0.00    -0.016 A 
HETATM   10  C   UNK N   1      33.005  16.655   6.697  0.00  0.00     0.029 A 
BRANCH   7  11
HETATM   11  C   UNK N   1      29.281  18.014   8.458  0.00  0.00    -0.021 C 
HETATM   12  C   UNK N   1      28.657  19.118   7.617  0.00  0.00     0.019 C 
HETATM   13  C   UNK N   1      28.198  16.973   8.687  0.00  0.00     0.019 C 
HETATM   14  C   UNK N   1      29.637  18.593   9.815  0.00  0.00     0.019 C 
ENDBRANCH   7  11
BRANCH   8  15
HETATM   15  O   UNK N   1      29.516  17.029   5.660  0.00  0.00    -0.360 OA
HETATM   16  H   UNK N   1      28.752  16.512   5.822  0.00  0.00     0.217 HD
ENDBRANCH   8  15
BRANCH   9  17
HETATM   17  C   UNK N   1      32.073  16.120   4.442  0.00  0.00    -0.021 C 
HETATM   18  C   UNK N   1      32.055  17.311   3.497  0.00  0.00     0.019 C 
HETATM   19  C   UNK N   1      31.036  15.139   3.924  0.00  0.00     0.019 C 
HETATM   20  C   UNK N   1      33.428  15.442   4.324  0.00  0.00     0.019 C 
ENDBRANCH   9  17
ENDBRANCH   4   5
ENDBRANCH   1   4
BRANCH   1  21
HETATM   21  S   UNK N   1      36.160  15.362  10.352  0.00  0.00    -0.109 SA
BRANCH  21  22
HETATM   22  C   UNK N   1      35.851  13.924  11.397  0.00  0.00     0.003 A 
HETATM   23  C   UNK N   1      35.439  12.759  10.762  0.00  0.00     0.029 A 
HETATM   24  C   UNK N   1      35.159  11.592  11.479  0.00  0.00    -0.016 A 
HETATM   25  C   UNK N   1      35.311  11.601  12.887  0.00  0.00     0.079 A 
HETATM   26  C   UNK N   1      35.731  12.780  13.552  0.00  0.00    -0.016 A 
HETATM   27  C   UNK N   1      35.984  13.935  12.790  0.00  0.00     0.029 A 
BRANCH  24  28
HETATM   28  C   UNK N   1      34.696  10.343  10.737  0.00  0.00    -0.021 C 
HETATM   29  C   UNK N   1      33.387   9.842  11.321  0.00  0.00     0.019 C 
HETATM   30  C   UNK N   1      35.699   9.199  10.821  0.00  0.00     0.019 C 
HETATM   31  C   UNK N   1      34.494  10.658   9.265  0.00  0.00     0.019 C 
ENDBRANCH  24  28
BRANCH  25  32
HETATM   32  O   UNK N   1      35.054  10.485  13.595  0.00  0.00    -0.360 OA
HETATM   33  H   UNK N   1      35.158   9.642  13.197  0.00  0.00     0.217 HD
ENDBRANCH  25  32
BRANCH  26  34
HETATM   34  C   UNK N   1      35.912  12.803  15.068  0.00  0.00    -0.021 C 
HETATM   35  C   UNK N   1      36.719  14.020  15.483  0.00  0.00     0.019 C 
HETATM   36  C   UNK N   1      36.637  11.571  15.596  0.00  0.00     0.019 C 
HETATM   37  C   UNK N   1      34.556  12.857  15.753  0.00  0.00     0.019 C 
ENDBRANCH  26  34
ENDBRANCH  21  22
ENDBRANCH   1  21
TORSDOF 10
ENDMDL
