MODEL 1
REMARK VINA RESULT:      -7.1      0.000      0.000
REMARK  6 active torsions:
REMARK  status: ('A' for Active; 'I' for Inactive)
REMARK    1  A    between atoms: O_2  and  C_16 
REMARK       I    between atoms: N_4  and  C_11 
REMARK    2  A    between atoms: C_11  and  C_14 
REMARK    3  A    between atoms: C_14  and  C_15 
REMARK    4  A    between atoms: C_15  and  C_16 
REMARK    5  A    between atoms: C_15  and  C_17 
REMARK    6  A    between atoms: C_17  and  C_18 
ROOT
HETATM    1  C   UNK N   1      29.752  22.613  -2.739  0.00  0.00     0.118 C 
ENDROOT
BRANCH   1   2
HETATM    2  C   UNK N   1      29.860  24.092  -3.108  0.00  0.00     0.220 C 
HETATM    3  O   UNK N   1      30.878  24.718  -2.860  0.00  0.00    -0.273 OA
HETATM    4  N   UNK N   1      28.847  24.715  -3.764  0.00  0.00    -0.351 N 
HETATM    5  C   UNK N   1      28.990  26.058  -4.282  0.00  0.00     0.130 C 
HETATM    6  C   UNK N   1      27.554  24.124  -4.024  0.00  0.00     0.130 C 
HETATM    7  C   UNK N   1      27.787  26.155  -5.194  0.00  0.00     0.009 C 
HETATM    8  C   UNK N   1      26.757  25.360  -4.417  0.00  0.00     0.009 C 
HETATM    9  C   UNK N   1      27.277  27.556  -5.498  0.00  0.00     0.007 C 
HETATM   10  C   UNK N   1      25.495  25.174  -5.247  0.00  0.00     0.007 C 
HETATM   11  C   UNK N   1      24.937  26.566  -5.594  0.00  0.00     0.000 C 
HETATM   12  C   UNK N   1      25.983  27.437  -6.314  0.00  0.00     0.000 C 
ENDBRANCH   1   2
BRANCH   1  13
HETATM   13  C   UNK N   1      30.448  21.555  -3.646  0.00  0.00     0.096 C 
BRANCH  13  14
HETATM   14  C   UNK N   1      31.814  21.186  -3.109  0.00  0.00     0.144 C 
HETATM   15  O   UNK N   1      32.252  21.717  -2.099  0.00  0.00    -0.650 OA
BRANCH  14  16
HETATM   16  O   UNK N   1      32.539  20.221  -3.705  0.00  0.00    -0.776 OA
HETATM   17  H   UNK N   1      32.271  19.878  -4.535  0.00  0.00     0.167 HD
ENDBRANCH  14  16
ENDBRANCH  13  14
BRANCH  13  18
HETATM   18  C   UNK N   1      30.491  22.051  -5.104  0.00  0.00     0.054 C 
BRANCH  18  19
HETATM   19  C   UNK N   1      29.650  21.420  -6.161  0.00  0.00    -0.057 A 
HETATM   20  C   UNK N   1      28.607  22.171  -6.712  0.00  0.00     0.007 A 
HETATM   21  C   UNK N   1      27.857  21.664  -7.775  0.00  0.00     0.001 A 
HETATM   22  C   UNK N   1      28.155  20.403  -8.298  0.00  0.00     0.000 A 
HETATM   23  C   UNK N   1      29.204  19.652  -7.757  0.00  0.00     0.001 A 
HETATM   24  C   UNK N   1      29.958  20.166  -6.698  0.00  0.00     0.007 A 
ENDBRANCH  18  19
ENDBRANCH  13  18
ENDBRANCH   1  13
TORSDOF 6
ENDMDL
MODEL 2
REMARK VINA RESULT:      -6.9      2.886      6.931
REMARK  6 active torsions:
REMARK  status: ('A' for Active; 'I' for Inactive)
REMARK    1  A    between atoms: O_2  and  C_16 
REMARK       I    between atoms: N_4  and  C_11 
REMARK    2  A    between atoms: C_11  and  C_14 
REMARK    3  A    between atoms: C_14  and  C_15 
REMARK    4  A    between atoms: C_15  and  C_16 
REMARK    5  A    between atoms: C_15  and  C_17 
REMARK    6  A    between atoms: C_17  and  C_18 
ROOT
HETATM    1  C   UNK N   1      27.232  25.159  -4.290  0.00  0.00     0.118 C 
ENDROOT
BRANCH   1   2
HETATM    2  C   UNK N   1      27.848  24.140  -3.330  0.00  0.00     0.220 C 
HETATM    3  O   UNK N   1      27.217  23.739  -2.366  0.00  0.00    -0.273 OA
HETATM    4  N   UNK N   1      29.084  23.629  -3.569  0.00  0.00    -0.351 N 
HETATM    5  C   UNK N   1      29.618  22.538  -2.783  0.00  0.00     0.130 C 
HETATM    6  C   UNK N   1      29.975  24.090  -4.608  0.00  0.00     0.130 C 
HETATM    7  C   UNK N   1      30.800  22.114  -3.627  0.00  0.00     0.009 C 
HETATM    8  C   UNK N   1      31.281  23.449  -4.161  0.00  0.00     0.009 C 
HETATM    9  C   UNK N   1      31.920  21.381  -2.906  0.00  0.00     0.007 C 
HETATM   10  C   UNK N   1      32.378  23.241  -5.195  0.00  0.00     0.007 C 
HETATM   11  C   UNK N   1      33.540  22.491  -4.521  0.00  0.00     0.000 C 
HETATM   12  C   UNK N   1      33.076  21.164  -3.893  0.00  0.00     0.000 C 
ENDBRANCH   1   2
BRANCH   1  13
HETATM   13  C   UNK N   1      25.867  24.831  -4.965  0.00  0.00     0.096 C 
BRANCH  13  14
HETATM   14  C   UNK N   1      26.021  23.752  -6.016  0.00  0.00     0.144 C 
HETATM   15  O   UNK N   1      25.111  22.971  -6.246  0.00  0.00    -0.650 OA
BRANCH  14  16
HETATM   16  O   UNK N   1      27.145  23.682  -6.755  0.00  0.00    -0.776 OA
HETATM   17  H   UNK N   1      27.397  22.871  -7.149  0.00  0.00     0.167 HD
ENDBRANCH  14  16
ENDBRANCH  13  14
BRANCH  13  18
HETATM   18  C   UNK N   1      25.224  26.117  -5.516  0.00  0.00     0.054 C 
BRANCH  18  19
HETATM   19  C   UNK N   1      25.889  27.442  -5.362  0.00  0.00    -0.057 A 
HETATM   20  C   UNK N   1      25.601  28.197  -4.220  0.00  0.00     0.007 A 
HETATM   21  C   UNK N   1      26.275  29.396  -3.979  0.00  0.00     0.001 A 
HETATM   22  C   UNK N   1      27.249  29.840  -4.877  0.00  0.00     0.000 A 
HETATM   23  C   UNK N   1      27.547  29.084  -6.015  0.00  0.00     0.001 A 
HETATM   24  C   UNK N   1      26.875  27.881  -6.251  0.00  0.00     0.007 A 
ENDBRANCH  18  19
ENDBRANCH  13  18
ENDBRANCH   1  13
TORSDOF 6
ENDMDL
MODEL 3
REMARK VINA RESULT:      -6.8     17.880     21.085
REMARK  6 active torsions:
REMARK  status: ('A' for Active; 'I' for Inactive)
REMARK    1  A    between atoms: O_2  and  C_16 
REMARK       I    between atoms: N_4  and  C_11 
REMARK    2  A    between atoms: C_11  and  C_14 
REMARK    3  A    between atoms: C_14  and  C_15 
REMARK    4  A    between atoms: C_15  and  C_16 
REMARK    5  A    between atoms: C_15  and  C_17 
REMARK    6  A    between atoms: C_17  and  C_18 
ROOT
HETATM    1  C   UNK N   1      34.998  13.457  12.222  0.00  0.00     0.118 C 
ENDROOT
BRANCH   1   2
HETATM    2  C   UNK N   1      35.306  14.894  11.802  0.00  0.00     0.220 C 
HETATM    3  O   UNK N   1      36.092  15.571  12.445  0.00  0.00    -0.273 OA
HETATM    4  N   UNK N   1      34.749  15.418  10.680  0.00  0.00    -0.351 N 
HETATM    5  C   UNK N   1      35.156  16.706  10.161  0.00  0.00     0.130 C 
HETATM    6  C   UNK N   1      33.729  14.769   9.891  0.00  0.00     0.130 C 
HETATM    7  C   UNK N   1      34.545  16.677   8.778  0.00  0.00     0.009 C 
HETATM    8  C   UNK N   1      33.249  15.935   9.039  0.00  0.00     0.009 C 
HETATM    9  C   UNK N   1      34.278  18.025   8.126  0.00  0.00     0.007 C 
HETATM   10  C   UNK N   1      32.540  15.631   7.727  0.00  0.00     0.007 C 
HETATM   11  C   UNK N   1      32.252  16.964   7.015  0.00  0.00     0.000 C 
HETATM   12  C   UNK N   1      33.535  17.788   6.803  0.00  0.00     0.000 C 
ENDBRANCH   1   2
BRANCH   1  13
HETATM   13  C   UNK N   1      35.720  12.863  13.467  0.00  0.00     0.096 C 
BRANCH  13  14
HETATM   14  C   UNK N   1      36.908  12.016  13.060  0.00  0.00     0.144 C 
HETATM   15  O   UNK N   1      36.934  10.820  13.305  0.00  0.00    -0.650 OA
BRANCH  14  16
HETATM   16  O   UNK N   1      37.923  12.564  12.365  0.00  0.00    -0.776 OA
HETATM   17  H   UNK N   1      38.618  12.024  12.046  0.00  0.00     0.167 HD
ENDBRANCH  14  16
ENDBRANCH  13  14
BRANCH  13  18
HETATM   18  C   UNK N   1      34.715  12.100  14.351  0.00  0.00     0.054 C 
BRANCH  18  19
HETATM   19  C   UNK N   1      34.853  12.076  15.835  0.00  0.00    -0.057 A 
HETATM   20  C   UNK N   1      35.091  10.846  16.458  0.00  0.00     0.007 A 
HETATM   21  C   UNK N   1      35.330  10.786  17.832  0.00  0.00     0.001 A 
HETATM   22  C   UNK N   1      35.339  11.960  18.589  0.00  0.00     0.000 A 
HETATM   23  C   UNK N   1      35.111  13.193  17.970  0.00  0.00     0.001 A 
HETATM   24  C   UNK N   1      34.880  13.251  16.593  0.00  0.00     0.007 A 
ENDBRANCH  18  19
ENDBRANCH  13  18
ENDBRANCH   1  13
TORSDOF 6
ENDMDL
MODEL 4
REMARK VINA RESULT:      -6.8     11.418     14.276
REMARK  6 active torsions:
REMARK  status: ('A' for Active; 'I' for Inactive)
REMARK    1  A    between atoms: O_2  and  C_16 
REMARK       I    between atoms: N_4  and  C_11 
REMARK    2  A    between atoms: C_11  and  C_14 
REMARK    3  A    between atoms: C_14  and  C_15 
REMARK    4  A    between atoms: C_15  and  C_16 
REMARK    5  A    between atoms: C_15  and  C_17 
REMARK    6  A    between atoms: C_17  and  C_18 
ROOT
HETATM    1  C   UNK N   1      31.101  17.946   8.591  0.00  0.00     0.118 C 
ENDROOT
BRANCH   1   2
HETATM    2  C   UNK N   1      31.642  16.554   8.264  0.00  0.00     0.220 C 
HETATM    3  O   UNK N   1      31.694  15.693   9.127  0.00  0.00    -0.273 OA
HETATM    4  N   UNK N   1      32.021  16.242   6.998  0.00  0.00    -0.351 N 
HETATM    5  C   UNK N   1      32.367  14.889   6.620  0.00  0.00     0.130 C 
HETATM    6  C   UNK N   1      32.109  17.190   5.912  0.00  0.00     0.130 C 
HETATM    7  C   UNK N   1      32.362  14.989   5.112  0.00  0.00     0.009 C 
HETATM    8  C   UNK N   1      32.915  16.385   4.902  0.00  0.00     0.009 C 
HETATM    9  C   UNK N   1      33.189  13.958   4.360  0.00  0.00     0.007 C 
HETATM   10  C   UNK N   1      32.831  16.773   3.433  0.00  0.00     0.007 C 
HETATM   11  C   UNK N   1      33.646  15.753   2.618  0.00  0.00     0.000 C 
HETATM   12  C   UNK N   1      33.168  14.311   2.866  0.00  0.00     0.000 C 
ENDBRANCH   1   2
BRANCH   1  13
HETATM   13  C   UNK N   1      29.561  18.181   8.570  0.00  0.00     0.096 C 
BRANCH  13  14
HETATM   14  C   UNK N   1      28.876  17.426   9.689  0.00  0.00     0.144 C 
HETATM   15  O   UNK N   1      27.704  17.095   9.593  0.00  0.00    -0.650 OA
BRANCH  14  16
HETATM   16  O   UNK N   1      29.572  17.054  10.780  0.00  0.00    -0.776 OA
HETATM   17  H   UNK N   1      30.348  17.519  11.023  0.00  0.00     0.167 HD
ENDBRANCH  14  16
ENDBRANCH  13  14
BRANCH  13  18
HETATM   18  C   UNK N   1      28.990  17.842   7.180  0.00  0.00     0.054 C 
BRANCH  18  19
HETATM   19  C   UNK N   1      28.223  18.849   6.393  0.00  0.00    -0.057 A 
HETATM   20  C   UNK N   1      27.632  19.915   7.079  0.00  0.00     0.007 A 
HETATM   21  C   UNK N   1      26.992  20.938   6.377  0.00  0.00     0.001 A 
HETATM   22  C   UNK N   1      26.947  20.902   4.981  0.00  0.00     0.000 A 
HETATM   23  C   UNK N   1      27.544  19.843   4.290  0.00  0.00     0.001 A 
HETATM   24  C   UNK N   1      28.192  18.824   4.995  0.00  0.00     0.007 A 
ENDBRANCH  18  19
ENDBRANCH  13  18
ENDBRANCH   1  13
TORSDOF 6
ENDMDL
MODEL 5
REMARK VINA RESULT:      -6.7     14.883     18.589
REMARK  6 active torsions:
REMARK  status: ('A' for Active; 'I' for Inactive)
REMARK    1  A    between atoms: O_2  and  C_16 
REMARK       I    between atoms: N_4  and  C_11 
REMARK    2  A    between atoms: C_11  and  C_14 
REMARK    3  A    between atoms: C_14  and  C_15 
REMARK    4  A    between atoms: C_15  and  C_16 
REMARK    5  A    between atoms: C_15  and  C_17 
REMARK    6  A    between atoms: C_17  and  C_18 
ROOT
HETATM    1  C   UNK N   1      35.034  15.674   8.528  0.00  0.00     0.118 C 
ENDROOT
BRANCH   1   2
HETATM    2  C   UNK N   1      35.306  16.085   9.975  0.00  0.00     0.220 C 
HETATM    3  O   UNK N   1      35.141  17.240  10.330  0.00  0.00    -0.273 OA
HETATM    4  N   UNK N   1      35.682  15.160  10.895  0.00  0.00    -0.351 N 
HETATM    5  C   UNK N   1      35.774  15.482  12.302  0.00  0.00     0.130 C 
HETATM    6  C   UNK N   1      36.013  13.787  10.589  0.00  0.00     0.130 C 
HETATM    7  C   UNK N   1      35.868  14.104  12.918  0.00  0.00     0.009 C 
HETATM    8  C   UNK N   1      36.697  13.369  11.883  0.00  0.00     0.009 C 
HETATM    9  C   UNK N   1      36.514  14.018  14.292  0.00  0.00     0.007 C 
HETATM   10  C   UNK N   1      36.770  11.887  12.218  0.00  0.00     0.007 C 
HETATM   11  C   UNK N   1      37.409  11.738  13.610  0.00  0.00     0.000 C 
HETATM   12  C   UNK N   1      36.643  12.538  14.679  0.00  0.00     0.000 C 
ENDBRANCH   1   2
BRANCH   1  13
HETATM   13  C   UNK N   1      33.828  16.310   7.776  0.00  0.00     0.096 C 
BRANCH  13  14
HETATM   14  C   UNK N   1      34.203  17.646   7.169  0.00  0.00     0.144 C 
HETATM   15  O   UNK N   1      34.144  17.821   5.962  0.00  0.00    -0.650 OA
BRANCH  14  16
HETATM   16  O   UNK N   1      34.547  18.677   7.964  0.00  0.00    -0.776 OA
HETATM   17  H   UNK N   1      33.889  19.258   8.290  0.00  0.00     0.167 HD
ENDBRANCH  14  16
ENDBRANCH  13  14
BRANCH  13  18
HETATM   18  C   UNK N   1      32.605  16.397   8.709  0.00  0.00     0.054 C 
BRANCH  18  19
HETATM   19  C   UNK N   1      31.341  17.053   8.268  0.00  0.00    -0.057 A 
HETATM   20  C   UNK N   1      30.656  16.503   7.180  0.00  0.00     0.007 A 
HETATM   21  C   UNK N   1      29.416  17.016   6.794  0.00  0.00     0.001 A 
HETATM   22  C   UNK N   1      28.852  18.080   7.503  0.00  0.00     0.000 A 
HETATM   23  C   UNK N   1      29.528  18.627   8.598  0.00  0.00     0.001 A 
HETATM   24  C   UNK N   1      30.766  18.105   8.987  0.00  0.00     0.007 A 
ENDBRANCH  18  19
ENDBRANCH  13  18
ENDBRANCH   1  13
TORSDOF 6
ENDMDL
MODEL 6
REMARK VINA RESULT:      -6.7     15.167     18.638
REMARK  6 active torsions:
REMARK  status: ('A' for Active; 'I' for Inactive)
REMARK    1  A    between atoms: O_2  and  C_16 
REMARK       I    between atoms: N_4  and  C_11 
REMARK    2  A    between atoms: C_11  and  C_14 
REMARK    3  A    between atoms: C_14  and  C_15 
REMARK    4  A    between atoms: C_15  and  C_16 
REMARK    5  A    between atoms: C_15  and  C_17 
REMARK    6  A    between atoms: C_17  and  C_18 
ROOT
HETATM    1  C   UNK N   1      33.933  14.638  10.200  0.00  0.00     0.118 C 
ENDROOT
BRANCH   1   2
HETATM    2  C   UNK N   1      34.509  14.234   8.843  0.00  0.00     0.220 C 
HETATM    3  O   UNK N   1      35.312  13.320   8.760  0.00  0.00    -0.273 OA
HETATM    4  N   UNK N   1      34.094  14.852   7.707  0.00  0.00    -0.351 N 
HETATM    5  C   UNK N   1      34.484  14.377   6.398  0.00  0.00     0.130 C 
HETATM    6  C   UNK N   1      33.233  16.012   7.673  0.00  0.00     0.130 C 
HETATM    7  C   UNK N   1      33.524  15.132   5.507  0.00  0.00     0.009 C 
HETATM    8  C   UNK N   1      33.426  16.461   6.231  0.00  0.00     0.009 C 
HETATM    9  C   UNK N   1      33.952  15.331   4.061  0.00  0.00     0.007 C 
HETATM   10  C   UNK N   1      32.355  17.334   5.594  0.00  0.00     0.007 C 
HETATM   11  C   UNK N   1      32.732  17.561   4.120  0.00  0.00     0.000 C 
HETATM   12  C   UNK N   1      32.921  16.232   3.367  0.00  0.00     0.000 C 
ENDBRANCH   1   2
BRANCH   1  13
HETATM   13  C   UNK N   1      34.903  15.118  11.320  0.00  0.00     0.096 C 
BRANCH  13  14
HETATM   14  C   UNK N   1      35.852  16.180  10.804  0.00  0.00     0.144 C 
HETATM   15  O   UNK N   1      35.432  17.266  10.435  0.00  0.00    -0.650 OA
BRANCH  14  16
HETATM   16  O   UNK N   1      37.180  15.959  10.805  0.00  0.00    -0.776 OA
HETATM   17  H   UNK N   1      37.622  15.759  11.606  0.00  0.00     0.167 HD
ENDBRANCH  14  16
ENDBRANCH  13  14
BRANCH  13  18
HETATM   18  C   UNK N   1      35.633  13.914  11.944  0.00  0.00     0.054 C 
BRANCH  18  19
HETATM   19  C   UNK N   1      35.667  13.710  13.420  0.00  0.00    -0.057 A 
HETATM   20  C   UNK N   1      34.833  12.732  13.972  0.00  0.00     0.007 A 
HETATM   21  C   UNK N   1      34.903  12.432  15.334  0.00  0.00     0.001 A 
HETATM   22  C   UNK N   1      35.815  13.106  16.149  0.00  0.00     0.000 A 
HETATM   23  C   UNK N   1      36.658  14.078  15.601  0.00  0.00     0.001 A 
HETATM   24  C   UNK N   1      36.592  14.371  14.235  0.00  0.00     0.007 A 
ENDBRANCH  18  19
ENDBRANCH  13  18
ENDBRANCH   1  13
TORSDOF 6
ENDMDL
MODEL 7
REMARK VINA RESULT:      -6.7      1.761      2.620
REMARK  6 active torsions:
REMARK  status: ('A' for Active; 'I' for Inactive)
REMARK    1  A    between atoms: O_2  and  C_16 
REMARK       I    between atoms: N_4  and  C_11 
REMARK    2  A    between atoms: C_11  and  C_14 
REMARK    3  A    between atoms: C_14  and  C_15 
REMARK    4  A    between atoms: C_15  and  C_16 
REMARK    5  A    between atoms: C_15  and  C_17 
REMARK    6  A    between atoms: C_17  and  C_18 
ROOT
HETATM    1  C   UNK N   1      29.796  24.148  -4.091  0.00  0.00     0.118 C 
ENDROOT
BRANCH   1   2
HETATM    2  C   UNK N   1      28.381  24.690  -3.893  0.00  0.00     0.220 C 
HETATM    3  O   UNK N   1      27.468  23.938  -3.590  0.00  0.00    -0.273 OA
HETATM    4  N   UNK N   1      28.131  26.021  -3.998  0.00  0.00    -0.351 N 
HETATM    5  C   UNK N   1      26.846  26.583  -3.644  0.00  0.00     0.130 C 
HETATM    6  C   UNK N   1      29.091  27.001  -4.451  0.00  0.00     0.130 C 
HETATM    7  C   UNK N   1      27.171  28.058  -3.588  0.00  0.00     0.009 C 
HETATM    8  C   UNK N   1      28.175  28.187  -4.718  0.00  0.00     0.009 C 
HETATM    9  C   UNK N   1      26.007  29.017  -3.784  0.00  0.00     0.007 C 
HETATM   10  C   UNK N   1      28.780  29.583  -4.731  0.00  0.00     0.007 C 
HETATM   11  C   UNK N   1      27.642  30.601  -4.917  0.00  0.00     0.000 C 
HETATM   12  C   UNK N   1      26.558  30.449  -3.835  0.00  0.00     0.000 C 
ENDBRANCH   1   2
BRANCH   1  13
HETATM   13  C   UNK N   1      30.083  22.650  -3.774  0.00  0.00     0.096 C 
BRANCH  13  14
HETATM   14  C   UNK N   1      30.821  22.500  -2.461  0.00  0.00     0.144 C 
HETATM   15  O   UNK N   1      31.888  21.907  -2.409  0.00  0.00    -0.650 OA
BRANCH  14  16
HETATM   16  O   UNK N   1      30.337  23.073  -1.343  0.00  0.00    -0.776 OA
HETATM   17  H   UNK N   1      30.358  22.608  -0.530  0.00  0.00     0.167 HD
ENDBRANCH  14  16
ENDBRANCH  13  14
BRANCH  13  18
HETATM   18  C   UNK N   1      30.819  21.989  -4.955  0.00  0.00     0.054 C 
BRANCH  18  19
HETATM   19  C   UNK N   1      30.078  21.227  -5.999  0.00  0.00    -0.057 A 
HETATM   20  C   UNK N   1      28.996  21.850  -6.630  0.00  0.00     0.007 A 
HETATM   21  C   UNK N   1      28.336  21.219  -7.685  0.00  0.00     0.001 A 
HETATM   22  C   UNK N   1      28.761  19.961  -8.120  0.00  0.00     0.000 A 
HETATM   23  C   UNK N   1      29.848  19.337  -7.500  0.00  0.00     0.001 A 
HETATM   24  C   UNK N   1      30.513  19.975  -6.448  0.00  0.00     0.007 A 
ENDBRANCH  18  19
ENDBRANCH  13  18
ENDBRANCH   1  13
TORSDOF 6
ENDMDL
MODEL 8
REMARK VINA RESULT:      -6.7     14.314     18.027
REMARK  6 active torsions:
REMARK  status: ('A' for Active; 'I' for Inactive)
REMARK    1  A    between atoms: O_2  and  C_16 
REMARK       I    between atoms: N_4  and  C_11 
REMARK    2  A    between atoms: C_11  and  C_14 
REMARK    3  A    between atoms: C_14  and  C_15 
REMARK    4  A    between atoms: C_15  and  C_16 
REMARK    5  A    between atoms: C_15  and  C_17 
REMARK    6  A    between atoms: C_17  and  C_18 
ROOT
HETATM    1  C   UNK N   1      33.425  15.893   8.999  0.00  0.00     0.118 C 
ENDROOT
BRANCH   1   2
HETATM    2  C   UNK N   1      33.891  14.441   9.111  0.00  0.00     0.220 C 
HETATM    3  O   UNK N   1      33.697  13.658   8.195  0.00  0.00    -0.273 OA
HETATM    4  N   UNK N   1      34.572  14.019  10.207  0.00  0.00    -0.351 N 
HETATM    5  C   UNK N   1      35.179  12.707  10.265  0.00  0.00     0.130 C 
HETATM    6  C   UNK N   1      34.776  14.808  11.399  0.00  0.00     0.130 C 
HETATM    7  C   UNK N   1      36.079  12.847  11.472  0.00  0.00     0.009 C 
HETATM    8  C   UNK N   1      35.238  13.732  12.372  0.00  0.00     0.009 C 
HETATM    9  C   UNK N   1      36.466  11.560  12.183  0.00  0.00     0.007 C 
HETATM   10  C   UNK N   1      36.038  14.155  13.595  0.00  0.00     0.007 C 
HETATM   11  C   UNK N   1      36.467  12.886  14.353  0.00  0.00     0.000 C 
HETATM   12  C   UNK N   1      37.256  11.921  13.449  0.00  0.00     0.000 C 
ENDBRANCH   1   2
BRANCH   1  13
HETATM   13  C   UNK N   1      34.194  16.862   8.053  0.00  0.00     0.096 C 
BRANCH  13  14
HETATM   14  C   UNK N   1      34.897  17.950   8.837  0.00  0.00     0.144 C 
HETATM   15  O   UNK N   1      35.398  17.711   9.925  0.00  0.00    -0.650 OA
BRANCH  14  16
HETATM   16  O   UNK N   1      35.031  19.183   8.313  0.00  0.00    -0.776 OA
HETATM   17  H   UNK N   1      34.298  19.765   8.287  0.00  0.00     0.167 HD
ENDBRANCH  14  16
ENDBRANCH  13  14
BRANCH  13  18
HETATM   18  C   UNK N   1      33.245  17.418   6.974  0.00  0.00     0.054 C 
BRANCH  18  19
HETATM   19  C   UNK N   1      33.314  16.941   5.563  0.00  0.00    -0.057 A 
HETATM   20  C   UNK N   1      33.934  15.714   5.310  0.00  0.00     0.007 A 
HETATM   21  C   UNK N   1      33.933  15.176   4.022  0.00  0.00     0.001 A 
HETATM   22  C   UNK N   1      33.302  15.862   2.981  0.00  0.00     0.000 A 
HETATM   23  C   UNK N   1      32.672  17.085   3.231  0.00  0.00     0.001 A 
HETATM   24  C   UNK N   1      32.668  17.618   4.524  0.00  0.00     0.007 A 
ENDBRANCH  18  19
ENDBRANCH  13  18
ENDBRANCH   1  13
TORSDOF 6
ENDMDL
MODEL 9
REMARK VINA RESULT:      -6.7      3.271      7.050
REMARK  6 active torsions:
REMARK  status: ('A' for Active; 'I' for Inactive)
REMARK    1  A    between atoms: O_2  and  C_16 
REMARK       I    between atoms: N_4  and  C_11 
REMARK    2  A    between atoms: C_11  and  C_14 
REMARK    3  A    between atoms: C_14  and  C_15 
REMARK    4  A    between atoms: C_15  and  C_16 
REMARK    5  A    between atoms: C_15  and  C_17 
REMARK    6  A    between atoms: C_17  and  C_18 
ROOT
HETATM    1  C   UNK N   1      27.435  22.967  -7.627  0.00  0.00     0.118 C 
ENDROOT
BRANCH   1   2
HETATM    2  C   UNK N   1      28.236  21.677  -7.447  0.00  0.00     0.220 C 
HETATM    3  O   UNK N   1      28.036  20.719  -8.175  0.00  0.00    -0.273 OA
HETATM    4  N   UNK N   1      29.217  21.601  -6.511  0.00  0.00    -0.351 N 
HETATM    5  C   UNK N   1      30.108  20.464  -6.435  0.00  0.00     0.130 C 
HETATM    6  C   UNK N   1      29.485  22.618  -5.520  0.00  0.00     0.130 C 
HETATM    7  C   UNK N   1      31.190  20.992  -5.521  0.00  0.00     0.009 C 
HETATM    8  C   UNK N   1      30.382  21.846  -4.563  0.00  0.00     0.009 C 
HETATM    9  C   UNK N   1      32.008  19.956  -4.767  0.00  0.00     0.007 C 
HETATM   10  C   UNK N   1      31.307  22.631  -3.644  0.00  0.00     0.007 C 
HETATM   11  C   UNK N   1      32.171  21.628  -2.859  0.00  0.00     0.000 C 
HETATM   12  C   UNK N   1      32.947  20.687  -3.797  0.00  0.00     0.000 C 
ENDBRANCH   1   2
BRANCH   1  13
HETATM   13  C   UNK N   1      26.053  23.101  -6.922  0.00  0.00     0.096 C 
BRANCH  13  14
HETATM   14  C   UNK N   1      25.051  22.116  -7.486  0.00  0.00     0.144 C 
HETATM   15  O   UNK N   1      24.231  21.575  -6.759  0.00  0.00    -0.650 OA
BRANCH  14  16
HETATM   16  O   UNK N   1      25.013  21.872  -8.809  0.00  0.00    -0.776 OA
HETATM   17  H   UNK N   1      25.650  21.309  -9.201  0.00  0.00     0.167 HD
ENDBRANCH  14  16
ENDBRANCH  13  14
BRANCH  13  18
HETATM   18  C   UNK N   1      25.561  24.560  -6.988  0.00  0.00     0.054 C 
BRANCH  18  19
HETATM   19  C   UNK N   1      25.767  25.498  -5.848  0.00  0.00    -0.057 A 
HETATM   20  C   UNK N   1      25.181  26.766  -5.922  0.00  0.00     0.007 A 
HETATM   21  C   UNK N   1      25.257  27.642  -4.837  0.00  0.00     0.001 A 
HETATM   22  C   UNK N   1      25.914  27.248  -3.669  0.00  0.00     0.000 A 
HETATM   23  C   UNK N   1      26.493  25.978  -3.587  0.00  0.00     0.001 A 
HETATM   24  C   UNK N   1      26.409  25.100  -4.671  0.00  0.00     0.007 A 
ENDBRANCH  18  19
ENDBRANCH  13  18
ENDBRANCH   1  13
TORSDOF 6
ENDMDL
