MODEL 1
REMARK VINA RESULT:      -4.9      0.000      0.000
REMARK  10 active torsions:
REMARK  status: ('A' for Active; 'I' for Inactive)
REMARK    1  A    between atoms: C_3  and  C_1 
REMARK    2  A    between atoms: C_4  and  C_2 
REMARK    3  A    between atoms: O_8  and  C_2 
REMARK    4  A    between atoms: C_5  and  C_3 
REMARK    5  A    between atoms: C_3  and  O_9 
REMARK    6  A    between atoms: C_6  and  C_4 
REMARK    7  A    between atoms: C_4  and  O_10 
REMARK    8  A    between atoms: C_6  and  C_5 
REMARK    9  A    between atoms: C_5  and  O_11 
REMARK   10  A    between atoms: C_6  and  O_12 
ROOT
HETATM    1  C   UNK N   1      36.068  13.404  12.511  0.00  0.00     0.180 C 
ENDROOT
BRANCH   1   2
HETATM    2  C   UNK N   1      35.695  13.745  13.974  0.00  0.00     0.173 C 
BRANCH   2   3
HETATM    3  C   UNK N   1      36.780  13.286  14.952  0.00  0.00     0.198 C 
BRANCH   3   4
HETATM    4  O   UNK N   1      37.591  14.350  15.350  0.00  0.00    -0.398 OA
HETATM    5  H   UNK N   1      37.191  15.172  15.676  0.00  0.00     0.209 HD
ENDBRANCH   3   4
ENDBRANCH   2   3
BRANCH   2   6
HETATM    6  O   UNK N   1      34.513  13.094  14.331  0.00  0.00    -0.391 OA
HETATM    7  H   UNK N   1      33.721  13.186  13.780  0.00  0.00     0.210 HD
ENDBRANCH   2   6
ENDBRANCH   1   2
BRANCH   1   8
HETATM    8  C   UNK N   1      35.410  14.314  11.438  0.00  0.00     0.184 C 
BRANCH   8   9
HETATM    9  C   UNK N   1      35.978  15.752  11.363  0.00  0.00     0.210 C 
BRANCH   9  10
HETATM   10  C   UNK N   1      35.087  16.650  10.554  0.00  0.00     0.265 C 
HETATM   11  O   UNK N   1      35.506  17.705  10.097  0.00  0.00    -0.304 OA
ENDBRANCH   9  10
BRANCH   9  12
HETATM   12  O   UNK N   1      37.235  15.741  10.753  0.00  0.00    -0.386 OA
HETATM   13  H   UNK N   1      37.338  15.378   9.859  0.00  0.00     0.210 HD
ENDBRANCH   9  12
ENDBRANCH   8   9
BRANCH   8  14
HETATM   14  O   UNK N   1      34.028  14.363  11.656  0.00  0.00    -0.390 OA
HETATM   15  H   UNK N   1      33.436  13.787  11.148  0.00  0.00     0.210 HD
ENDBRANCH   8  14
ENDBRANCH   1   8
BRANCH   1  16
HETATM   16  O   UNK N   1      37.457  13.436  12.353  0.00  0.00    -0.390 OA
HETATM   17  H   UNK N   1      38.021  13.780  13.063  0.00  0.00     0.210 HD
ENDBRANCH   1  16
TORSDOF 10
ENDMDL
MODEL 2
REMARK VINA RESULT:      -4.8      1.716      3.299
REMARK  10 active torsions:
REMARK  status: ('A' for Active; 'I' for Inactive)
REMARK    1  A    between atoms: C_3  and  C_1 
REMARK    2  A    between atoms: C_4  and  C_2 
REMARK    3  A    between atoms: O_8  and  C_2 
REMARK    4  A    between atoms: C_5  and  C_3 
REMARK    5  A    between atoms: C_3  and  O_9 
REMARK    6  A    between atoms: C_6  and  C_4 
REMARK    7  A    between atoms: C_4  and  O_10 
REMARK    8  A    between atoms: C_6  and  C_5 
REMARK    9  A    between atoms: C_5  and  O_11 
REMARK   10  A    between atoms: C_6  and  O_12 
ROOT
HETATM    1  C   UNK N   1      35.717  15.655  10.574  0.00  0.00     0.180 C 
ENDROOT
BRANCH   1   2
HETATM    2  C   UNK N   1      35.153  14.838  11.762  0.00  0.00     0.173 C 
BRANCH   2   3
HETATM    3  C   UNK N   1      35.978  13.576  12.019  0.00  0.00     0.198 C 
BRANCH   3   4
HETATM    4  O   UNK N   1      37.032  13.826  12.900  0.00  0.00    -0.398 OA
HETATM    5  H   UNK N   1      37.011  14.608  13.474  0.00  0.00     0.209 HD
ENDBRANCH   3   4
ENDBRANCH   2   3
BRANCH   2   6
HETATM    6  O   UNK N   1      33.846  14.430  11.485  0.00  0.00    -0.391 OA
HETATM    7  H   UNK N   1      33.676  13.781  10.786  0.00  0.00     0.210 HD
ENDBRANCH   2   6
ENDBRANCH   1   2
BRANCH   1   8
HETATM    8  C   UNK N   1      34.876  16.898  10.175  0.00  0.00     0.184 C 
BRANCH   8   9
HETATM    9  C   UNK N   1      33.973  16.706   8.933  0.00  0.00     0.210 C 
BRANCH   9  10
HETATM   10  C   UNK N   1      33.854  17.977   8.142  0.00  0.00     0.265 C 
HETATM   11  O   UNK N   1      34.632  18.227   7.232  0.00  0.00    -0.304 OA
ENDBRANCH   9  10
BRANCH   9  12
HETATM   12  O   UNK N   1      32.686  16.331   9.327  0.00  0.00    -0.386 OA
HETATM   13  H   UNK N   1      32.566  15.665  10.023  0.00  0.00     0.210 HD
ENDBRANCH   9  12
ENDBRANCH   8   9
BRANCH   8  14
HETATM   14  O   UNK N   1      35.729  17.990   9.974  0.00  0.00    -0.390 OA
HETATM   15  H   UNK N   1      36.261  18.048   9.165  0.00  0.00     0.210 HD
ENDBRANCH   8  14
ENDBRANCH   1   8
BRANCH   1  16
HETATM   16  O   UNK N   1      37.028  16.054  10.849  0.00  0.00    -0.390 OA
HETATM   17  H   UNK N   1      37.776  15.535  10.516  0.00  0.00     0.210 HD
ENDBRANCH   1  16
TORSDOF 10
ENDMDL
MODEL 3
REMARK VINA RESULT:      -4.6      1.389      2.582
REMARK  10 active torsions:
REMARK  status: ('A' for Active; 'I' for Inactive)
REMARK    1  A    between atoms: C_3  and  C_1 
REMARK    2  A    between atoms: C_4  and  C_2 
REMARK    3  A    between atoms: O_8  and  C_2 
REMARK    4  A    between atoms: C_5  and  C_3 
REMARK    5  A    between atoms: C_3  and  O_9 
REMARK    6  A    between atoms: C_6  and  C_4 
REMARK    7  A    between atoms: C_4  and  O_10 
REMARK    8  A    between atoms: C_6  and  C_5 
REMARK    9  A    between atoms: C_5  and  O_11 
REMARK   10  A    between atoms: C_6  and  O_12 
ROOT
HETATM    1  C   UNK N   1      36.196  14.355  12.566  0.00  0.00     0.180 C 
ENDROOT
BRANCH   1   2
HETATM    2  C   UNK N   1      36.860  13.157  11.845  0.00  0.00     0.173 C 
BRANCH   2   3
HETATM    3  C   UNK N   1      37.202  12.031  12.823  0.00  0.00     0.198 C 
BRANCH   3   4
HETATM    4  O   UNK N   1      37.566  12.534  14.074  0.00  0.00    -0.398 OA
HETATM    5  H   UNK N   1      37.576  13.492  14.228  0.00  0.00     0.209 HD
ENDBRANCH   3   4
ENDBRANCH   2   3
BRANCH   2   6
HETATM    6  O   UNK N   1      38.053  13.561  11.243  0.00  0.00    -0.391 OA
HETATM    7  H   UNK N   1      38.871  13.602  11.762  0.00  0.00     0.210 HD
ENDBRANCH   2   6
ENDBRANCH   1   2
BRANCH   1   8
HETATM    8  C   UNK N   1      35.789  15.534  11.641  0.00  0.00     0.184 C 
BRANCH   8   9
HETATM    9  C   UNK N   1      34.699  15.197  10.595  0.00  0.00     0.210 C 
BRANCH   9  10
HETATM   10  C   UNK N   1      34.506  16.326   9.623  0.00  0.00     0.265 C 
HETATM   11  O   UNK N   1      34.905  17.453   9.882  0.00  0.00    -0.304 OA
ENDBRANCH   9  10
BRANCH   9  12
HETATM   12  O   UNK N   1      33.475  14.972  11.229  0.00  0.00    -0.386 OA
HETATM   13  H   UNK N   1      32.653  15.290  10.825  0.00  0.00     0.210 HD
ENDBRANCH   9  12
ENDBRANCH   8   9
BRANCH   8  14
HETATM   14  O   UNK N   1      36.927  16.030  10.995  0.00  0.00    -0.390 OA
HETATM   15  H   UNK N   1      36.931  16.134  10.030  0.00  0.00     0.210 HD
ENDBRANCH   8  14
ENDBRANCH   1   8
BRANCH   1  16
HETATM   16  O   UNK N   1      35.074  13.920  13.280  0.00  0.00    -0.390 OA
HETATM   17  H   UNK N   1      34.898  12.972  13.380  0.00  0.00     0.210 HD
ENDBRANCH   1  16
TORSDOF 10
ENDMDL
MODEL 4
REMARK VINA RESULT:      -4.6      1.003      4.343
REMARK  10 active torsions:
REMARK  status: ('A' for Active; 'I' for Inactive)
REMARK    1  A    between atoms: C_3  and  C_1 
REMARK    2  A    between atoms: C_4  and  C_2 
REMARK    3  A    between atoms: O_8  and  C_2 
REMARK    4  A    between atoms: C_5  and  C_3 
REMARK    5  A    between atoms: C_3  and  O_9 
REMARK    6  A    between atoms: C_6  and  C_4 
REMARK    7  A    between atoms: C_4  and  O_10 
REMARK    8  A    between atoms: C_6  and  C_5 
REMARK    9  A    between atoms: C_5  and  O_11 
REMARK   10  A    between atoms: C_6  and  O_12 
ROOT
HETATM    1  C   UNK N   1      36.029  14.378  12.459  0.00  0.00     0.180 C 
ENDROOT
BRANCH   1   2
HETATM    2  C   UNK N   1      35.203  14.544  11.160  0.00  0.00     0.173 C 
BRANCH   2   3
HETATM    3  C   UNK N   1      35.747  15.678  10.288  0.00  0.00     0.198 C 
BRANCH   3   4
HETATM    4  O   UNK N   1      36.936  16.194  10.805  0.00  0.00    -0.398 OA
HETATM    5  H   UNK N   1      37.782  15.992  10.374  0.00  0.00     0.209 HD
ENDBRANCH   3   4
ENDBRANCH   2   3
BRANCH   2   6
HETATM    6  O   UNK N   1      33.879  14.859  11.472  0.00  0.00    -0.391 OA
HETATM    7  H   UNK N   1      33.681  15.455  12.211  0.00  0.00     0.210 HD
ENDBRANCH   2   6
ENDBRANCH   1   2
BRANCH   1   8
HETATM    8  C   UNK N   1      35.275  13.699  13.633  0.00  0.00     0.184 C 
BRANCH   8   9
HETATM    9  C   UNK N   1      36.181  13.158  14.766  0.00  0.00     0.210 C 
BRANCH   9  10
HETATM   10  C   UNK N   1      35.408  12.966  16.039  0.00  0.00     0.265 C 
HETATM   11  O   UNK N   1      34.204  13.179  16.083  0.00  0.00    -0.304 OA
ENDBRANCH   9  10
BRANCH   9  12
HETATM   12  O   UNK N   1      37.212  14.063  15.030  0.00  0.00    -0.386 OA
HETATM   13  H   UNK N   1      37.043  15.017  14.991  0.00  0.00     0.210 HD
ENDBRANCH   9  12
ENDBRANCH   8   9
BRANCH   8  14
HETATM   14  O   UNK N   1      34.475  12.664  13.134  0.00  0.00    -0.390 OA
HETATM   15  H   UNK N   1      33.706  12.869  12.580  0.00  0.00     0.210 HD
ENDBRANCH   8  14
ENDBRANCH   1   8
BRANCH   1  16
HETATM   16  O   UNK N   1      37.202  13.665  12.189  0.00  0.00    -0.390 OA
HETATM   17  H   UNK N   1      37.965  13.740  12.784  0.00  0.00     0.210 HD
ENDBRANCH   1  16
TORSDOF 10
ENDMDL
MODEL 5
REMARK VINA RESULT:      -4.5      1.466      4.428
REMARK  10 active torsions:
REMARK  status: ('A' for Active; 'I' for Inactive)
REMARK    1  A    between atoms: C_3  and  C_1 
REMARK    2  A    between atoms: C_4  and  C_2 
REMARK    3  A    between atoms: O_8  and  C_2 
REMARK    4  A    between atoms: C_5  and  C_3 
REMARK    5  A    between atoms: C_3  and  O_9 
REMARK    6  A    between atoms: C_6  and  C_4 
REMARK    7  A    between atoms: C_4  and  O_10 
REMARK    8  A    between atoms: C_6  and  C_5 
REMARK    9  A    between atoms: C_5  and  O_11 
REMARK   10  A    between atoms: C_6  and  O_12 
ROOT
HETATM    1  C   UNK N   1      35.730  15.439  11.679  0.00  0.00     0.180 C 
ENDROOT
BRANCH   1   2
HETATM    2  C   UNK N   1      34.674  15.020  10.627  0.00  0.00     0.173 C 
BRANCH   2   3
HETATM    3  C   UNK N   1      34.588  16.032   9.482  0.00  0.00     0.198 C 
BRANCH   3   4
HETATM    4  O   UNK N   1      34.440  17.335   9.962  0.00  0.00    -0.398 OA
HETATM    5  H   UNK N   1      35.082  18.019   9.715  0.00  0.00     0.209 HD
ENDBRANCH   3   4
ENDBRANCH   2   3
BRANCH   2   6
HETATM    6  O   UNK N   1      33.411  14.951  11.216  0.00  0.00    -0.391 OA
HETATM    7  H   UNK N   1      32.619  14.867  10.663  0.00  0.00     0.210 HD
ENDBRANCH   2   6
ENDBRANCH   1   2
BRANCH   1   8
HETATM    8  C   UNK N   1      36.201  14.301  12.624  0.00  0.00     0.184 C 
BRANCH   8   9
HETATM    9  C   UNK N   1      36.807  13.069  11.912  0.00  0.00     0.210 C 
BRANCH   9  10
HETATM   10  C   UNK N   1      36.939  11.904  12.851  0.00  0.00     0.265 C 
HETATM   11  O   UNK N   1      37.360  12.058  13.989  0.00  0.00    -0.304 OA
ENDBRANCH   9  10
BRANCH   9  12
HETATM   12  O   UNK N   1      38.083  13.370  11.431  0.00  0.00    -0.386 OA
HETATM   13  H   UNK N   1      38.321  14.288  11.226  0.00  0.00     0.210 HD
ENDBRANCH   9  12
ENDBRANCH   8   9
BRANCH   8  14
HETATM   14  O   UNK N   1      35.133  13.900  13.435  0.00  0.00    -0.390 OA
HETATM   15  H   UNK N   1      35.003  14.311  14.304  0.00  0.00     0.210 HD
ENDBRANCH   8  14
ENDBRANCH   1   8
BRANCH   1  16
HETATM   16  O   UNK N   1      36.841  16.000  11.042  0.00  0.00    -0.390 OA
HETATM   17  H   UNK N   1      37.139  15.653  10.186  0.00  0.00     0.210 HD
ENDBRANCH   1  16
TORSDOF 10
ENDMDL
MODEL 6
REMARK VINA RESULT:      -4.5      3.546      4.833
REMARK  10 active torsions:
REMARK  status: ('A' for Active; 'I' for Inactive)
REMARK    1  A    between atoms: C_3  and  C_1 
REMARK    2  A    between atoms: C_4  and  C_2 
REMARK    3  A    between atoms: O_8  and  C_2 
REMARK    4  A    between atoms: C_5  and  C_3 
REMARK    5  A    between atoms: C_3  and  O_9 
REMARK    6  A    between atoms: C_6  and  C_4 
REMARK    7  A    between atoms: C_4  and  O_10 
REMARK    8  A    between atoms: C_6  and  C_5 
REMARK    9  A    between atoms: C_5  and  O_11 
REMARK   10  A    between atoms: C_6  and  O_12 
ROOT
HETATM    1  C   UNK N   1      34.667  15.608   9.225  0.00  0.00     0.180 C 
ENDROOT
BRANCH   1   2
HETATM    2  C   UNK N   1      33.619  14.678   9.883  0.00  0.00     0.173 C 
BRANCH   2   3
HETATM    3  C   UNK N   1      32.205  14.985   9.387  0.00  0.00     0.198 C 
BRANCH   3   4
HETATM    4  O   UNK N   1      31.358  15.334  10.441  0.00  0.00    -0.398 OA
HETATM    5  H   UNK N   1      31.729  15.675  11.270  0.00  0.00     0.209 HD
ENDBRANCH   3   4
ENDBRANCH   2   3
BRANCH   2   6
HETATM    6  O   UNK N   1      33.621  14.857  11.268  0.00  0.00    -0.391 OA
HETATM    7  H   UNK N   1      32.833  15.199  11.716  0.00  0.00     0.210 HD
ENDBRANCH   2   6
ENDBRANCH   1   2
BRANCH   1   8
HETATM    8  C   UNK N   1      34.541  17.109   9.605  0.00  0.00     0.184 C 
BRANCH   8   9
HETATM    9  C   UNK N   1      34.257  18.061   8.418  0.00  0.00     0.210 C 
BRANCH   9  10
HETATM   10  C   UNK N   1      34.297  17.329   7.108  0.00  0.00     0.265 C 
HETATM   11  O   UNK N   1      34.181  17.929   6.048  0.00  0.00    -0.304 OA
ENDBRANCH   9  10
BRANCH   9  12
HETATM   12  O   UNK N   1      35.222  19.070   8.368  0.00  0.00    -0.386 OA
HETATM   13  H   UNK N   1      35.120  19.867   8.911  0.00  0.00     0.210 HD
ENDBRANCH   9  12
ENDBRANCH   8   9
BRANCH   8  14
HETATM   14  O   UNK N   1      35.703  17.518  10.270  0.00  0.00    -0.390 OA
HETATM   15  H   UNK N   1      36.385  16.868  10.500  0.00  0.00     0.210 HD
ENDBRANCH   8  14
ENDBRANCH   1   8
BRANCH   1  16
HETATM   16  O   UNK N   1      35.958  15.163   9.528  0.00  0.00    -0.390 OA
HETATM   17  H   UNK N   1      36.128  14.693  10.360  0.00  0.00     0.210 HD
ENDBRANCH   1  16
TORSDOF 10
ENDMDL
MODEL 7
REMARK VINA RESULT:      -4.5      1.044      2.380
REMARK  10 active torsions:
REMARK  status: ('A' for Active; 'I' for Inactive)
REMARK    1  A    between atoms: C_3  and  C_1 
REMARK    2  A    between atoms: C_4  and  C_2 
REMARK    3  A    between atoms: O_8  and  C_2 
REMARK    4  A    between atoms: C_5  and  C_3 
REMARK    5  A    between atoms: C_3  and  O_9 
REMARK    6  A    between atoms: C_6  and  C_4 
REMARK    7  A    between atoms: C_4  and  O_10 
REMARK    8  A    between atoms: C_6  and  C_5 
REMARK    9  A    between atoms: C_5  and  O_11 
REMARK   10  A    between atoms: C_6  and  O_12 
ROOT
HETATM    1  C   UNK N   1      35.229  13.672  13.566  0.00  0.00     0.180 C 
ENDROOT
BRANCH   1   2
HETATM    2  C   UNK N   1      36.178  13.090  14.642  0.00  0.00     0.173 C 
BRANCH   2   3
HETATM    3  C   UNK N   1      35.434  12.791  15.945  0.00  0.00     0.198 C 
BRANCH   3   4
HETATM    4  O   UNK N   1      34.082  13.125  15.850  0.00  0.00    -0.398 OA
HETATM    5  H   UNK N   1      33.529  13.146  16.647  0.00  0.00     0.209 HD
ENDBRANCH   3   4
ENDBRANCH   2   3
BRANCH   2   6
HETATM    6  O   UNK N   1      37.186  14.009  14.941  0.00  0.00    -0.391 OA
HETATM    7  H   UNK N   1      36.957  14.912  15.211  0.00  0.00     0.210 HD
ENDBRANCH   2   6
ENDBRANCH   1   2
BRANCH   1   8
HETATM    8  C   UNK N   1      35.921  14.550  12.488  0.00  0.00     0.184 C 
BRANCH   8   9
HETATM    9  C   UNK N   1      35.069  14.827  11.226  0.00  0.00     0.210 C 
BRANCH   9  10
HETATM   10  C   UNK N   1      35.384  16.173  10.639  0.00  0.00     0.265 C 
HETATM   11  O   UNK N   1      36.532  16.592  10.605  0.00  0.00    -0.304 OA
ENDBRANCH   9  10
BRANCH   9  12
HETATM   12  O   UNK N   1      33.711  14.814  11.550  0.00  0.00    -0.386 OA
HETATM   13  H   UNK N   1      33.119  15.493  11.189  0.00  0.00     0.210 HD
ENDBRANCH   9  12
ENDBRANCH   8   9
BRANCH   8  14
HETATM   14  O   UNK N   1      37.135  13.960  12.118  0.00  0.00    -0.390 OA
HETATM   15  H   UNK N   1      37.777  14.459  11.590  0.00  0.00     0.210 HD
ENDBRANCH   8  14
ENDBRANCH   1   8
BRANCH   1  16
HETATM   16  O   UNK N   1      34.529  12.638  12.938  0.00  0.00    -0.390 OA
HETATM   17  H   UNK N   1      33.723  12.831  12.433  0.00  0.00     0.210 HD
ENDBRANCH   1  16
TORSDOF 10
ENDMDL
MODEL 8
REMARK VINA RESULT:      -4.4      1.552      5.237
REMARK  10 active torsions:
REMARK  status: ('A' for Active; 'I' for Inactive)
REMARK    1  A    between atoms: C_3  and  C_1 
REMARK    2  A    between atoms: C_4  and  C_2 
REMARK    3  A    between atoms: O_8  and  C_2 
REMARK    4  A    between atoms: C_5  and  C_3 
REMARK    5  A    between atoms: C_3  and  O_9 
REMARK    6  A    between atoms: C_6  and  C_4 
REMARK    7  A    between atoms: C_4  and  O_10 
REMARK    8  A    between atoms: C_6  and  C_5 
REMARK    9  A    between atoms: C_5  and  O_11 
REMARK   10  A    between atoms: C_6  and  O_12 
ROOT
HETATM    1  C   UNK N   1      35.306  15.623   9.290  0.00  0.00     0.180 C 
ENDROOT
BRANCH   1   2
HETATM    2  C   UNK N   1      34.748  17.043   9.552  0.00  0.00     0.173 C 
BRANCH   2   3
HETATM    3  C   UNK N   1      34.470  17.788   8.245  0.00  0.00     0.198 C 
BRANCH   3   4
HETATM    4  O   UNK N   1      34.985  19.086   8.277  0.00  0.00    -0.398 OA
HETATM    5  H   UNK N   1      34.503  19.788   8.741  0.00  0.00     0.209 HD
ENDBRANCH   3   4
ENDBRANCH   2   3
BRANCH   2   6
HETATM    6  O   UNK N   1      35.678  17.797  10.271  0.00  0.00    -0.391 OA
HETATM    7  H   UNK N   1      36.046  17.456  11.100  0.00  0.00     0.210 HD
ENDBRANCH   2   6
ENDBRANCH   1   2
BRANCH   1   8
HETATM    8  C   UNK N   1      36.049  14.978  10.491  0.00  0.00     0.184 C 
BRANCH   8   9
HETATM    9  C   UNK N   1      35.241  14.932  11.810  0.00  0.00     0.210 C 
BRANCH   9  10
HETATM   10  C   UNK N   1      36.032  14.292  12.915  0.00  0.00     0.265 C 
HETATM   11  O   UNK N   1      36.866  13.430  12.673  0.00  0.00    -0.304 OA
ENDBRANCH   9  10
BRANCH   9  12
HETATM   12  O   UNK N   1      34.076  14.181  11.636  0.00  0.00    -0.386 OA
HETATM   13  H   UNK N   1      33.467  14.390  10.910  0.00  0.00     0.210 HD
ENDBRANCH   9  12
ENDBRANCH   8   9
BRANCH   8  14
HETATM   14  O   UNK N   1      37.260  15.647  10.702  0.00  0.00    -0.390 OA
HETATM   15  H   UNK N   1      37.642  16.193   9.997  0.00  0.00     0.210 HD
ENDBRANCH   8  14
ENDBRANCH   1   8
BRANCH   1  16
HETATM   16  O   UNK N   1      34.274  14.774   8.876  0.00  0.00    -0.390 OA
HETATM   17  H   UNK N   1      34.149  13.914   9.307  0.00  0.00     0.210 HD
ENDBRANCH   1  16
TORSDOF 10
ENDMDL
MODEL 9
REMARK VINA RESULT:      -4.4      1.130      4.357
REMARK  10 active torsions:
REMARK  status: ('A' for Active; 'I' for Inactive)
REMARK    1  A    between atoms: C_3  and  C_1 
REMARK    2  A    between atoms: C_4  and  C_2 
REMARK    3  A    between atoms: O_8  and  C_2 
REMARK    4  A    between atoms: C_5  and  C_3 
REMARK    5  A    between atoms: C_3  and  O_9 
REMARK    6  A    between atoms: C_6  and  C_4 
REMARK    7  A    between atoms: C_4  and  O_10 
REMARK    8  A    between atoms: C_6  and  C_5 
REMARK    9  A    between atoms: C_5  and  O_11 
REMARK   10  A    between atoms: C_6  and  O_12 
ROOT
HETATM    1  C   UNK N   1      36.254  14.206  12.228  0.00  0.00     0.180 C 
ENDROOT
BRANCH   1   2
HETATM    2  C   UNK N   1      35.799  15.546  11.602  0.00  0.00     0.173 C 
BRANCH   2   3
HETATM    3  C   UNK N   1      34.670  15.340  10.590  0.00  0.00     0.198 C 
BRANCH   3   4
HETATM    4  O   UNK N   1      33.487  14.945  11.218  0.00  0.00    -0.398 OA
HETATM    5  H   UNK N   1      32.637  15.045  10.761  0.00  0.00     0.209 HD
ENDBRANCH   3   4
ENDBRANCH   2   3
BRANCH   2   6
HETATM    6  O   UNK N   1      36.862  16.143  10.921  0.00  0.00    -0.391 OA
HETATM    7  H   UNK N   1      37.683  16.355  11.391  0.00  0.00     0.210 HD
ENDBRANCH   2   6
ENDBRANCH   1   2
BRANCH   1   8
HETATM    8  C   UNK N   1      35.548  13.831  13.559  0.00  0.00     0.184 C 
BRANCH   8   9
HETATM    9  C   UNK N   1      36.440  13.095  14.587  0.00  0.00     0.210 C 
BRANCH   9  10
HETATM   10  C   UNK N   1      36.751  13.971  15.767  0.00  0.00     0.265 C 
HETATM   11  O   UNK N   1      37.528  14.911  15.665  0.00  0.00    -0.304 OA
ENDBRANCH   9  10
BRANCH   9  12
HETATM   12  O   UNK N   1      37.654  12.732  13.999  0.00  0.00    -0.386 OA
HETATM   13  H   UNK N   1      37.834  12.964  13.074  0.00  0.00     0.210 HD
ENDBRANCH   9  12
ENDBRANCH   8   9
BRANCH   8  14
HETATM   14  O   UNK N   1      34.413  13.059  13.281  0.00  0.00    -0.390 OA
HETATM   15  H   UNK N   1      34.160  12.882  12.361  0.00  0.00     0.210 HD
ENDBRANCH   8  14
ENDBRANCH   1   8
BRANCH   1  16
HETATM   16  O   UNK N   1      36.083  13.167  11.307  0.00  0.00    -0.390 OA
HETATM   17  H   UNK N   1      35.223  12.727  11.222  0.00  0.00     0.210 HD
ENDBRANCH   1  16
TORSDOF 10
ENDMDL
