REMARK  1 active torsions:
REMARK  status: ('A' for Active; 'I' for Inactive)
REMARK    1  A    between atoms: C_1  and  C_2 
ROOT
HETATM    1  C   UNK N   1       0.728   0.233   0.333  0.00  0.00     0.187 C 
HETATM    2  C   UNK N   1       0.649  -1.279  -0.013  0.00  0.00     0.251 C 
HETATM    3  O   UNK N   1       1.745   0.829  -0.433  0.00  0.00    -0.377 OA
HETATM    4  N   UNK N   1       1.958  -1.916   0.223  0.00  0.00     0.093 N 
HETATM    5  C   UNK N   1      -0.397  -1.967   0.859  0.00  0.00     0.046 C 
HETATM    6  C   UNK N   1       2.954   0.308   0.048  0.00  0.00     0.199 C 
HETATM    7  C   UNK N   1       3.048  -1.150  -0.385  0.00  0.00     0.298 C 
HETATM    8  C   UNK N   1       1.967  -3.221  -0.421  0.00  0.00     0.310 C 
ENDROOT
BRANCH   1   9
HETATM    9  C   UNK N   1      -0.543   1.031   0.154  0.00  0.00    -0.027 A 
HETATM   10  C   UNK N   1      -1.727   0.455  -0.339  0.00  0.00     0.010 A 
HETATM   11  C   UNK N   1      -2.882   1.229  -0.483  0.00  0.00     0.001 A 
HETATM   12  C   UNK N   1      -2.863   2.585  -0.146  0.00  0.00     0.000 A 
HETATM   13  C   UNK N   1      -1.688   3.167   0.337  0.00  0.00     0.001 A 
HETATM   14  C   UNK N   1      -0.536   2.392   0.489  0.00  0.00     0.010 A 
ENDBRANCH   1   9
TORSDOF 1
