REMARK  10 active torsions:
REMARK  status: ('A' for Active; 'I' for Inactive)
REMARK    1  A    between atoms: C_3  and  C_1 
REMARK    2  A    between atoms: C_4  and  C_2 
REMARK    3  A    between atoms: O_8  and  C_2 
REMARK    4  A    between atoms: C_5  and  C_3 
REMARK    5  A    between atoms: C_3  and  O_9 
REMARK    6  A    between atoms: C_6  and  C_4 
REMARK    7  A    between atoms: C_4  and  O_10 
REMARK    8  A    between atoms: C_6  and  C_5 
REMARK    9  A    between atoms: C_5  and  O_11 
REMARK   10  A    between atoms: C_6  and  O_12 
ROOT
HETATM    1  C   UNK N   1       3.083   0.853   0.569  0.00  0.00     0.180 C 
ENDROOT
BRANCH   1   2
HETATM    2  C   UNK N   1       3.812   1.496  -0.636  0.00  0.00     0.173 C 
BRANCH   2   3
HETATM    3  C   UNK N   1       5.332   1.393  -0.494  0.00  0.00     0.198 C 
BRANCH   3   4
HETATM    4  O   UNK N   1       5.762   0.066  -0.553  0.00  0.00    -0.398 OA
HETATM    5  H   UNK N   1       5.113  -0.654  -0.593  0.00  0.00     0.209 HD
ENDBRANCH   3   4
ENDBRANCH   2   3
BRANCH   2   6
HETATM    6  O   UNK N   1       3.494   2.853  -0.720  0.00  0.00    -0.391 OA
HETATM    7  H   UNK N   1       4.199   3.516  -0.777  0.00  0.00     0.210 HD
ENDBRANCH   2   6
ENDBRANCH   1   2
BRANCH   1   8
HETATM    8  C   UNK N   1       1.539   1.016   0.564  0.00  0.00     0.184 C 
BRANCH   8   9
HETATM    9  C   UNK N   1       0.816   0.355  -0.634  0.00  0.00     0.210 C 
BRANCH   9  10
HETATM   10  C   UNK N   1      -0.675   0.490  -0.515  0.00  0.00     0.265 C 
HETATM   11  O   UNK N   1      -1.208   1.591  -0.502  0.00  0.00    -0.304 OA
ENDBRANCH   9  10
BRANCH   9  12
HETATM   12  O   UNK N   1       1.114  -1.009  -0.683  0.00  0.00    -0.386 OA
HETATM   13  H   UNK N   1       0.397  -1.662  -0.716  0.00  0.00     0.210 HD
ENDBRANCH   9  12
ENDBRANCH   8   9
BRANCH   8  14
HETATM   14  O   UNK N   1       1.216   2.377   0.618  0.00  0.00    -0.390 OA
HETATM   15  H   UNK N   1       1.921   3.042   0.656  0.00  0.00     0.210 HD
ENDBRANCH   8  14
ENDBRANCH   1   8
BRANCH   1  16
HETATM   16  O   UNK N   1       3.403  -0.506   0.650  0.00  0.00    -0.390 OA
HETATM   17  H   UNK N   1       2.698  -1.170   0.706  0.00  0.00     0.210 HD
ENDBRANCH   1  16
TORSDOF 10
