MODEL 1
REMARK VINA RESULT:      -3.8      0.000      0.000
REMARK  4 active torsions:
REMARK  status: ('A' for Active; 'I' for Inactive)
REMARK    1  A    between atoms: N_1  and  C_2 
REMARK    2  A    between atoms: C_2  and  C_3 
REMARK    3  A    between atoms: C_3  and  S_4 
REMARK    4  A    between atoms: S_4  and  O_5 
ROOT
HETATM    1  C   UNK N   1      20.820  18.831   3.631  0.00  0.00     0.174 C 
ENDROOT
BRANCH   1   2
HETATM    2  C   UNK N   1      19.741  17.880   3.136  0.00  0.00     0.127 C 
BRANCH   2   3
HETATM    3  N   UNK N   1      18.763  18.613   2.350  0.00  0.00    -0.429 N 
HETATM    4  H   UNK N   1      17.953  19.041   2.797  0.00  0.00     0.149 HD
HETATM    5  H   UNK N   1      18.889  18.700   1.342  0.00  0.00     0.149 HD
ENDBRANCH   2   3
ENDBRANCH   1   2
BRANCH   1   6
HETATM    6  S   UNK N   1      21.017  20.244   2.498  0.00  0.00     0.095 S 
HETATM    7  O   UNK N   1      20.345  20.700   3.803  0.00  0.00    -0.601 OA
HETATM    8  O   UNK N   1      22.416  19.868   3.013  0.00  0.00    -0.601 OA
BRANCH   6   9
HETATM    9  O   UNK N   1      21.731  21.781   2.782  0.00  0.00    -0.296 OA
HETATM   10  H   UNK N   1      22.491  22.095   2.269  0.00  0.00     0.232 HD
ENDBRANCH   6   9
ENDBRANCH   1   6
TORSDOF 4
ENDMDL
MODEL 2
REMARK VINA RESULT:      -3.6     13.810     14.172
REMARK  4 active torsions:
REMARK  status: ('A' for Active; 'I' for Inactive)
REMARK    1  A    between atoms: N_1  and  C_2 
REMARK    2  A    between atoms: C_2  and  C_3 
REMARK    3  A    between atoms: C_3  and  S_4 
REMARK    4  A    between atoms: S_4  and  O_5 
ROOT
HETATM    1  C   UNK N   1      33.531  16.560   7.951  0.00  0.00     0.174 C 
ENDROOT
BRANCH   1   2
HETATM    2  C   UNK N   1      32.091  16.175   8.252  0.00  0.00     0.127 C 
BRANCH   2   3
HETATM    3  N   UNK N   1      31.474  17.197   9.081  0.00  0.00    -0.429 N 
HETATM    4  H   UNK N   1      30.864  17.903   8.669  0.00  0.00     0.149 HD
HETATM    5  H   UNK N   1      31.653  17.209  10.086  0.00  0.00     0.149 HD
ENDBRANCH   2   3
ENDBRANCH   1   2
BRANCH   1   6
HETATM    6  S   UNK N   1      33.797  18.346   8.191  0.00  0.00     0.095 S 
HETATM    7  O   UNK N   1      34.490  17.551   9.310  0.00  0.00    -0.601 OA
HETATM    8  O   UNK N   1      34.633  17.915   6.975  0.00  0.00    -0.601 OA
BRANCH   6   9
HETATM    9  O   UNK N   1      35.263  19.210   8.427  0.00  0.00    -0.296 OA
HETATM   10  H   UNK N   1      35.817  19.491   7.682  0.00  0.00     0.232 HD
ENDBRANCH   6   9
ENDBRANCH   1   6
TORSDOF 4
ENDMDL
MODEL 3
REMARK VINA RESULT:      -3.5     15.902     16.348
REMARK  4 active torsions:
REMARK  status: ('A' for Active; 'I' for Inactive)
REMARK    1  A    between atoms: N_1  and  C_2 
REMARK    2  A    between atoms: C_2  and  C_3 
REMARK    3  A    between atoms: C_3  and  S_4 
REMARK    4  A    between atoms: S_4  and  O_5 
ROOT
HETATM    1  C   UNK N   1      34.247  16.491   9.331  0.00  0.00     0.174 C 
ENDROOT
BRANCH   1   2
HETATM    2  C   UNK N   1      33.033  15.577   9.263  0.00  0.00     0.127 C 
BRANCH   2   3
HETATM    3  N   UNK N   1      32.828  14.938  10.551  0.00  0.00    -0.429 N 
HETATM    4  H   UNK N   1      31.899  14.627  10.836  0.00  0.00     0.149 HD
HETATM    5  H   UNK N   1      33.621  14.798  11.178  0.00  0.00     0.149 HD
ENDBRANCH   2   3
ENDBRANCH   1   2
BRANCH   1   6
HETATM    6  S   UNK N   1      35.272  16.112  10.789  0.00  0.00     0.095 S 
HETATM    7  O   UNK N   1      35.697  15.236   9.599  0.00  0.00    -0.601 OA
HETATM    8  O   UNK N   1      35.688  17.503  10.282  0.00  0.00    -0.601 OA
BRANCH   6   9
HETATM    9  O   UNK N   1      36.983  16.062  10.937  0.00  0.00    -0.296 OA
HETATM   10  H   UNK N   1      37.492  15.264  10.726  0.00  0.00     0.232 HD
ENDBRANCH   6   9
ENDBRANCH   1   6
TORSDOF 4
ENDMDL
MODEL 4
REMARK VINA RESULT:      -3.4     11.663     12.014
REMARK  4 active torsions:
REMARK  status: ('A' for Active; 'I' for Inactive)
REMARK    1  A    between atoms: N_1  and  C_2 
REMARK    2  A    between atoms: C_2  and  C_3 
REMARK    3  A    between atoms: C_3  and  S_4 
REMARK    4  A    between atoms: S_4  and  O_5 
ROOT
HETATM    1  C   UNK N   1      26.256  23.420  -7.351  0.00  0.00     0.174 C 
ENDROOT
BRANCH   1   2
HETATM    2  C   UNK N   1      25.862  23.697  -5.909  0.00  0.00     0.127 C 
BRANCH   2   3
HETATM    3  N   UNK N   1      25.238  25.007  -5.814  0.00  0.00    -0.429 N 
HETATM    4  H   UNK N   1      25.805  25.845  -5.685  0.00  0.00     0.149 HD
HETATM    5  H   UNK N   1      24.223  25.088  -5.877  0.00  0.00     0.149 HD
ENDBRANCH   2   3
ENDBRANCH   1   2
BRANCH   1   6
HETATM    6  S   UNK N   1      25.182  22.149  -8.092  0.00  0.00     0.095 S 
HETATM    7  O   UNK N   1      24.905  22.265  -6.585  0.00  0.00    -0.601 OA
HETATM    8  O   UNK N   1      24.681  23.518  -8.581  0.00  0.00    -0.601 OA
BRANCH   6   9
HETATM    9  O   UNK N   1      23.476  21.972  -7.999  0.00  0.00    -0.296 OA
HETATM   10  H   UNK N   1      22.918  22.620  -7.541  0.00  0.00     0.232 HD
ENDBRANCH   6   9
ENDBRANCH   1   6
TORSDOF 4
ENDMDL
MODEL 5
REMARK VINA RESULT:      -3.4     14.469     14.959
REMARK  4 active torsions:
REMARK  status: ('A' for Active; 'I' for Inactive)
REMARK    1  A    between atoms: N_1  and  C_2 
REMARK    2  A    between atoms: C_2  and  C_3 
REMARK    3  A    between atoms: C_3  and  S_4 
REMARK    4  A    between atoms: S_4  and  O_5 
ROOT
HETATM    1  C   UNK N   1      33.290  16.768   8.854  0.00  0.00     0.174 C 
ENDROOT
BRANCH   1   2
HETATM    2  C   UNK N   1      33.809  15.428   9.353  0.00  0.00     0.127 C 
BRANCH   2   3
HETATM    3  N   UNK N   1      33.277  15.160  10.679  0.00  0.00    -0.429 N 
HETATM    4  H   UNK N   1      33.810  15.406  11.513  0.00  0.00     0.149 HD
HETATM    5  H   UNK N   1      32.362  14.720  10.776  0.00  0.00     0.149 HD
ENDBRANCH   2   3
ENDBRANCH   1   2
BRANCH   1   6
HETATM    6  S   UNK N   1      34.620  17.734   8.069  0.00  0.00     0.095 S 
HETATM    7  O   UNK N   1      33.361  18.600   8.233  0.00  0.00    -0.601 OA
HETATM    8  O   UNK N   1      35.013  17.520   9.540  0.00  0.00    -0.601 OA
BRANCH   6   9
HETATM    9  O   UNK N   1      35.260  19.267   8.507  0.00  0.00    -0.296 OA
HETATM   10  H   UNK N   1      34.742  20.083   8.419  0.00  0.00     0.232 HD
ENDBRANCH   6   9
ENDBRANCH   1   6
TORSDOF 4
ENDMDL
MODEL 6
REMARK VINA RESULT:      -3.3     13.318     13.755
REMARK  4 active torsions:
REMARK  status: ('A' for Active; 'I' for Inactive)
REMARK    1  A    between atoms: N_1  and  C_2 
REMARK    2  A    between atoms: C_2  and  C_3 
REMARK    3  A    between atoms: C_3  and  S_4 
REMARK    4  A    between atoms: S_4  and  O_5 
ROOT
HETATM    1  C   UNK N   1      32.923  17.084   6.852  0.00  0.00     0.174 C 
ENDROOT
BRANCH   1   2
HETATM    2  C   UNK N   1      33.394  17.324   5.426  0.00  0.00     0.127 C 
BRANCH   2   3
HETATM    3  N   UNK N   1      32.257  17.658   4.584  0.00  0.00    -0.429 N 
HETATM    4  H   UNK N   1      31.782  18.554   4.683  0.00  0.00     0.149 HD
HETATM    5  H   UNK N   1      31.931  16.988   3.887  0.00  0.00     0.149 HD
ENDBRANCH   2   3
ENDBRANCH   1   2
BRANCH   1   6
HETATM    6  S   UNK N   1      34.200  17.574   8.055  0.00  0.00     0.095 S 
HETATM    7  O   UNK N   1      34.623  17.985   6.636  0.00  0.00    -0.601 OA
HETATM    8  O   UNK N   1      32.988  18.495   8.270  0.00  0.00    -0.601 OA
BRANCH   6   9
HETATM    9  O   UNK N   1      34.939  19.105   8.301  0.00  0.00    -0.296 OA
HETATM   10  H   UNK N   1      34.433  19.931   8.257  0.00  0.00     0.232 HD
ENDBRANCH   6   9
ENDBRANCH   1   6
TORSDOF 4
ENDMDL
MODEL 7
REMARK VINA RESULT:      -3.2     23.454     23.936
REMARK  4 active torsions:
REMARK  status: ('A' for Active; 'I' for Inactive)
REMARK    1  A    between atoms: N_1  and  C_2 
REMARK    2  A    between atoms: C_2  and  C_3 
REMARK    3  A    between atoms: C_3  and  S_4 
REMARK    4  A    between atoms: S_4  and  O_5 
ROOT
HETATM    1  C   UNK N   1      43.407  22.876   3.383  0.00  0.00     0.174 C 
ENDROOT
BRANCH   1   2
HETATM    2  C   UNK N   1      44.186  22.137   4.460  0.00  0.00     0.127 C 
BRANCH   2   3
HETATM    3  N   UNK N   1      45.605  22.164   4.145  0.00  0.00    -0.429 N 
HETATM    4  H   UNK N   1      46.154  21.305   4.143  0.00  0.00     0.149 HD
HETATM    5  H   UNK N   1      46.055  23.053   3.924  0.00  0.00     0.149 HD
ENDBRANCH   2   3
ENDBRANCH   1   2
BRANCH   1   6
HETATM    6  S   UNK N   1      44.530  23.635   2.166  0.00  0.00     0.095 S 
HETATM    7  O   UNK N   1      43.084  23.663   1.644  0.00  0.00    -0.601 OA
HETATM    8  O   UNK N   1      44.422  24.600   3.358  0.00  0.00    -0.601 OA
BRANCH   6   9
HETATM    9  O   UNK N   1      44.429  25.166   1.393  0.00  0.00    -0.296 OA
HETATM   10  H   UNK N   1      45.202  25.744   1.297  0.00  0.00     0.232 HD
ENDBRANCH   6   9
ENDBRANCH   1   6
TORSDOF 4
ENDMDL
MODEL 8
REMARK VINA RESULT:      -3.2     22.925     23.285
REMARK  4 active torsions:
REMARK  status: ('A' for Active; 'I' for Inactive)
REMARK    1  A    between atoms: N_1  and  C_2 
REMARK    2  A    between atoms: C_2  and  C_3 
REMARK    3  A    between atoms: C_3  and  S_4 
REMARK    4  A    between atoms: S_4  and  O_5 
ROOT
HETATM    1  C   UNK N   1      42.786  21.975   3.058  0.00  0.00     0.174 C 
ENDROOT
BRANCH   1   2
HETATM    2  C   UNK N   1      42.928  23.169   2.127  0.00  0.00     0.127 C 
BRANCH   2   3
HETATM    3  N   UNK N   1      41.646  23.840   1.990  0.00  0.00    -0.429 N 
HETATM    4  H   UNK N   1      41.443  24.412   1.171  0.00  0.00     0.149 HD
HETATM    5  H   UNK N   1      40.942  23.737   2.721  0.00  0.00     0.149 HD
ENDBRANCH   2   3
ENDBRANCH   1   2
BRANCH   1   6
HETATM    6  S   UNK N   1      44.097  21.970   4.323  0.00  0.00     0.095 S 
HETATM    7  O   UNK N   1      44.550  21.179   3.085  0.00  0.00    -0.601 OA
HETATM    8  O   UNK N   1      44.023  23.392   3.741  0.00  0.00    -0.601 OA
BRANCH   6   9
HETATM    9  O   UNK N   1      45.755  22.396   4.178  0.00  0.00    -0.296 OA
HETATM   10  H   UNK N   1      46.138  22.688   3.336  0.00  0.00     0.232 HD
ENDBRANCH   6   9
ENDBRANCH   1   6
TORSDOF 4
ENDMDL
MODEL 9
REMARK VINA RESULT:      -3.1     11.081     11.417
REMARK  4 active torsions:
REMARK  status: ('A' for Active; 'I' for Inactive)
REMARK    1  A    between atoms: N_1  and  C_2 
REMARK    2  A    between atoms: C_2  and  C_3 
REMARK    3  A    between atoms: C_3  and  S_4 
REMARK    4  A    between atoms: S_4  and  O_5 
ROOT
HETATM    1  C   UNK N   1      29.015  23.160  -2.577  0.00  0.00     0.174 C 
ENDROOT
BRANCH   1   2
HETATM    2  C   UNK N   1      28.363  23.981  -3.679  0.00  0.00     0.127 C 
BRANCH   2   3
HETATM    3  N   UNK N   1      26.978  24.252  -3.335  0.00  0.00    -0.429 N 
HETATM    4  H   UNK N   1      26.263  23.533  -3.451  0.00  0.00     0.149 HD
HETATM    5  H   UNK N   1      26.717  25.170  -2.975  0.00  0.00     0.149 HD
ENDBRANCH   2   3
ENDBRANCH   1   2
BRANCH   1   6
HETATM    6  S   UNK N   1      30.809  22.998  -2.853  0.00  0.00     0.095 S 
HETATM    7  O   UNK N   1      30.503  23.011  -1.347  0.00  0.00    -0.601 OA
HETATM    8  O   UNK N   1      30.157  21.668  -3.265  0.00  0.00    -0.601 OA
BRANCH   6   9
HETATM    9  O   UNK N   1      31.909  21.838  -2.226  0.00  0.00    -0.296 OA
HETATM   10  H   UNK N   1      32.361  21.198  -2.799  0.00  0.00     0.232 HD
ENDBRANCH   6   9
ENDBRANCH   1   6
TORSDOF 4
ENDMDL
