REMARK  8 active torsions:
REMARK  status: ('A' for Active; 'I' for Inactive)
REMARK    1  A    between atoms: C_1  and  N_3 
REMARK    2  A    between atoms: C_6  and  C_11 
REMARK    3  A    between atoms: N_7  and  C_12 
REMARK    4  A    between atoms: C_10  and  O_13 
REMARK    5  A    between atoms: C_11  and  O_14 
REMARK    6  A    between atoms: C_18  and  C_21 
REMARK    7  A    between atoms: C_20  and  O_22 
REMARK    8  A    between atoms: C_21  and  O_23 
ROOT
HETATM    1  N   UNK N   1      15.322  -9.598  -0.152  0.00  0.00    -0.300 N 
ATOM      2  HN  UNK N   1      15.370  -8.579  -0.157  1.00  0.00     0.187 HD
HETATM    3  N   UNK N   1      14.212 -10.168  -0.180  0.00  0.00    -0.300 N 
ATOM      4  HN  UNK N   1      14.178 -11.186  -0.230  1.00  0.00     0.187 HD
ENDROOT
BRANCH   1   5
HETATM    5  C   UNK N   1      16.513 -10.359  -0.115  0.00  0.00     0.049 A 
HETATM    6  C   UNK N   1      16.453 -11.754  -0.044  0.00  0.00     0.052 A 
HETATM    7  C   UNK N   1      17.614 -12.527   0.016  0.00  0.00     0.072 A 
HETATM    8  C   UNK N   1      18.868 -11.875   0.004  0.00  0.00     0.082 A 
HETATM    9  C   UNK N   1      18.928 -10.477  -0.066  0.00  0.00     0.040 A 
HETATM   10  C   UNK N   1      17.754  -9.720  -0.122  0.00  0.00     0.034 A 
BRANCH   7  11
HETATM   11  C   UNK N   1      17.475 -14.002   0.093  0.00  0.00     0.179 C 
HETATM   12  O   UNK N   1      16.364 -14.509   0.116  0.00  0.00    -0.646 OA
BRANCH  11  13
HETATM   13  O   UNK N   1      18.560 -14.797   0.140  0.00  0.00    -0.773 OA
HETATM   14  H   UNK N   1      18.458 -15.728   0.172  0.00  0.00     0.167 HD
ENDBRANCH  11  13
ENDBRANCH   7  11
BRANCH   8  15
HETATM   15  O   UNK N   1      20.014 -12.576   0.060  0.00  0.00    -0.360 OA
HETATM   16  H   UNK N   1      19.990 -13.512   0.100  0.00  0.00     0.217 HD
ENDBRANCH   8  15
ENDBRANCH   1   5
BRANCH   3  17
HETATM   17  C   UNK N   1      13.004  -9.439  -0.143  0.00  0.00     0.049 A 
HETATM   18  C   UNK N   1      13.008  -8.044  -0.039  0.00  0.00     0.052 A 
HETATM   19  C   UNK N   1      11.808  -7.327   0.043  0.00  0.00     0.072 A 
HETATM   20  C   UNK N   1      10.585  -8.036   0.022  0.00  0.00     0.082 A 
HETATM   21  C   UNK N   1      10.586  -9.430  -0.087  0.00  0.00     0.040 A 
HETATM   22  C   UNK N   1      11.791 -10.129  -0.166  0.00  0.00     0.034 A 
BRANCH  19  23
HETATM   23  C   UNK N   1      11.870  -5.850   0.159  0.00  0.00     0.179 C 
HETATM   24  O   UNK N   1      12.952  -5.282   0.168  0.00  0.00    -0.646 OA
BRANCH  23  25
HETATM   25  O   UNK N   1      10.744  -5.117   0.260  0.00  0.00    -0.773 OA
HETATM   26  H   UNK N   1      10.794  -4.184   0.330  0.00  0.00     0.167 HD
ENDBRANCH  23  25
ENDBRANCH  19  23
BRANCH  20  27
HETATM   27  O   UNK N   1       9.408  -7.392   0.106  0.00  0.00    -0.360 OA
HETATM   28  H   UNK N   1       9.386  -6.457   0.165  0.00  0.00     0.217 HD
ENDBRANCH  20  27
ENDBRANCH   3  17
TORSDOF 8
