MODEL 1
REMARK VINA RESULT:      -7.9      0.000      0.000
REMARK  8 active torsions:
REMARK  status: ('A' for Active; 'I' for Inactive)
REMARK    1  A    between atoms: C_6  and  S_7 
REMARK    2  A    between atoms: C_10  and  S_7 
REMARK    3  A    between atoms: C_10  and  C_11 
REMARK    4  A    between atoms: C_11  and  N_12 
REMARK    5  A    between atoms: C_13  and  N_12 
REMARK    6  A    between atoms: C_15  and  N_12 
REMARK    7  A    between atoms: C_28  and  O_29 
REMARK    8  A    between atoms: C_43  and  C_44 
ROOT
HETATM    1  O   UNK N   1      31.265  14.707   6.718  0.00  0.00    -0.266 OA
HETATM    2  C   UNK N   1      31.366  15.688   7.440  0.00  0.00     0.273 C 
HETATM    3  N   UNK N   1      32.535  15.894   8.119  0.00  0.00    -0.331 N 
HETATM    4  C   UNK N   1      32.791  17.074   8.895  0.00  0.00     0.128 C 
HETATM    5  C   UNK N   1      34.266  17.347   8.659  0.00  0.00     0.042 C 
HETATM    6  C   UNK N   1      34.889  15.986   8.357  0.00  0.00     0.142 C 
HETATM    7  C   UNK N   1      33.730  15.160   7.763  0.00  0.00     0.205 C 
HETATM    8  C   UNK N   1      30.257  16.667   7.405  0.00  0.00     0.125 A 
HETATM    9  C   UNK N   1      30.051  17.820   8.149  0.00  0.00     0.179 A 
HETATM   10  O   UNK N   1      28.973  18.398   7.656  0.00  0.00    -0.307 OA
HETATM   11  N   UNK N   1      29.308  16.584   6.464  0.00  0.00    -0.334 N 
ATOM     12  HN  UNK N   1      29.193  15.856   5.759  1.00  0.00     0.168 HD
HETATM   13  C   UNK N   1      28.543  17.665   6.652  0.00  0.00     0.130 A 
HETATM   14  C   UNK N   1      27.353  17.963   5.798  0.00  0.00     0.162 C 
HETATM   15  C   UNK N   1      26.512  16.726   5.614  0.00  0.00     0.137 C 
HETATM   16  O   UNK N   1      26.514  15.846   6.462  0.00  0.00    -0.297 OA
HETATM   17  C   UNK N   1      25.632  16.583   4.412  0.00  0.00     0.114 C 
HETATM   18  C   UNK N   1      26.035  15.476   3.423  0.00  0.00     0.148 C 
HETATM   19  C   UNK N   1      26.703  14.223   3.957  0.00  0.00     0.011 C 
HETATM   20  C   UNK N   1      28.033  14.029   4.028  0.00  0.00    -0.064 C 
HETATM   21  C   UNK N   1      28.980  15.099   3.567  0.00  0.00     0.048 C 
HETATM   22  C   UNK N   1      28.525  12.710   4.517  0.00  0.00     0.004 C 
HETATM   23  C   UNK N   1      29.807  12.305   4.598  0.00  0.00    -0.007 C 
HETATM   24  C   UNK N   1      30.972  13.176   4.240  0.00  0.00     0.150 C 
HETATM   25  N   UNK N   1      32.208  12.444   4.073  0.00  0.00    -0.354 N 
HETATM   26  C   UNK N   1      32.794  11.724   5.057  0.00  0.00     0.241 C 
HETATM   27  O   UNK N   1      32.233  11.576   6.134  0.00  0.00    -0.269 OA
HETATM   28  C   UNK N   1      34.151  11.174   4.821  0.00  0.00     0.070 C 
HETATM   29  C   UNK N   1      34.946  10.647   5.768  0.00  0.00    -0.014 C 
HETATM   30  C   UNK N   1      34.531  10.522   7.205  0.00  0.00     0.034 C 
HETATM   31  C   UNK N   1      34.841   9.132   7.730  0.00  0.00     0.017 C 
HETATM   32  C   UNK N   1      35.038  11.654   8.124  0.00  0.00     0.142 C 
HETATM   33  O   UNK N   1      34.734  12.901   7.615  0.00  0.00    -0.313 OA
HETATM   34  C   UNK N   1      33.732  13.682   8.100  0.00  0.00     0.283 C 
HETATM   35  O   UNK N   1      32.837  13.197   8.781  0.00  0.00    -0.263 OA
HETATM   36  H   UNK N   1      32.647  12.472   3.192  0.00  0.00     0.163 HD
ENDROOT
BRANCH   6  37
HETATM   37  S   UNK N   1      35.686  15.361   9.881  0.00  0.00     0.152 S 
HETATM   38  O   UNK N   1      37.169  14.998   9.711  0.00  0.00    -0.227 OA
HETATM   39  O   UNK N   1      35.906  16.703  10.585  0.00  0.00    -0.227 OA
BRANCH  37  40
HETATM   40  C   UNK N   1      34.939  14.501  11.293  0.00  0.00     0.171 C 
BRANCH  40  41
HETATM   41  C   UNK N   1      35.852  14.459  12.521  0.00  0.00     0.287 C 
BRANCH  41  42
HETATM   42  N   UNK N   1      35.439  13.533  13.592  0.00  0.00     0.088 N 
BRANCH  42  43
HETATM   43  C   UNK N   1      34.859  12.337  12.999  0.00  0.00     0.268 C 
HETATM   44  C   UNK N   1      34.210  11.482  14.074  0.00  0.00     0.037 C 
ENDBRANCH  42  43
BRANCH  42  45
HETATM   45  C   UNK N   1      36.529  13.125  14.478  0.00  0.00     0.268 C 
HETATM   46  C   UNK N   1      36.890  14.244  15.440  0.00  0.00     0.037 C 
ENDBRANCH  42  45
ENDBRANCH  41  42
ENDBRANCH  40  41
ENDBRANCH  37  40
ENDBRANCH   6  37
BRANCH  32  47
HETATM   47  C   UNK N   1      36.526  11.616   8.504  0.00  0.00     0.008 C 
HETATM   48  C   UNK N   1      37.354  12.622   7.734  0.00  0.00     0.012 C 
HETATM   49  C   UNK N   1      36.802  11.686   9.996  0.00  0.00     0.012 C 
ENDBRANCH  32  47
BRANCH  18  50
HETATM   50  O   UNK N   1      26.654  15.984   2.279  0.00  0.00    -0.391 OA
HETATM   51  H   UNK N   1      27.080  16.150   1.423  0.00  0.00     0.210 HD
ENDBRANCH  18  50
TORSDOF 8
ENDMDL
MODEL 2
REMARK VINA RESULT:      -7.7      6.291     12.139
REMARK  8 active torsions:
REMARK  status: ('A' for Active; 'I' for Inactive)
REMARK    1  A    between atoms: C_6  and  S_7 
REMARK    2  A    between atoms: C_10  and  S_7 
REMARK    3  A    between atoms: C_10  and  C_11 
REMARK    4  A    between atoms: C_11  and  N_12 
REMARK    5  A    between atoms: C_13  and  N_12 
REMARK    6  A    between atoms: C_15  and  N_12 
REMARK    7  A    between atoms: C_28  and  O_29 
REMARK    8  A    between atoms: C_43  and  C_44 
ROOT
HETATM    1  O   UNK N   1      26.399  14.824   3.025  0.00  0.00    -0.266 OA
HETATM    2  C   UNK N   1      26.202  13.795   2.395  0.00  0.00     0.273 C 
HETATM    3  N   UNK N   1      24.950  13.546   1.903  0.00  0.00    -0.331 N 
HETATM    4  C   UNK N   1      24.651  12.428   1.055  0.00  0.00     0.128 C 
HETATM    5  C   UNK N   1      23.633  12.982   0.075  0.00  0.00     0.042 C 
HETATM    6  C   UNK N   1      22.922  14.110   0.821  0.00  0.00     0.142 C 
HETATM    7  C   UNK N   1      23.961  14.602   1.848  0.00  0.00     0.205 C 
HETATM    8  C   UNK N   1      27.384  12.961   2.083  0.00  0.00     0.125 A 
HETATM    9  C   UNK N   1      27.473  11.725   1.459  0.00  0.00     0.179 A 
HETATM   10  O   UNK N   1      28.758  11.466   1.318  0.00  0.00    -0.307 OA
HETATM   11  N   UNK N   1      28.620  13.432   2.288  0.00  0.00    -0.334 N 
ATOM     12  HN  UNK N   1      28.885  14.318   2.719  1.00  0.00     0.168 HD
HETATM   13  C   UNK N   1      29.432  12.486   1.803  0.00  0.00     0.130 A 
HETATM   14  C   UNK N   1      30.922  12.617   1.831  0.00  0.00     0.162 C 
HETATM   15  C   UNK N   1      31.384  13.093   3.185  0.00  0.00     0.137 C 
HETATM   16  O   UNK N   1      30.722  12.852   4.184  0.00  0.00    -0.297 OA
HETATM   17  C   UNK N   1      32.682  13.826   3.325  0.00  0.00     0.114 C 
HETATM   18  C   UNK N   1      32.568  15.302   3.742  0.00  0.00     0.148 C 
HETATM   19  C   UNK N   1      31.422  15.723   4.643  0.00  0.00     0.011 C 
HETATM   20  C   UNK N   1      30.244  16.214   4.215  0.00  0.00    -0.064 C 
HETATM   21  C   UNK N   1      29.979  16.373   2.746  0.00  0.00     0.048 C 
HETATM   22  C   UNK N   1      29.250  16.644   5.238  0.00  0.00     0.004 C 
HETATM   23  C   UNK N   1      28.051  17.215   5.010  0.00  0.00    -0.007 C 
HETATM   24  C   UNK N   1      27.503  17.464   3.637  0.00  0.00     0.150 C 
HETATM   25  N   UNK N   1      26.385  18.381   3.623  0.00  0.00    -0.354 N 
HETATM   26  C   UNK N   1      25.215  18.150   4.264  0.00  0.00     0.241 C 
HETATM   27  O   UNK N   1      25.089  17.172   4.988  0.00  0.00    -0.269 OA
HETATM   28  C   UNK N   1      24.079  19.072   4.020  0.00  0.00     0.070 C 
HETATM   29  C   UNK N   1      22.809  18.846   4.394  0.00  0.00    -0.014 C 
HETATM   30  C   UNK N   1      22.384  17.619   5.146  0.00  0.00     0.034 C 
HETATM   31  C   UNK N   1      21.502  17.993   6.323  0.00  0.00     0.017 C 
HETATM   32  C   UNK N   1      21.794  16.495   4.268  0.00  0.00     0.142 C 
HETATM   33  O   UNK N   1      22.626  16.180   3.212  0.00  0.00    -0.313 OA
HETATM   34  C   UNK N   1      23.404  15.065   3.180  0.00  0.00     0.283 C 
HETATM   35  O   UNK N   1      23.666  14.457   4.210  0.00  0.00    -0.263 OA
HETATM   36  H   UNK N   1      26.480  19.221   3.117  0.00  0.00     0.163 HD
ENDROOT
BRANCH   6  37
HETATM   37  S   UNK N   1      21.330  13.472   1.457  0.00  0.00     0.152 S 
HETATM   38  O   UNK N   1      20.097  14.230   0.941  0.00  0.00    -0.227 OA
HETATM   39  O   UNK N   1      21.193  12.254   0.540  0.00  0.00    -0.227 OA
BRANCH  37  40
HETATM   40  C   UNK N   1      20.984  12.605   3.013  0.00  0.00     0.171 C 
BRANCH  40  41
HETATM   41  C   UNK N   1      21.823  11.337   3.194  0.00  0.00     0.287 C 
BRANCH  41  42
HETATM   42  N   UNK N   1      22.626  11.274   4.429  0.00  0.00     0.088 N 
BRANCH  42  43
HETATM   43  C   UNK N   1      21.817  10.714   5.502  0.00  0.00     0.268 C 
HETATM   44  C   UNK N   1      21.733  11.695   6.660  0.00  0.00     0.037 C 
ENDBRANCH  42  43
BRANCH  42  45
HETATM   45  C   UNK N   1      23.844  10.474   4.306  0.00  0.00     0.268 C 
HETATM   46  C   UNK N   1      25.045  11.236   4.841  0.00  0.00     0.037 C 
ENDBRANCH  42  45
ENDBRANCH  41  42
ENDBRANCH  40  41
ENDBRANCH  37  40
ENDBRANCH   6  37
BRANCH  32  47
HETATM   47  C   UNK N   1      20.370  16.715   3.736  0.00  0.00     0.008 C 
HETATM   48  C   UNK N   1      20.342  17.092   2.270  0.00  0.00     0.012 C 
HETATM   49  C   UNK N   1      19.396  15.590   4.045  0.00  0.00     0.012 C 
ENDBRANCH  32  47
BRANCH  18  50
HETATM   50  O   UNK N   1      32.773  16.174   2.671  0.00  0.00    -0.391 OA
HETATM   51  H   UNK N   1      32.807  16.904   2.033  0.00  0.00     0.210 HD
ENDBRANCH  18  50
TORSDOF 8
ENDMDL
MODEL 3
REMARK VINA RESULT:      -7.5      2.796     10.184
REMARK  8 active torsions:
REMARK  status: ('A' for Active; 'I' for Inactive)
REMARK    1  A    between atoms: C_6  and  S_7 
REMARK    2  A    between atoms: C_10  and  S_7 
REMARK    3  A    between atoms: C_10  and  C_11 
REMARK    4  A    between atoms: C_11  and  N_12 
REMARK    5  A    between atoms: C_13  and  N_12 
REMARK    6  A    between atoms: C_15  and  N_12 
REMARK    7  A    between atoms: C_28  and  O_29 
REMARK    8  A    between atoms: C_43  and  C_44 
ROOT
HETATM    1  O   UNK N   1      34.826  12.788   9.181  0.00  0.00    -0.266 OA
HETATM    2  C   UNK N   1      34.795  11.813   8.444  0.00  0.00     0.273 C 
HETATM    3  N   UNK N   1      34.410  11.977   7.142  0.00  0.00    -0.331 N 
HETATM    4  C   UNK N   1      34.456  10.919   6.174  0.00  0.00     0.128 C 
HETATM    5  C   UNK N   1      34.876  11.620   4.894  0.00  0.00     0.042 C 
HETATM    6  C   UNK N   1      34.379  13.057   5.036  0.00  0.00     0.142 C 
HETATM    7  C   UNK N   1      34.342  13.300   6.558  0.00  0.00     0.205 C 
HETATM    8  C   UNK N   1      35.327  10.543   8.985  0.00  0.00     0.125 A 
HETATM    9  C   UNK N   1      35.362   9.272   8.429  0.00  0.00     0.179 A 
HETATM   10  O   UNK N   1      36.044   8.514   9.265  0.00  0.00    -0.307 OA
HETATM   11  N   UNK N   1      36.008  10.529  10.138  0.00  0.00    -0.334 N 
ATOM     12  HN  UNK N   1      36.168  11.309  10.776  1.00  0.00     0.168 HD
HETATM   13  C   UNK N   1      36.432   9.268  10.272  0.00  0.00     0.130 A 
HETATM   14  C   UNK N   1      37.247   8.815  11.441  0.00  0.00     0.162 C 
HETATM   15  C   UNK N   1      36.654   9.330  12.728  0.00  0.00     0.137 C 
HETATM   16  O   UNK N   1      35.458   9.565  12.807  0.00  0.00    -0.297 OA
HETATM   17  C   UNK N   1      37.518   9.515  13.936  0.00  0.00     0.114 C 
HETATM   18  C   UNK N   1      37.720  10.971  14.389  0.00  0.00     0.148 C 
HETATM   19  C   UNK N   1      36.601  11.971  14.166  0.00  0.00     0.011 C 
HETATM   20  C   UNK N   1      36.496  12.785  13.099  0.00  0.00    -0.064 C 
HETATM   21  C   UNK N   1      37.527  12.742  12.009  0.00  0.00     0.048 C 
HETATM   22  C   UNK N   1      35.367  13.758  13.067  0.00  0.00     0.004 C 
HETATM   23  C   UNK N   1      35.131  14.692  12.125  0.00  0.00    -0.007 C 
HETATM   24  C   UNK N   1      35.976  14.859  10.899  0.00  0.00     0.150 C 
HETATM   25  N   UNK N   1      35.757  16.115  10.216  0.00  0.00    -0.354 N 
HETATM   26  C   UNK N   1      34.567  16.485   9.688  0.00  0.00     0.241 C 
HETATM   27  O   UNK N   1      33.572  15.795   9.862  0.00  0.00    -0.269 OA
HETATM   28  C   UNK N   1      34.512  17.707   8.851  0.00  0.00     0.070 C 
HETATM   29  C   UNK N   1      33.473  18.069   8.080  0.00  0.00    -0.014 C 
HETATM   30  C   UNK N   1      32.202  17.275   7.998  0.00  0.00     0.034 C 
HETATM   31  C   UNK N   1      30.995  18.185   8.138  0.00  0.00     0.017 C 
HETATM   32  C   UNK N   1      32.115  16.319   6.789  0.00  0.00     0.142 C 
HETATM   33  O   UNK N   1      33.227  15.506   6.700  0.00  0.00    -0.313 OA
HETATM   34  C   UNK N   1      33.225  14.194   7.058  0.00  0.00     0.283 C 
HETATM   35  O   UNK N   1      32.348  13.747   7.786  0.00  0.00    -0.263 OA
HETATM   36  H   UNK N   1      36.517  16.735  10.130  0.00  0.00     0.163 HD
ENDROOT
BRANCH   6  37
HETATM   37  S   UNK N   1      32.810  13.223   4.109  0.00  0.00     0.152 S 
HETATM   38  O   UNK N   1      32.846  14.284   2.997  0.00  0.00    -0.227 OA
HETATM   39  O   UNK N   1      32.956  12.000   3.200  0.00  0.00    -0.227 OA
BRANCH  37  40
HETATM   40  C   UNK N   1      31.115  12.880   4.656  0.00  0.00     0.171 C 
BRANCH  40  41
HETATM   41  C   UNK N   1      30.215  12.357   3.533  0.00  0.00     0.287 C 
BRANCH  41  42
HETATM   42  N   UNK N   1      29.504  13.387   2.754  0.00  0.00     0.088 N 
BRANCH  42  43
HETATM   43  C   UNK N   1      29.185  12.859   1.435  0.00  0.00     0.268 C 
HETATM   44  C   UNK N   1      30.385  12.128   0.859  0.00  0.00     0.037 C 
ENDBRANCH  42  43
BRANCH  42  45
HETATM   45  C   UNK N   1      28.265  13.853   3.375  0.00  0.00     0.268 C 
HETATM   46  C   UNK N   1      27.659  14.996   2.579  0.00  0.00     0.037 C 
ENDBRANCH  42  45
ENDBRANCH  41  42
ENDBRANCH  40  41
ENDBRANCH  37  40
ENDBRANCH   6  37
BRANCH  32  47
HETATM   47  C   UNK N   1      31.852  16.964   5.421  0.00  0.00     0.008 C 
HETATM   48  C   UNK N   1      33.095  17.042   4.560  0.00  0.00     0.012 C 
HETATM   49  C   UNK N   1      30.677  16.377   4.657  0.00  0.00     0.012 C 
ENDBRANCH  32  47
BRANCH  18  50
HETATM   50  O   UNK N   1      38.978  11.467  14.039  0.00  0.00    -0.391 OA
HETATM   51  H   UNK N   1      39.749  11.944  13.694  0.00  0.00     0.210 HD
ENDBRANCH  18  50
TORSDOF 8
ENDMDL
MODEL 4
REMARK VINA RESULT:      -7.4      3.213      4.667
REMARK  8 active torsions:
REMARK  status: ('A' for Active; 'I' for Inactive)
REMARK    1  A    between atoms: C_6  and  S_7 
REMARK    2  A    between atoms: C_10  and  S_7 
REMARK    3  A    between atoms: C_10  and  C_11 
REMARK    4  A    between atoms: C_11  and  N_12 
REMARK    5  A    between atoms: C_13  and  N_12 
REMARK    6  A    between atoms: C_15  and  N_12 
REMARK    7  A    between atoms: C_28  and  O_29 
REMARK    8  A    between atoms: C_43  and  C_44 
ROOT
HETATM    1  O   UNK N   1      34.306  12.915   8.075  0.00  0.00    -0.266 OA
HETATM    2  C   UNK N   1      34.697  13.733   8.896  0.00  0.00     0.273 C 
HETATM    3  N   UNK N   1      35.400  13.298   9.985  0.00  0.00    -0.331 N 
HETATM    4  C   UNK N   1      36.000  14.189  10.936  0.00  0.00     0.128 C 
HETATM    5  C   UNK N   1      37.300  13.497  11.307  0.00  0.00     0.042 C 
HETATM    6  C   UNK N   1      37.041  12.006  11.101  0.00  0.00     0.142 C 
HETATM    7  C   UNK N   1      35.944  11.956  10.019  0.00  0.00     0.205 C 
HETATM    8  C   UNK N   1      34.507  15.162   8.564  0.00  0.00     0.125 A 
HETATM    9  C   UNK N   1      34.774  16.302   9.308  0.00  0.00     0.179 A 
HETATM   10  O   UNK N   1      34.535  17.331   8.519  0.00  0.00    -0.307 OA
HETATM   11  N   UNK N   1      34.131  15.529   7.332  0.00  0.00    -0.334 N 
ATOM     12  HN  UNK N   1      33.875  14.921   6.553  1.00  0.00     0.168 HD
HETATM   13  C   UNK N   1      34.163  16.866   7.347  0.00  0.00     0.130 A 
HETATM   14  C   UNK N   1      33.811  17.690   6.149  0.00  0.00     0.162 C 
HETATM   15  C   UNK N   1      32.542  17.182   5.515  0.00  0.00     0.137 C 
HETATM   16  O   UNK N   1      31.703  16.601   6.187  0.00  0.00    -0.297 OA
HETATM   17  C   UNK N   1      32.275  17.423   4.061  0.00  0.00     0.114 C 
HETATM   18  C   UNK N   1      32.267  16.169   3.171  0.00  0.00     0.148 C 
HETATM   19  C   UNK N   1      31.795  14.854   3.762  0.00  0.00     0.011 C 
HETATM   20  C   UNK N   1      32.599  13.920   4.306  0.00  0.00    -0.064 C 
HETATM   21  C   UNK N   1      34.083  14.142   4.369  0.00  0.00     0.048 C 
HETATM   22  C   UNK N   1      31.980  12.651   4.781  0.00  0.00     0.004 C 
HETATM   23  C   UNK N   1      32.619  11.580   5.290  0.00  0.00    -0.007 C 
HETATM   24  C   UNK N   1      34.102  11.530   5.506  0.00  0.00     0.150 C 
HETATM   25  N   UNK N   1      34.605  10.193   5.729  0.00  0.00    -0.354 N 
HETATM   26  C   UNK N   1      34.227   9.411   6.767  0.00  0.00     0.241 C 
HETATM   27  O   UNK N   1      33.341   9.777   7.526  0.00  0.00    -0.269 OA
HETATM   28  C   UNK N   1      34.951   8.137   6.995  0.00  0.00     0.070 C 
HETATM   29  C   UNK N   1      34.850   7.379   8.100  0.00  0.00    -0.014 C 
HETATM   30  C   UNK N   1      33.948   7.726   9.249  0.00  0.00     0.034 C 
HETATM   31  C   UNK N   1      33.143   6.514   9.680  0.00  0.00     0.017 C 
HETATM   32  C   UNK N   1      34.645   8.451  10.421  0.00  0.00     0.142 C 
HETATM   33  O   UNK N   1      35.362   9.550   9.989  0.00  0.00    -0.313 OA
HETATM   34  C   UNK N   1      34.937  10.831  10.151  0.00  0.00     0.283 C 
HETATM   35  O   UNK N   1      33.758  11.073  10.381  0.00  0.00    -0.263 OA
HETATM   36  H   UNK N   1      35.260   9.831   5.088  0.00  0.00     0.163 HD
ENDROOT
BRANCH   6  37
HETATM   37  S   UNK N   1      36.670  11.251  12.725  0.00  0.00     0.152 S 
HETATM   38  O   UNK N   1      37.601  10.089  13.106  0.00  0.00    -0.227 OA
HETATM   39  O   UNK N   1      37.324  12.308  13.619  0.00  0.00    -0.227 OA
BRANCH  37  40
HETATM   40  C   UNK N   1      35.092  11.167  13.616  0.00  0.00     0.171 C 
BRANCH  40  41
HETATM   41  C   UNK N   1      35.079  12.006  14.896  0.00  0.00     0.287 C 
BRANCH  41  42
HETATM   42  N   UNK N   1      34.805  11.266  16.142  0.00  0.00     0.088 N 
BRANCH  42  43
HETATM   43  C   UNK N   1      35.402   9.941  16.057  0.00  0.00     0.268 C 
HETATM   44  C   UNK N   1      36.810   9.964  16.625  0.00  0.00     0.037 C 
ENDBRANCH  42  43
BRANCH  42  45
HETATM   45  C   UNK N   1      35.312  11.922  17.347  0.00  0.00     0.268 C 
HETATM   46  C   UNK N   1      35.275  13.433  17.193  0.00  0.00     0.037 C 
ENDBRANCH  42  45
ENDBRANCH  41  42
ENDBRANCH  40  41
ENDBRANCH  37  40
ENDBRANCH   6  37
BRANCH  32  47
HETATM   47  C   UNK N   1      35.540   7.591  11.325  0.00  0.00     0.008 C 
HETATM   48  C   UNK N   1      37.014   7.759  11.024  0.00  0.00     0.012 C 
HETATM   49  C   UNK N   1      35.252   7.722  12.812  0.00  0.00     0.012 C 
ENDBRANCH  32  47
BRANCH  18  50
HETATM   50  O   UNK N   1      33.435  16.045   2.416  0.00  0.00    -0.391 OA
HETATM   51  H   UNK N   1      34.328  16.060   2.038  0.00  0.00     0.210 HD
ENDBRANCH  18  50
TORSDOF 8
ENDMDL
MODEL 5
REMARK VINA RESULT:      -7.3      3.704      8.743
REMARK  8 active torsions:
REMARK  status: ('A' for Active; 'I' for Inactive)
REMARK    1  A    between atoms: C_6  and  S_7 
REMARK    2  A    between atoms: C_10  and  S_7 
REMARK    3  A    between atoms: C_10  and  C_11 
REMARK    4  A    between atoms: C_11  and  N_12 
REMARK    5  A    between atoms: C_13  and  N_12 
REMARK    6  A    between atoms: C_15  and  N_12 
REMARK    7  A    between atoms: C_28  and  O_29 
REMARK    8  A    between atoms: C_43  and  C_44 
ROOT
HETATM    1  O   UNK N   1      34.644  12.035  10.316  0.00  0.00    -0.266 OA
HETATM    2  C   UNK N   1      34.980  13.211  10.301  0.00  0.00     0.273 C 
HETATM    3  N   UNK N   1      34.688  13.970   9.201  0.00  0.00    -0.331 N 
HETATM    4  C   UNK N   1      34.935  15.382   9.137  0.00  0.00     0.128 C 
HETATM    5  C   UNK N   1      33.754  15.919   8.349  0.00  0.00     0.042 C 
HETATM    6  C   UNK N   1      33.307  14.767   7.451  0.00  0.00     0.142 C 
HETATM    7  C   UNK N   1      33.738  13.499   8.215  0.00  0.00     0.205 C 
HETATM    8  C   UNK N   1      35.549  13.765  11.549  0.00  0.00     0.125 A 
HETATM    9  C   UNK N   1      36.079  15.019  11.817  0.00  0.00     0.179 A 
HETATM   10  O   UNK N   1      36.343  15.047  13.109  0.00  0.00    -0.307 OA
HETATM   11  N   UNK N   1      35.485  13.069  12.691  0.00  0.00    -0.334 N 
ATOM     12  HN  UNK N   1      35.136  12.119  12.822  1.00  0.00     0.168 HD
HETATM   13  C   UNK N   1      35.980  13.892  13.622  0.00  0.00     0.130 A 
HETATM   14  C   UNK N   1      36.087  13.502  15.062  0.00  0.00     0.162 C 
HETATM   15  C   UNK N   1      36.671  12.118  15.191  0.00  0.00     0.137 C 
HETATM   16  O   UNK N   1      37.418  11.679  14.330  0.00  0.00    -0.297 OA
HETATM   17  C   UNK N   1      36.376  11.284  16.399  0.00  0.00     0.114 C 
HETATM   18  C   UNK N   1      35.528  10.027  16.146  0.00  0.00     0.148 C 
HETATM   19  C   UNK N   1      35.656   9.312  14.814  0.00  0.00     0.011 C 
HETATM   20  C   UNK N   1      34.862   9.521  13.747  0.00  0.00    -0.064 C 
HETATM   21  C   UNK N   1      33.753  10.531  13.815  0.00  0.00     0.048 C 
HETATM   22  C   UNK N   1      35.081   8.684  12.534  0.00  0.00     0.004 C 
HETATM   23  C   UNK N   1      34.355   8.699  11.399  0.00  0.00    -0.007 C 
HETATM   24  C   UNK N   1      33.205   9.633  11.167  0.00  0.00     0.150 C 
HETATM   25  N   UNK N   1      32.369   9.249  10.052  0.00  0.00    -0.354 N 
HETATM   26  C   UNK N   1      32.813   9.160   8.776  0.00  0.00     0.241 C 
HETATM   27  O   UNK N   1      34.000   9.307   8.522  0.00  0.00    -0.269 OA
HETATM   28  C   UNK N   1      31.821   8.942   7.695  0.00  0.00     0.070 C 
HETATM   29  C   UNK N   1      32.074   9.062   6.381  0.00  0.00    -0.014 C 
HETATM   30  C   UNK N   1      33.429   9.410   5.838  0.00  0.00     0.034 C 
HETATM   31  C   UNK N   1      33.804   8.477   4.701  0.00  0.00     0.017 C 
HETATM   32  C   UNK N   1      33.624  10.904   5.498  0.00  0.00     0.142 C 
HETATM   33  O   UNK N   1      33.277  11.719   6.557  0.00  0.00    -0.313 OA
HETATM   34  C   UNK N   1      34.189  12.332   7.358  0.00  0.00     0.283 C 
HETATM   35  O   UNK N   1      35.347  11.939   7.400  0.00  0.00    -0.263 OA
HETATM   36  H   UNK N   1      31.423   9.041  10.231  0.00  0.00     0.163 HD
ENDROOT
BRANCH   6  37
HETATM   37  S   UNK N   1      33.999  15.030   5.779  0.00  0.00     0.152 S 
HETATM   38  O   UNK N   1      32.942  15.310   4.698  0.00  0.00    -0.227 OA
HETATM   39  O   UNK N   1      34.467  16.477   5.955  0.00  0.00    -0.227 OA
BRANCH  37  40
HETATM   40  C   UNK N   1      35.540  14.394   5.064  0.00  0.00     0.171 C 
BRANCH  40  41
HETATM   41  C   UNK N   1      36.759  14.628   5.960  0.00  0.00     0.287 C 
BRANCH  41  42
HETATM   42  N   UNK N   1      38.047  14.149   5.424  0.00  0.00     0.088 N 
BRANCH  42  43
HETATM   43  C   UNK N   1      38.631  13.193   6.353  0.00  0.00     0.268 C 
HETATM   44  C   UNK N   1      39.477  13.916   7.387  0.00  0.00     0.037 C 
ENDBRANCH  42  43
BRANCH  42  45
HETATM   45  C   UNK N   1      37.945  13.512   4.111  0.00  0.00     0.268 C 
HETATM   46  C   UNK N   1      38.847  12.293   4.033  0.00  0.00     0.037 C 
ENDBRANCH  42  45
ENDBRANCH  41  42
ENDBRANCH  40  41
ENDBRANCH  37  40
ENDBRANCH   6  37
BRANCH  32  47
HETATM   47  C   UNK N   1      32.934  11.414   4.224  0.00  0.00     0.008 C 
HETATM   48  C   UNK N   1      31.706  12.248   4.516  0.00  0.00     0.012 C 
HETATM   49  C   UNK N   1      33.859  12.103   3.234  0.00  0.00     0.012 C 
ENDBRANCH  32  47
BRANCH  18  50
HETATM   50  O   UNK N   1      34.204  10.186  16.559  0.00  0.00    -0.391 OA
HETATM   51  H   UNK N   1      33.282  10.099  16.847  0.00  0.00     0.210 HD
ENDBRANCH  18  50
TORSDOF 8
ENDMDL
MODEL 6
REMARK VINA RESULT:      -7.2      4.238     10.624
REMARK  8 active torsions:
REMARK  status: ('A' for Active; 'I' for Inactive)
REMARK    1  A    between atoms: C_6  and  S_7 
REMARK    2  A    between atoms: C_10  and  S_7 
REMARK    3  A    between atoms: C_10  and  C_11 
REMARK    4  A    between atoms: C_11  and  N_12 
REMARK    5  A    between atoms: C_13  and  N_12 
REMARK    6  A    between atoms: C_15  and  N_12 
REMARK    7  A    between atoms: C_28  and  O_29 
REMARK    8  A    between atoms: C_43  and  C_44 
ROOT
HETATM    1  O   UNK N   1      28.619  14.650   4.920  0.00  0.00    -0.266 OA
HETATM    2  C   UNK N   1      28.896  13.556   4.450  0.00  0.00     0.273 C 
HETATM    3  N   UNK N   1      27.966  12.908   3.683  0.00  0.00    -0.331 N 
HETATM    4  C   UNK N   1      28.239  11.680   2.994  0.00  0.00     0.128 C 
HETATM    5  C   UNK N   1      27.472  11.821   1.691  0.00  0.00     0.042 C 
HETATM    6  C   UNK N   1      26.303  12.753   2.005  0.00  0.00     0.142 C 
HETATM    7  C   UNK N   1      26.810  13.617   3.177  0.00  0.00     0.205 C 
HETATM    8  C   UNK N   1      30.286  13.080   4.623  0.00  0.00     0.125 A 
HETATM    9  C   UNK N   1      30.875  11.874   4.272  0.00  0.00     0.179 A 
HETATM   10  O   UNK N   1      32.161  11.992   4.537  0.00  0.00    -0.307 OA
HETATM   11  N   UNK N   1      31.235  13.910   5.074  0.00  0.00    -0.334 N 
ATOM     12  HN  UNK N   1      31.119  14.869   5.401  1.00  0.00     0.168 HD
HETATM   13  C   UNK N   1      32.369  13.204   5.003  0.00  0.00     0.130 A 
HETATM   14  C   UNK N   1      33.692  13.768   5.416  0.00  0.00     0.162 C 
HETATM   15  C   UNK N   1      33.572  14.477   6.740  0.00  0.00     0.137 C 
HETATM   16  O   UNK N   1      32.716  14.144   7.545  0.00  0.00    -0.297 OA
HETATM   17  C   UNK N   1      34.532  15.568   7.102  0.00  0.00     0.114 C 
HETATM   18  C   UNK N   1      33.924  16.977   7.208  0.00  0.00     0.148 C 
HETATM   19  C   UNK N   1      32.488  17.123   7.674  0.00  0.00     0.011 C 
HETATM   20  C   UNK N   1      31.419  17.206   6.860  0.00  0.00    -0.064 C 
HETATM   21  C   UNK N   1      31.594  17.148   5.370  0.00  0.00     0.048 C 
HETATM   22  C   UNK N   1      30.080  17.416   7.480  0.00  0.00     0.004 C 
HETATM   23  C   UNK N   1      28.909  17.587   6.836  0.00  0.00    -0.007 C 
HETATM   24  C   UNK N   1      28.772  17.541   5.344  0.00  0.00     0.150 C 
HETATM   25  N   UNK N   1      27.521  18.085   4.864  0.00  0.00    -0.354 N 
HETATM   26  C   UNK N   1      26.309  17.579   5.189  0.00  0.00     0.241 C 
HETATM   27  O   UNK N   1      26.214  16.677   6.009  0.00  0.00    -0.269 OA
HETATM   28  C   UNK N   1      25.111  18.102   4.487  0.00  0.00     0.070 C 
HETATM   29  C   UNK N   1      23.888  17.548   4.531  0.00  0.00    -0.014 C 
HETATM   30  C   UNK N   1      23.575  16.323   5.340  0.00  0.00     0.034 C 
HETATM   31  C   UNK N   1      22.305  16.526   6.146  0.00  0.00     0.017 C 
HETATM   32  C   UNK N   1      23.592  15.001   4.542  0.00  0.00     0.142 C 
HETATM   33  O   UNK N   1      24.764  14.851   3.827  0.00  0.00    -0.313 OA
HETATM   34  C   UNK N   1      25.768  14.015   4.203  0.00  0.00     0.283 C 
HETATM   35  O   UNK N   1      25.839  13.605   5.355  0.00  0.00    -0.263 OA
HETATM   36  H   UNK N   1      27.554  18.866   4.266  0.00  0.00     0.163 HD
ENDROOT
BRANCH   6  37
HETATM   37  S   UNK N   1      24.808  11.736   2.281  0.00  0.00     0.152 S 
HETATM   38  O   UNK N   1      23.665  12.017   1.292  0.00  0.00    -0.227 OA
HETATM   39  O   UNK N   1      25.296  10.438   1.633  0.00  0.00    -0.227 OA
BRANCH  37  40
HETATM   40  C   UNK N   1      24.199  10.988   3.818  0.00  0.00     0.171 C 
BRANCH  40  41
HETATM   41  C   UNK N   1      25.098   9.862   4.336  0.00  0.00     0.287 C 
BRANCH  41  42
HETATM   42  N   UNK N   1      24.934   9.518   5.760  0.00  0.00     0.088 N 
BRANCH  42  43
HETATM   43  C   UNK N   1      23.634   9.982   6.222  0.00  0.00     0.268 C 
HETATM   44  C   UNK N   1      23.676  10.252   7.717  0.00  0.00     0.037 C 
ENDBRANCH  42  43
BRANCH  42  45
HETATM   45  C   UNK N   1      25.039   8.087   6.042  0.00  0.00     0.268 C 
HETATM   46  C   UNK N   1      24.620   7.267   4.833  0.00  0.00     0.037 C 
ENDBRANCH  42  45
ENDBRANCH  41  42
ENDBRANCH  40  41
ENDBRANCH  37  40
ENDBRANCH   6  37
BRANCH  32  47
HETATM   47  C   UNK N   1      22.398  14.746   3.610  0.00  0.00     0.008 C 
HETATM   48  C   UNK N   1      22.736  14.961   2.150  0.00  0.00     0.012 C 
HETATM   49  C   UNK N   1      21.692  13.419   3.833  0.00  0.00     0.012 C 
ENDBRANCH  32  47
BRANCH  18  50
HETATM   50  O   UNK N   1      34.227  17.772   6.101  0.00  0.00    -0.391 OA
HETATM   51  H   UNK N   1      34.560  18.414   5.455  0.00  0.00     0.210 HD
ENDBRANCH  18  50
TORSDOF 8
ENDMDL
MODEL 7
REMARK VINA RESULT:      -7.0      4.552      7.270
REMARK  8 active torsions:
REMARK  status: ('A' for Active; 'I' for Inactive)
REMARK    1  A    between atoms: C_6  and  S_7 
REMARK    2  A    between atoms: C_10  and  S_7 
REMARK    3  A    between atoms: C_10  and  C_11 
REMARK    4  A    between atoms: C_11  and  N_12 
REMARK    5  A    between atoms: C_13  and  N_12 
REMARK    6  A    between atoms: C_15  and  N_12 
REMARK    7  A    between atoms: C_28  and  O_29 
REMARK    8  A    between atoms: C_43  and  C_44 
ROOT
HETATM    1  O   UNK N   1      35.363  11.575  10.797  0.00  0.00    -0.266 OA
HETATM    2  C   UNK N   1      35.743  12.137  11.814  0.00  0.00     0.273 C 
HETATM    3  N   UNK N   1      36.309  11.393  12.812  0.00  0.00    -0.331 N 
HETATM    4  C   UNK N   1      36.891  11.974  13.987  0.00  0.00     0.128 C 
HETATM    5  C   UNK N   1      38.093  11.090  14.269  0.00  0.00     0.042 C 
HETATM    6  C   UNK N   1      37.734   9.721  13.695  0.00  0.00     0.142 C 
HETATM    7  C   UNK N   1      36.738  10.033  12.560  0.00  0.00     0.205 C 
HETATM    8  C   UNK N   1      35.699  13.616  11.822  0.00  0.00     0.125 A 
HETATM    9  C   UNK N   1      35.990  14.519  12.834  0.00  0.00     0.179 A 
HETATM   10  O   UNK N   1      35.906  15.722  12.300  0.00  0.00    -0.307 OA
HETATM   11  N   UNK N   1      35.465  14.294  10.691  0.00  0.00    -0.334 N 
ATOM     12  HN  UNK N   1      35.232  13.913   9.774  1.00  0.00     0.168 HD
HETATM   13  C   UNK N   1      35.604  15.581  11.028  0.00  0.00     0.130 A 
HETATM   14  C   UNK N   1      35.428  16.691  10.042  0.00  0.00     0.162 C 
HETATM   15  C   UNK N   1      34.184  16.474   9.219  0.00  0.00     0.137 C 
HETATM   16  O   UNK N   1      33.244  15.839   9.675  0.00  0.00    -0.297 OA
HETATM   17  C   UNK N   1      34.068  17.071   7.851  0.00  0.00     0.114 C 
HETATM   18  C   UNK N   1      34.038  16.065   6.689  0.00  0.00     0.148 C 
HETATM   19  C   UNK N   1      33.411  14.702   6.914  0.00  0.00     0.011 C 
HETATM   20  C   UNK N   1      34.086  13.593   7.271  0.00  0.00    -0.064 C 
HETATM   21  C   UNK N   1      35.570  13.646   7.486  0.00  0.00     0.048 C 
HETATM   22  C   UNK N   1      33.326  12.316   7.386  0.00  0.00     0.004 C 
HETATM   23  C   UNK N   1      33.829  11.098   7.666  0.00  0.00    -0.007 C 
HETATM   24  C   UNK N   1      35.277  10.852   7.962  0.00  0.00     0.150 C 
HETATM   25  N   UNK N   1      35.649   9.456   7.892  0.00  0.00    -0.354 N 
HETATM   26  C   UNK N   1      35.118   8.497   8.685  0.00  0.00     0.241 C 
HETATM   27  O   UNK N   1      34.200   8.762   9.448  0.00  0.00    -0.269 OA
HETATM   28  C   UNK N   1      35.714   7.139   8.650  0.00  0.00     0.070 C 
HETATM   29  C   UNK N   1      35.454   6.159   9.532  0.00  0.00    -0.014 C 
HETATM   30  C   UNK N   1      34.484   6.318  10.667  0.00  0.00     0.034 C 
HETATM   31  C   UNK N   1      33.549   5.125  10.740  0.00  0.00     0.017 C 
HETATM   32  C   UNK N   1      35.130   6.678  12.023  0.00  0.00     0.142 C 
HETATM   33  O   UNK N   1      35.969   7.769  11.916  0.00  0.00    -0.313 OA
HETATM   34  C   UNK N   1      35.635   9.014  12.351  0.00  0.00     0.283 C 
HETATM   35  O   UNK N   1      34.465   9.311  12.552  0.00  0.00    -0.263 OA
HETATM   36  H   UNK N   1      36.327   9.190   7.230  0.00  0.00     0.163 HD
ENDROOT
BRANCH   6  37
HETATM   37  S   UNK N   1      37.160   8.649  15.062  0.00  0.00     0.152 S 
HETATM   38  O   UNK N   1      37.984   7.364  15.242  0.00  0.00    -0.227 OA
HETATM   39  O   UNK N   1      37.776   9.426  16.229  0.00  0.00    -0.227 OA
BRANCH  37  40
HETATM   40  C   UNK N   1      35.497   8.487  15.769  0.00  0.00     0.171 C 
BRANCH  40  41
HETATM   41  C   UNK N   1      34.883   9.830  16.173  0.00  0.00     0.287 C 
BRANCH  41  42
HETATM   42  N   UNK N   1      34.535   9.970  17.598  0.00  0.00     0.088 N 
BRANCH  42  43
HETATM   43  C   UNK N   1      34.825   8.722  18.291  0.00  0.00     0.268 C 
HETATM   44  C   UNK N   1      33.696   8.381  19.249  0.00  0.00     0.037 C 
ENDBRANCH  42  43
BRANCH  42  45
HETATM   45  C   UNK N   1      35.245  11.051  18.281  0.00  0.00     0.268 C 
HETATM   46  C   UNK N   1      35.308  12.291  17.406  0.00  0.00     0.037 C 
ENDBRANCH  42  45
ENDBRANCH  41  42
ENDBRANCH  40  41
ENDBRANCH  37  40
ENDBRANCH   6  37
BRANCH  32  47
HETATM   47  C   UNK N   1      35.868   5.546  12.753  0.00  0.00     0.008 C 
HETATM   48  C   UNK N   1      37.373   5.662  12.646  0.00  0.00     0.012 C 
HETATM   49  C   UNK N   1      35.423   5.321  14.189  0.00  0.00     0.012 C 
ENDBRANCH  32  47
BRANCH  18  50
HETATM   50  O   UNK N   1      35.255  16.005   6.006  0.00  0.00    -0.391 OA
HETATM   51  H   UNK N   1      36.046  15.777   5.493  0.00  0.00     0.210 HD
ENDBRANCH  18  50
TORSDOF 8
ENDMDL
MODEL 8
REMARK VINA RESULT:      -7.0      5.367     11.370
REMARK  8 active torsions:
REMARK  status: ('A' for Active; 'I' for Inactive)
REMARK    1  A    between atoms: C_6  and  S_7 
REMARK    2  A    between atoms: C_10  and  S_7 
REMARK    3  A    between atoms: C_10  and  C_11 
REMARK    4  A    between atoms: C_11  and  N_12 
REMARK    5  A    between atoms: C_13  and  N_12 
REMARK    6  A    between atoms: C_15  and  N_12 
REMARK    7  A    between atoms: C_28  and  O_29 
REMARK    8  A    between atoms: C_43  and  C_44 
ROOT
HETATM    1  O   UNK N   1      27.153  14.485   3.937  0.00  0.00    -0.266 OA
HETATM    2  C   UNK N   1      26.657  15.377   4.609  0.00  0.00     0.273 C 
HETATM    3  N   UNK N   1      25.306  15.374   4.823  0.00  0.00    -0.331 N 
HETATM    4  C   UNK N   1      24.649  16.308   5.692  0.00  0.00     0.128 C 
HETATM    5  C   UNK N   1      23.556  15.483   6.347  0.00  0.00     0.042 C 
HETATM    6  C   UNK N   1      23.220  14.382   5.343  0.00  0.00     0.142 C 
HETATM    7  C   UNK N   1      24.520  14.192   4.536  0.00  0.00     0.205 C 
HETATM    8  C   UNK N   1      27.587  16.318   5.272  0.00  0.00     0.125 A 
HETATM    9  C   UNK N   1      27.331  17.454   6.026  0.00  0.00     0.179 A 
HETATM   10  O   UNK N   1      28.495  17.870   6.485  0.00  0.00    -0.307 OA
HETATM   11  N   UNK N   1      28.900  16.060   5.309  0.00  0.00    -0.334 N 
ATOM     12  HN  UNK N   1      29.396  15.291   4.859  1.00  0.00     0.168 HD
HETATM   13  C   UNK N   1      29.420  17.034   6.064  0.00  0.00     0.130 A 
HETATM   14  C   UNK N   1      30.881  17.121   6.367  0.00  0.00     0.162 C 
HETATM   15  C   UNK N   1      31.693  16.911   5.114  0.00  0.00     0.137 C 
HETATM   16  O   UNK N   1      31.226  17.193   4.020  0.00  0.00    -0.297 OA
HETATM   17  C   UNK N   1      33.096  16.396   5.200  0.00  0.00     0.114 C 
HETATM   18  C   UNK N   1      33.324  14.992   4.615  0.00  0.00     0.148 C 
HETATM   19  C   UNK N   1      32.483  14.544   3.435  0.00  0.00     0.011 C 
HETATM   20  C   UNK N   1      31.342  13.836   3.526  0.00  0.00    -0.064 C 
HETATM   21  C   UNK N   1      30.804  13.436   4.869  0.00  0.00     0.048 C 
HETATM   22  C   UNK N   1      30.673  13.417   2.261  0.00  0.00     0.004 C 
HETATM   23  C   UNK N   1      29.568  12.656   2.146  0.00  0.00    -0.007 C 
HETATM   24  C   UNK N   1      28.793  12.141   3.321  0.00  0.00     0.150 C 
HETATM   25  N   UNK N   1      27.869  11.082   2.980  0.00  0.00    -0.354 N 
HETATM   26  C   UNK N   1      26.839  11.233   2.115  0.00  0.00     0.241 C 
HETATM   27  O   UNK N   1      26.705  12.274   1.489  0.00  0.00    -0.269 OA
HETATM   28  C   UNK N   1      25.850  10.134   1.992  0.00  0.00     0.070 C 
HETATM   29  C   UNK N   1      24.668  10.227   1.361  0.00  0.00    -0.014 C 
HETATM   30  C   UNK N   1      24.210  11.476   0.665  0.00  0.00     0.034 C 
HETATM   31  C   UNK N   1      23.672  11.149  -0.717  0.00  0.00     0.017 C 
HETATM   32  C   UNK N   1      23.266  12.370   1.497  0.00  0.00     0.142 C 
HETATM   33  O   UNK N   1      23.791  12.648   2.743  0.00  0.00    -0.313 OA
HETATM   34  C   UNK N   1      24.344  13.846   3.071  0.00  0.00     0.283 C 
HETATM   35  O   UNK N   1      24.710  14.624   2.199  0.00  0.00    -0.263 OA
HETATM   36  H   UNK N   1      27.996  10.202   3.403  0.00  0.00     0.163 HD
ENDROOT
BRANCH   6  37
HETATM   37  S   UNK N   1      21.713  14.871   4.427  0.00  0.00     0.152 S 
HETATM   38  O   UNK N   1      20.558  13.863   4.533  0.00  0.00    -0.227 OA
HETATM   39  O   UNK N   1      21.161  15.888   5.429  0.00  0.00    -0.227 OA
BRANCH  37  40
HETATM   40  C   UNK N   1      21.558  15.920   2.954  0.00  0.00     0.171 C 
BRANCH  40  41
HETATM   41  C   UNK N   1      20.617  17.109   3.160  0.00  0.00     0.287 C 
BRANCH  41  42
HETATM   42  N   UNK N   1      21.173  18.430   2.815  0.00  0.00     0.088 N 
BRANCH  42  43
HETATM   43  C   UNK N   1      20.113  19.278   2.288  0.00  0.00     0.268 C 
HETATM   44  C   UNK N   1      20.694  20.585   1.775  0.00  0.00     0.037 C 
ENDBRANCH  42  43
BRANCH  42  45
HETATM   45  C   UNK N   1      21.801  19.124   3.939  0.00  0.00     0.268 C 
HETATM   46  C   UNK N   1      23.315  19.072   3.827  0.00  0.00     0.037 C 
ENDBRANCH  42  45
ENDBRANCH  41  42
ENDBRANCH  40  41
ENDBRANCH  37  40
ENDBRANCH   6  37
BRANCH  32  47
HETATM   47  C   UNK N   1      21.820  11.877   1.659  0.00  0.00     0.008 C 
HETATM   48  C   UNK N   1      21.544  11.313   3.036  0.00  0.00     0.012 C 
HETATM   49  C   UNK N   1      20.757  12.879   1.240  0.00  0.00     0.012 C 
ENDBRANCH  32  47
BRANCH  18  50
HETATM   50  O   UNK N   1      33.444  14.016   5.606  0.00  0.00    -0.391 OA
HETATM   51  H   UNK N   1      33.488  13.213   6.149  0.00  0.00     0.210 HD
ENDBRANCH  18  50
TORSDOF 8
ENDMDL
MODEL 9
REMARK VINA RESULT:      -6.9      5.661      9.464
REMARK  8 active torsions:
REMARK  status: ('A' for Active; 'I' for Inactive)
REMARK    1  A    between atoms: C_6  and  S_7 
REMARK    2  A    between atoms: C_10  and  S_7 
REMARK    3  A    between atoms: C_10  and  C_11 
REMARK    4  A    between atoms: C_11  and  N_12 
REMARK    5  A    between atoms: C_13  and  N_12 
REMARK    6  A    between atoms: C_15  and  N_12 
REMARK    7  A    between atoms: C_28  and  O_29 
REMARK    8  A    between atoms: C_43  and  C_44 
ROOT
HETATM    1  O   UNK N   1      25.016  16.063   3.537  0.00  0.00    -0.266 OA
HETATM    2  C   UNK N   1      24.486  14.973   3.382  0.00  0.00     0.273 C 
HETATM    3  N   UNK N   1      25.196  13.841   3.676  0.00  0.00    -0.331 N 
HETATM    4  C   UNK N   1      24.623  12.526   3.640  0.00  0.00     0.128 C 
HETATM    5  C   UNK N   1      25.285  11.813   4.806  0.00  0.00     0.042 C 
HETATM    6  C   UNK N   1      26.640  12.496   4.984  0.00  0.00     0.142 C 
HETATM    7  C   UNK N   1      26.422  13.923   4.443  0.00  0.00     0.205 C 
HETATM    8  C   UNK N   1      23.049  14.967   3.029  0.00  0.00     0.125 A 
HETATM    9  C   UNK N   1      22.202  13.911   2.723  0.00  0.00     0.179 A 
HETATM   10  O   UNK N   1      20.994  14.424   2.595  0.00  0.00    -0.307 OA
HETATM   11  N   UNK N   1      22.329  16.093   3.098  0.00  0.00    -0.334 N 
ATOM     12  HN  UNK N   1      22.663  17.033   3.310  1.00  0.00     0.168 HD
HETATM   13  C   UNK N   1      21.074  15.716   2.827  0.00  0.00     0.130 A 
HETATM   14  C   UNK N   1      19.934  16.682   2.804  0.00  0.00     0.162 C 
HETATM   15  C   UNK N   1      20.308  17.922   2.033  0.00  0.00     0.137 C 
HETATM   16  O   UNK N   1      21.149  17.869   1.148  0.00  0.00    -0.297 OA
HETATM   17  C   UNK N   1      19.623  19.223   2.315  0.00  0.00     0.114 C 
HETATM   18  C   UNK N   1      20.507  20.318   2.934  0.00  0.00     0.148 C 
HETATM   19  C   UNK N   1      21.979  20.365   2.570  0.00  0.00     0.011 C 
HETATM   20  C   UNK N   1      22.968  19.788   3.278  0.00  0.00    -0.064 C 
HETATM   21  C   UNK N   1      22.653  19.018   4.528  0.00  0.00     0.048 C 
HETATM   22  C   UNK N   1      24.370  19.988   2.817  0.00  0.00     0.004 C 
HETATM   23  C   UNK N   1      25.491  19.548   3.423  0.00  0.00    -0.007 C 
HETATM   24  C   UNK N   1      25.484  18.720   4.671  0.00  0.00     0.150 C 
HETATM   25  N   UNK N   1      26.771  18.656   5.326  0.00  0.00    -0.354 N 
HETATM   26  C   UNK N   1      27.882  18.138   4.752  0.00  0.00     0.241 C 
HETATM   27  O   UNK N   1      27.865  17.784   3.582  0.00  0.00    -0.269 OA
HETATM   28  C   UNK N   1      29.093  17.956   5.588  0.00  0.00     0.070 C 
HETATM   29  C   UNK N   1      30.180  17.252   5.229  0.00  0.00    -0.014 C 
HETATM   30  C   UNK N   1      30.311  16.576   3.895  0.00  0.00     0.034 C 
HETATM   31  C   UNK N   1      31.662  16.881   3.274  0.00  0.00     0.017 C 
HETATM   32  C   UNK N   1      29.959  15.073   3.896  0.00  0.00     0.142 C 
HETATM   33  O   UNK N   1      28.723  14.837   4.464  0.00  0.00    -0.313 OA
HETATM   34  C   UNK N   1      27.608  14.551   3.739  0.00  0.00     0.283 C 
HETATM   35  O   UNK N   1      27.558  14.812   2.544  0.00  0.00    -0.263 OA
HETATM   36  H   UNK N   1      26.843  19.009   6.243  0.00  0.00     0.163 HD
ENDROOT
BRANCH   6  37
HETATM   37  S   UNK N   1      27.919  11.466   4.179  0.00  0.00     0.152 S 
HETATM   38  O   UNK N   1      29.212  11.315   4.998  0.00  0.00    -0.227 OA
HETATM   39  O   UNK N   1      27.336  10.088   4.504  0.00  0.00    -0.227 OA
BRANCH  37  40
HETATM   40  C   UNK N   1      28.203  11.165   2.413  0.00  0.00     0.171 C 
BRANCH  40  41
HETATM   41  C   UNK N   1      29.440  11.886   1.871  0.00  0.00     0.287 C 
BRANCH  41  42
HETATM   42  N   UNK N   1      30.461  11.024   1.250  0.00  0.00     0.088 N 
BRANCH  42  43
HETATM   43  C   UNK N   1      31.203  11.790   0.260  0.00  0.00     0.268 C 
HETATM   44  C   UNK N   1      30.531  11.680  -1.098  0.00  0.00     0.037 C 
ENDBRANCH  42  43
BRANCH  42  45
HETATM   45  C   UNK N   1      31.416  10.453   2.200  0.00  0.00     0.268 C 
HETATM   46  C   UNK N   1      31.365   8.935   2.170  0.00  0.00     0.037 C 
ENDBRANCH  42  45
ENDBRANCH  41  42
ENDBRANCH  40  41
ENDBRANCH  37  40
ENDBRANCH   6  37
BRANCH  32  47
HETATM   47  C   UNK N   1      30.991  14.126   4.527  0.00  0.00     0.008 C 
HETATM   48  C   UNK N   1      32.158  13.835   3.609  0.00  0.00     0.012 C 
HETATM   49  C   UNK N   1      31.456  14.530   5.916  0.00  0.00     0.012 C 
ENDBRANCH  32  47
BRANCH  18  50
HETATM   50  O   UNK N   1      20.274  20.481   4.301  0.00  0.00    -0.391 OA
HETATM   51  H   UNK N   1      19.922  20.591   5.199  0.00  0.00     0.210 HD
ENDBRANCH  18  50
TORSDOF 8
ENDMDL
