MODEL 1
REMARK VINA RESULT:      -5.4      0.000      0.000
REMARK  3 active torsions:
REMARK  status: ('A' for Active; 'I' for Inactive)
REMARK    1  A    between atoms: C_2  and  C_4 
REMARK    2  A    between atoms: C_4  and  C_5 
REMARK    3  A    between atoms: C_5  and  C_6 
ROOT
HETATM    1  C   UNK N   1      32.802  16.402   7.597  0.00  0.00     0.128 A 
HETATM    2  C   UNK N   1      32.900  15.760   8.980  0.00  0.00     0.244 A 
HETATM    3  O   UNK N   1      32.087  14.912   9.313  0.00  0.00    -0.272 OA
HETATM    4  N   UNK N   1      33.860  16.128   9.863  0.00  0.00    -0.278 N 
HETATM    5  C   UNK N   1      34.794  17.066   9.581  0.00  0.00     0.329 A 
HETATM    6  O   UNK N   1      35.615  17.370  10.430  0.00  0.00    -0.247 OA
HETATM    7  N   UNK N   1      34.832  17.673   8.372  0.00  0.00    -0.278 N 
HETATM    8  C   UNK N   1      33.935  17.406   7.392  0.00  0.00     0.244 A 
HETATM    9  O   UNK N   1      34.040  17.992   6.324  0.00  0.00    -0.272 OA
HETATM   10  H   UNK N   1      33.878  15.694  10.747  0.00  0.00     0.173 HD
HETATM   11  H   UNK N   1      35.540  18.334   8.197  0.00  0.00     0.173 HD
ENDROOT
BRANCH   1  12
HETATM   12  C   UNK N   1      32.866  15.317   6.483  0.00  0.00     0.005 C 
HETATM   13  C   UNK N   1      31.523  14.657   6.187  0.00  0.00     0.011 C 
HETATM   14  C   UNK N   1      33.905  14.237   6.748  0.00  0.00     0.011 C 
ENDBRANCH   1  12
BRANCH   1  15
HETATM   15  C   UNK N   1      31.449  17.152   7.553  0.00  0.00     0.056 C 
BRANCH  15  16
HETATM   16  C   UNK N   1      31.232  18.199   8.611  0.00  0.00    -0.035 C 
HETATM   17  C   UNK N   1      30.015  18.496   9.058  0.00  0.00     0.007 C 
ENDBRANCH  15  16
ENDBRANCH   1  15
TORSDOF 3
ENDMDL
MODEL 2
REMARK VINA RESULT:      -5.2      6.847      8.635
REMARK  3 active torsions:
REMARK  status: ('A' for Active; 'I' for Inactive)
REMARK    1  A    between atoms: C_2  and  C_4 
REMARK    2  A    between atoms: C_4  and  C_5 
REMARK    3  A    between atoms: C_5  and  C_6 
ROOT
HETATM    1  C   UNK N   1      35.827  12.866  14.966  0.00  0.00     0.128 A 
HETATM    2  C   UNK N   1      36.686  14.125  14.868  0.00  0.00     0.244 A 
HETATM    3  O   UNK N   1      37.367  14.469  15.821  0.00  0.00    -0.272 OA
HETATM    4  N   UNK N   1      36.694  14.889  13.749  0.00  0.00    -0.278 N 
HETATM    5  C   UNK N   1      35.962  14.588  12.651  0.00  0.00     0.329 A 
HETATM    6  O   UNK N   1      35.994  15.333  11.685  0.00  0.00    -0.247 OA
HETATM    7  N   UNK N   1      35.195  13.474  12.607  0.00  0.00    -0.278 N 
HETATM    8  C   UNK N   1      35.089  12.617  13.651  0.00  0.00     0.244 A 
HETATM    9  O   UNK N   1      34.380  11.629  13.531  0.00  0.00    -0.272 OA
HETATM   10  H   UNK N   1      37.256  15.698  13.734  0.00  0.00     0.173 HD
HETATM   11  H   UNK N   1      34.694  13.278  11.783  0.00  0.00     0.173 HD
ENDROOT
BRANCH   1  12
HETATM   12  C   UNK N   1      36.705  11.627  15.307  0.00  0.00     0.005 C 
HETATM   13  C   UNK N   1      37.814  11.360  14.295  0.00  0.00     0.011 C 
HETATM   14  C   UNK N   1      35.900  10.352  15.513  0.00  0.00     0.011 C 
ENDBRANCH   1  12
BRANCH   1  15
HETATM   15  C   UNK N   1      34.789  13.125  16.085  0.00  0.00     0.056 C 
BRANCH  15  16
HETATM   16  C   UNK N   1      35.211  12.762  17.483  0.00  0.00    -0.035 C 
HETATM   17  C   UNK N   1      35.174  13.649  18.474  0.00  0.00     0.007 C 
ENDBRANCH  15  16
ENDBRANCH   1  15
TORSDOF 3
ENDMDL
MODEL 3
REMARK VINA RESULT:      -5.1      1.044      3.689
REMARK  3 active torsions:
REMARK  status: ('A' for Active; 'I' for Inactive)
REMARK    1  A    between atoms: C_2  and  C_4 
REMARK    2  A    between atoms: C_4  and  C_5 
REMARK    3  A    between atoms: C_5  and  C_6 
ROOT
HETATM    1  C   UNK N   1      33.245  16.224   7.704  0.00  0.00     0.128 A 
HETATM    2  C   UNK N   1      34.174  17.420   7.896  0.00  0.00     0.244 A 
HETATM    3  O   UNK N   1      34.341  18.211   6.981  0.00  0.00    -0.272 OA
HETATM    4  N   UNK N   1      34.843  17.617   9.058  0.00  0.00    -0.278 N 
HETATM    5  C   UNK N   1      34.726  16.786  10.120  0.00  0.00     0.329 A 
HETATM    6  O   UNK N   1      35.376  17.004  11.129  0.00  0.00    -0.247 OA
HETATM    7  N   UNK N   1      33.899  15.715  10.081  0.00  0.00    -0.278 N 
HETATM    8  C   UNK N   1      33.169  15.395   8.985  0.00  0.00     0.244 A 
HETATM    9  O   UNK N   1      32.440  14.414   9.031  0.00  0.00    -0.272 OA
HETATM   10  H   UNK N   1      35.440  18.397   9.133  0.00  0.00     0.173 HD
HETATM   11  H   UNK N   1      33.825  15.146  10.881  0.00  0.00     0.173 HD
ENDROOT
BRANCH   1  12
HETATM   12  C   UNK N   1      31.815  16.696   7.310  0.00  0.00     0.005 C 
HETATM   13  C   UNK N   1      31.689  17.130   5.853  0.00  0.00     0.011 C 
HETATM   14  C   UNK N   1      31.274  17.800   8.208  0.00  0.00     0.011 C 
ENDBRANCH   1  12
BRANCH   1  15
HETATM   15  C   UNK N   1      33.864  15.359   6.580  0.00  0.00     0.056 C 
BRANCH  15  16
HETATM   16  C   UNK N   1      35.251  14.831   6.831  0.00  0.00    -0.035 C 
HETATM   17  C   UNK N   1      36.132  14.694   5.845  0.00  0.00     0.007 C 
ENDBRANCH  15  16
ENDBRANCH   1  15
TORSDOF 3
ENDMDL
MODEL 4
REMARK VINA RESULT:      -5.0      2.254      3.280
REMARK  3 active torsions:
REMARK  status: ('A' for Active; 'I' for Inactive)
REMARK    1  A    between atoms: C_2  and  C_4 
REMARK    2  A    between atoms: C_4  and  C_5 
REMARK    3  A    between atoms: C_5  and  C_6 
ROOT
HETATM    1  C   UNK N   1      33.723  16.526   6.824  0.00  0.00     0.128 A 
HETATM    2  C   UNK N   1      32.378  15.841   7.054  0.00  0.00     0.244 A 
HETATM    3  O   UNK N   1      32.161  14.748   6.553  0.00  0.00    -0.272 OA
HETATM    4  N   UNK N   1      31.400  16.429   7.784  0.00  0.00    -0.278 N 
HETATM    5  C   UNK N   1      31.551  17.642   8.366  0.00  0.00     0.329 A 
HETATM    6  O   UNK N   1      30.622  18.129   8.990  0.00  0.00    -0.247 OA
HETATM    7  N   UNK N   1      32.715  18.325   8.267  0.00  0.00    -0.278 N 
HETATM    8  C   UNK N   1      33.778  17.860   7.567  0.00  0.00     0.244 A 
HETATM    9  O   UNK N   1      34.797  18.533   7.530  0.00  0.00    -0.272 OA
HETATM   10  H   UNK N   1      30.544  15.955   7.897  0.00  0.00     0.173 HD
HETATM   11  H   UNK N   1      32.793  19.195   8.722  0.00  0.00     0.173 HD
ENDROOT
BRANCH   1  12
HETATM   12  C   UNK N   1      34.891  15.617   7.309  0.00  0.00     0.005 C 
HETATM   13  C   UNK N   1      35.384  14.632   6.254  0.00  0.00     0.011 C 
HETATM   14  C   UNK N   1      34.577  14.861   8.591  0.00  0.00     0.011 C 
ENDBRANCH   1  12
BRANCH   1  15
HETATM   15  C   UNK N   1      33.831  16.791   5.303  0.00  0.00     0.056 C 
BRANCH  15  16
HETATM   16  C   UNK N   1      32.706  17.571   4.680  0.00  0.00    -0.035 C 
HETATM   17  C   UNK N   1      32.225  17.260   3.480  0.00  0.00     0.007 C 
ENDBRANCH  15  16
ENDBRANCH   1  15
TORSDOF 3
ENDMDL
MODEL 5
REMARK VINA RESULT:      -4.8      6.309      7.874
REMARK  3 active torsions:
REMARK  status: ('A' for Active; 'I' for Inactive)
REMARK    1  A    between atoms: C_2  and  C_4 
REMARK    2  A    between atoms: C_4  and  C_5 
REMARK    3  A    between atoms: C_5  and  C_6 
ROOT
HETATM    1  C   UNK N   1      35.658  12.523  13.766  0.00  0.00     0.128 A 
HETATM    2  C   UNK N   1      36.919  11.666  13.663  0.00  0.00     0.244 A 
HETATM    3  O   UNK N   1      37.153  10.829  14.521  0.00  0.00    -0.272 OA
HETATM    4  N   UNK N   1      37.803  11.828  12.650  0.00  0.00    -0.278 N 
HETATM    5  C   UNK N   1      37.628  12.738  11.663  0.00  0.00     0.329 A 
HETATM    6  O   UNK N   1      38.475  12.852  10.793  0.00  0.00    -0.247 OA
HETATM    7  N   UNK N   1      36.527  13.524  11.626  0.00  0.00    -0.278 N 
HETATM    8  C   UNK N   1      35.560  13.473  12.573  0.00  0.00     0.244 A 
HETATM    9  O   UNK N   1      34.592  14.213  12.465  0.00  0.00    -0.272 OA
HETATM   10  H   UNK N   1      38.608  11.260  12.630  0.00  0.00     0.173 HD
HETATM   11  H   UNK N   1      36.425  14.159  10.881  0.00  0.00     0.173 HD
ENDROOT
BRANCH   1  12
HETATM   12  C   UNK N   1      34.387  11.626  13.817  0.00  0.00     0.005 C 
HETATM   13  C   UNK N   1      34.119  11.014  15.188  0.00  0.00     0.011 C 
HETATM   14  C   UNK N   1      34.383  10.523  12.769  0.00  0.00     0.011 C 
ENDBRANCH   1  12
BRANCH   1  15
HETATM   15  C   UNK N   1      35.793  13.355  15.064  0.00  0.00     0.056 C 
BRANCH  15  16
HETATM   16  C   UNK N   1      37.092  14.090  15.253  0.00  0.00    -0.035 C 
HETATM   17  C   UNK N   1      37.153  15.231  15.934  0.00  0.00     0.007 C 
ENDBRANCH  15  16
ENDBRANCH   1  15
TORSDOF 3
ENDMDL
MODEL 6
REMARK VINA RESULT:      -4.8     17.007     18.241
REMARK  3 active torsions:
REMARK  status: ('A' for Active; 'I' for Inactive)
REMARK    1  A    between atoms: C_2  and  C_4 
REMARK    2  A    between atoms: C_4  and  C_5 
REMARK    3  A    between atoms: C_5  and  C_6 
ROOT
HETATM    1  C   UNK N   1      26.415  26.455  -5.491  0.00  0.00     0.128 A 
HETATM    2  C   UNK N   1      25.309  27.410  -5.046  0.00  0.00     0.244 A 
HETATM    3  O   UNK N   1      24.229  27.395  -5.616  0.00  0.00    -0.272 OA
HETATM    4  N   UNK N   1      25.504  28.299  -4.042  0.00  0.00    -0.278 N 
HETATM    5  C   UNK N   1      26.672  28.392  -3.363  0.00  0.00     0.329 A 
HETATM    6  O   UNK N   1      26.792  29.232  -2.486  0.00  0.00    -0.247 OA
HETATM    7  N   UNK N   1      27.709  27.569  -3.641  0.00  0.00    -0.278 N 
HETATM    8  C   UNK N   1      27.657  26.632  -4.619  0.00  0.00     0.244 A 
HETATM    9  O   UNK N   1      28.635  25.922  -4.806  0.00  0.00    -0.272 OA
HETATM   10  H   UNK N   1      24.766  28.903  -3.795  0.00  0.00     0.173 HD
HETATM   11  H   UNK N   1      28.535  27.652  -3.111  0.00  0.00     0.173 HD
ENDROOT
BRANCH   1  12
HETATM   12  C   UNK N   1      25.931  24.978  -5.406  0.00  0.00     0.005 C 
HETATM   13  C   UNK N   1      26.216  24.313  -4.064  0.00  0.00     0.011 C 
HETATM   14  C   UNK N   1      26.473  24.099  -6.524  0.00  0.00     0.011 C 
ENDBRANCH   1  12
BRANCH   1  15
HETATM   15  C   UNK N   1      26.764  26.833  -6.951  0.00  0.00     0.056 C 
BRANCH  15  16
HETATM   16  C   UNK N   1      27.568  28.091  -7.140  0.00  0.00    -0.035 C 
HETATM   17  C   UNK N   1      28.550  28.161  -8.035  0.00  0.00     0.007 C 
ENDBRANCH  15  16
ENDBRANCH   1  15
TORSDOF 3
ENDMDL
MODEL 7
REMARK VINA RESULT:      -4.8      1.815      3.762
REMARK  3 active torsions:
REMARK  status: ('A' for Active; 'I' for Inactive)
REMARK    1  A    between atoms: C_2  and  C_4 
REMARK    2  A    between atoms: C_4  and  C_5 
REMARK    3  A    between atoms: C_5  and  C_6 
ROOT
HETATM    1  C   UNK N   1      33.676  16.032   7.569  0.00  0.00     0.128 A 
HETATM    2  C   UNK N   1      33.700  17.558   7.618  0.00  0.00     0.244 A 
HETATM    3  O   UNK N   1      34.692  18.161   7.237  0.00  0.00    -0.272 OA
HETATM    4  N   UNK N   1      32.650  18.267   8.099  0.00  0.00    -0.278 N 
HETATM    5  C   UNK N   1      31.517  17.682   8.551  0.00  0.00     0.329 A 
HETATM    6  O   UNK N   1      30.618  18.376   8.996  0.00  0.00    -0.247 OA
HETATM    7  N   UNK N   1      31.364  16.337   8.517  0.00  0.00    -0.278 N 
HETATM    8  C   UNK N   1      32.330  15.503   8.063  0.00  0.00     0.244 A 
HETATM    9  O   UNK N   1      32.113  14.300   8.060  0.00  0.00    -0.272 OA
HETATM   10  H   UNK N   1      32.715  19.250   8.121  0.00  0.00     0.173 HD
HETATM   11  H   UNK N   1      30.516  15.950   8.835  0.00  0.00     0.173 HD
ENDROOT
BRANCH   1  12
HETATM   12  C   UNK N   1      33.928  15.525   6.119  0.00  0.00     0.005 C 
HETATM   13  C   UNK N   1      35.374  15.126   5.848  0.00  0.00     0.011 C 
HETATM   14  C   UNK N   1      33.471  16.505   5.047  0.00  0.00     0.011 C 
ENDBRANCH   1  12
BRANCH   1  15
HETATM   15  C   UNK N   1      34.792  15.541   8.522  0.00  0.00     0.056 C 
BRANCH  15  16
HETATM   16  C   UNK N   1      34.580  15.802   9.988  0.00  0.00    -0.035 C 
HETATM   17  C   UNK N   1      35.417  16.562  10.688  0.00  0.00     0.007 C 
ENDBRANCH  15  16
ENDBRANCH   1  15
TORSDOF 3
ENDMDL
MODEL 8
REMARK VINA RESULT:      -4.8      6.427      7.680
REMARK  3 active torsions:
REMARK  status: ('A' for Active; 'I' for Inactive)
REMARK    1  A    between atoms: C_2  and  C_4 
REMARK    2  A    between atoms: C_4  and  C_5 
REMARK    3  A    between atoms: C_5  and  C_6 
ROOT
HETATM    1  C   UNK N   1      36.015  12.226  12.802  0.00  0.00     0.128 A 
HETATM    2  C   UNK N   1      37.109  11.867  13.805  0.00  0.00     0.244 A 
HETATM    3  O   UNK N   1      37.619  10.758  13.773  0.00  0.00    -0.272 OA
HETATM    4  N   UNK N   1      37.516  12.746  14.752  0.00  0.00    -0.278 N 
HETATM    5  C   UNK N   1      36.999  13.992  14.866  0.00  0.00     0.329 A 
HETATM    6  O   UNK N   1      37.390  14.726  15.757  0.00  0.00    -0.247 OA
HETATM    7  N   UNK N   1      36.052  14.436  14.006  0.00  0.00    -0.278 N 
HETATM    8  C   UNK N   1      35.550  13.667  13.010  0.00  0.00     0.244 A 
HETATM    9  O   UNK N   1      34.701  14.143  12.271  0.00  0.00    -0.272 OA
HETATM   10  H   UNK N   1      38.218  12.468  15.384  0.00  0.00     0.173 HD
HETATM   11  H   UNK N   1      35.716  15.356  14.108  0.00  0.00     0.173 HD
ENDROOT
BRANCH   1  12
HETATM   12  C   UNK N   1      36.530  12.056  11.342  0.00  0.00     0.005 C 
HETATM   13  C   UNK N   1      36.487  10.618  10.837  0.00  0.00     0.011 C 
HETATM   14  C   UNK N   1      37.926  12.621  11.124  0.00  0.00     0.011 C 
ENDBRANCH   1  12
BRANCH   1  15
HETATM   15  C   UNK N   1      34.830  11.269  13.079  0.00  0.00     0.056 C 
BRANCH  15  16
HETATM   16  C   UNK N   1      34.151  11.416  14.413  0.00  0.00    -0.035 C 
HETATM   17  C   UNK N   1      34.142  10.427  15.302  0.00  0.00     0.007 C 
ENDBRANCH  15  16
ENDBRANCH   1  15
TORSDOF 3
ENDMDL
MODEL 9
REMARK VINA RESULT:      -4.8     16.447     17.548
REMARK  3 active torsions:
REMARK  status: ('A' for Active; 'I' for Inactive)
REMARK    1  A    between atoms: C_2  and  C_4 
REMARK    2  A    between atoms: C_4  and  C_5 
REMARK    3  A    between atoms: C_5  and  C_6 
ROOT
HETATM    1  C   UNK N   1      26.970  25.782  -6.073  0.00  0.00     0.128 A 
HETATM    2  C   UNK N   1      26.020  24.656  -5.669  0.00  0.00     0.244 A 
HETATM    3  O   UNK N   1      25.139  24.303  -6.437  0.00  0.00    -0.272 OA
HETATM    4  N   UNK N   1      26.116  24.049  -4.462  0.00  0.00    -0.278 N 
HETATM    5  C   UNK N   1      27.056  24.383  -3.547  0.00  0.00     0.329 A 
HETATM    6  O   UNK N   1      27.072  23.816  -2.467  0.00  0.00    -0.247 OA
HETATM    7  N   UNK N   1      27.978  25.339  -3.810  0.00  0.00    -0.278 N 
HETATM    8  C   UNK N   1      28.003  26.030  -4.975  0.00  0.00     0.244 A 
HETATM    9  O   UNK N   1      28.872  26.874  -5.139  0.00  0.00    -0.272 OA
HETATM   10  H   UNK N   1      25.476  23.334  -4.241  0.00  0.00     0.173 HD
HETATM   11  H   UNK N   1      28.658  25.539  -3.127  0.00  0.00     0.173 HD
ENDROOT
BRANCH   1  12
HETATM   12  C   UNK N   1      27.703  25.434  -7.401  0.00  0.00     0.005 C 
HETATM   13  C   UNK N   1      26.926  25.823  -8.654  0.00  0.00     0.011 C 
HETATM   14  C   UNK N   1      28.111  23.971  -7.501  0.00  0.00     0.011 C 
ENDBRANCH   1  12
BRANCH   1  15
HETATM   15  C   UNK N   1      26.102  27.052  -6.244  0.00  0.00     0.056 C 
BRANCH  15  16
HETATM   16  C   UNK N   1      25.215  27.416  -5.084  0.00  0.00    -0.035 C 
HETATM   17  C   UNK N   1      25.586  28.320  -4.182  0.00  0.00     0.007 C 
ENDBRANCH  15  16
ENDBRANCH   1  15
TORSDOF 3
ENDMDL
