MODEL 1
REMARK VINA RESULT:      -6.3      0.000      0.000
REMARK  6 active torsions:
REMARK  status: ('A' for Active; 'I' for Inactive)
REMARK    1  A    between atoms: C_11  and  O_23 
REMARK    2  A    between atoms: C_19  and  C_14 
REMARK    3  A    between atoms: C_19  and  C_15 
REMARK    4  A    between atoms: C_19  and  C_18 
REMARK    5  A    between atoms: O_23  and  C_18 
REMARK    6  A    between atoms: O_22  and  C_19 
ROOT
HETATM    1  C   UNK N   1      34.479  17.373   8.195  0.00  0.00     0.305 C 
HETATM    2  O   UNK N   1      34.714  18.540   8.469  0.00  0.00    -0.261 OA
ENDROOT
BRANCH   1   3
HETATM    3  C   UNK N   1      33.672  16.973   6.976  0.00  0.00     0.213 C 
BRANCH   3   4
HETATM    4  C   UNK N   1      33.912  15.545   6.528  0.00  0.00     0.032 A 
HETATM    5  C   UNK N   1      33.080  14.438   6.710  0.00  0.00     0.019 A 
HETATM    6  C   UNK N   1      33.604  13.249   6.123  0.00  0.00     0.008 A 
HETATM    7  C   UNK N   1      34.842  13.419   5.484  0.00  0.00     0.050 A 
HETATM    8  S   UNK N   1      35.230  15.018   5.671  0.00  0.00    -0.102 SA
ENDBRANCH   3   4
BRANCH   3   9
HETATM    9  C   UNK N   1      32.209  17.234   7.282  0.00  0.00     0.032 A 
HETATM   10  C   UNK N   1      31.685  17.539   8.543  0.00  0.00     0.019 A 
HETATM   11  C   UNK N   1      30.272  17.720   8.535  0.00  0.00     0.008 A 
HETATM   12  C   UNK N   1      29.683  17.564   7.273  0.00  0.00     0.050 A 
HETATM   13  S   UNK N   1      30.924  17.210   6.231  0.00  0.00    -0.102 SA
ENDBRANCH   3   9
BRANCH   3  14
HETATM   14  O   UNK N   1      34.050  17.820   5.929  0.00  0.00    -0.370 OA
HETATM   15  H   UNK N   1      34.607  18.546   5.608  0.00  0.00     0.212 HD
ENDBRANCH   3  14
ENDBRANCH   1   3
BRANCH   1  16
HETATM   16  O   UNK N   1      34.945  16.361   8.968  0.00  0.00    -0.313 OA
BRANCH  16  17
HETATM   17  C   UNK N   1      34.695  16.061  10.289  0.00  0.00     0.136 C 
HETATM   18  C   UNK N   1      36.084  16.082  10.960  0.00  0.00     0.069 C 
HETATM   19  C   UNK N   1      36.818  14.719  10.823  0.00  0.00     0.224 C 
HETATM   20  C   UNK N   1      36.818  14.268   9.333  0.00  0.00     0.184 A 
HETATM   21  N   UNK N   1      36.021  13.700  11.532  0.00  0.00    -0.061 N 
HETATM   22  C   UNK N   1      35.614  13.433   9.174  0.00  0.00     0.184 A 
HETATM   23  O   UNK N   1      36.907  12.867   9.155  0.00  0.00    -0.371 OA
HETATM   24  C   UNK N   1      34.935  13.471  10.552  0.00  0.00     0.224 C 
HETATM   25  C   UNK N   1      33.972  14.698  10.523  0.00  0.00     0.069 C 
HETATM   26  C   UNK N   1      35.549  14.116  12.858  0.00  0.00     0.273 C 
HETATM   27  C   UNK N   1      36.804  12.484  11.775  0.00  0.00     0.273 C 
ENDBRANCH  16  17
ENDBRANCH   1  16
TORSDOF 6
ENDMDL
MODEL 2
REMARK VINA RESULT:      -6.2      1.543      3.273
REMARK  6 active torsions:
REMARK  status: ('A' for Active; 'I' for Inactive)
REMARK    1  A    between atoms: C_11  and  O_23 
REMARK    2  A    between atoms: C_19  and  C_14 
REMARK    3  A    between atoms: C_19  and  C_15 
REMARK    4  A    between atoms: C_19  and  C_18 
REMARK    5  A    between atoms: O_23  and  C_18 
REMARK    6  A    between atoms: O_22  and  C_19 
ROOT
HETATM    1  C   UNK N   1      34.126  16.802   7.574  0.00  0.00     0.305 C 
HETATM    2  O   UNK N   1      34.647  17.841   7.198  0.00  0.00    -0.261 OA
ENDROOT
BRANCH   1   3
HETATM    3  C   UNK N   1      32.804  16.312   7.016  0.00  0.00     0.213 C 
BRANCH   3   4
HETATM    4  C   UNK N   1      31.597  17.014   7.604  0.00  0.00     0.032 A 
HETATM    5  C   UNK N   1      31.575  17.991   8.602  0.00  0.00     0.019 A 
HETATM    6  C   UNK N   1      30.259  18.463   8.885  0.00  0.00     0.008 A 
HETATM    7  C   UNK N   1      29.253  17.861   8.116  0.00  0.00     0.050 A 
HETATM    8  S   UNK N   1      30.026  16.781   7.127  0.00  0.00    -0.102 SA
ENDBRANCH   3   4
BRANCH   3   9
HETATM    9  C   UNK N   1      32.860  16.446   5.505  0.00  0.00     0.032 A 
HETATM   10  C   UNK N   1      32.320  17.502   4.764  0.00  0.00     0.019 A 
HETATM   11  C   UNK N   1      32.509  17.357   3.359  0.00  0.00     0.008 A 
HETATM   12  C   UNK N   1      33.200  16.194   2.994  0.00  0.00     0.050 A 
HETATM   13  S   UNK N   1      33.541  15.402   4.410  0.00  0.00    -0.102 SA
ENDBRANCH   3   9
BRANCH   3  14
HETATM   14  O   UNK N   1      32.701  14.952   7.323  0.00  0.00    -0.370 OA
HETATM   15  H   UNK N   1      32.161  14.146   7.357  0.00  0.00     0.212 HD
ENDBRANCH   3  14
ENDBRANCH   1   3
BRANCH   1  16
HETATM   16  O   UNK N   1      34.715  16.018   8.509  0.00  0.00    -0.313 OA
BRANCH  16  17
HETATM   17  C   UNK N   1      34.620  16.045   9.883  0.00  0.00     0.136 C 
HETATM   18  C   UNK N   1      36.077  16.193  10.368  0.00  0.00     0.069 C 
HETATM   19  C   UNK N   1      36.797  14.819  10.477  0.00  0.00     0.224 C 
HETATM   20  C   UNK N   1      36.627  14.028   9.148  0.00  0.00     0.184 A 
HETATM   21  N   UNK N   1      36.091  14.016  11.495  0.00  0.00    -0.061 N 
HETATM   22  C   UNK N   1      35.416  13.207   9.330  0.00  0.00     0.184 A 
HETATM   23  O   UNK N   1      36.701  12.624   9.300  0.00  0.00    -0.371 OA
HETATM   24  C   UNK N   1      34.900  13.587  10.727  0.00  0.00     0.224 C 
HETATM   25  C   UNK N   1      33.935  14.793  10.515  0.00  0.00     0.069 C 
HETATM   26  C   UNK N   1      35.774  14.746  12.727  0.00  0.00     0.273 C 
HETATM   27  C   UNK N   1      36.903  12.875  11.930  0.00  0.00     0.273 C 
ENDBRANCH  16  17
ENDBRANCH   1  16
TORSDOF 6
ENDMDL
MODEL 3
REMARK VINA RESULT:      -6.0      2.742      6.640
REMARK  6 active torsions:
REMARK  status: ('A' for Active; 'I' for Inactive)
REMARK    1  A    between atoms: C_11  and  O_23 
REMARK    2  A    between atoms: C_19  and  C_14 
REMARK    3  A    between atoms: C_19  and  C_15 
REMARK    4  A    between atoms: C_19  and  C_18 
REMARK    5  A    between atoms: O_23  and  C_18 
REMARK    6  A    between atoms: O_22  and  C_19 
ROOT
HETATM    1  C   UNK N   1      34.956  14.904  10.150  0.00  0.00     0.305 C 
HETATM    2  O   UNK N   1      34.099  14.070  10.401  0.00  0.00    -0.261 OA
ENDROOT
BRANCH   1   3
HETATM    3  C   UNK N   1      36.372  14.794  10.682  0.00  0.00     0.213 C 
BRANCH   3   4
HETATM    4  C   UNK N   1      36.460  14.149  12.051  0.00  0.00     0.032 A 
HETATM    5  C   UNK N   1      36.187  14.729  13.292  0.00  0.00     0.019 A 
HETATM    6  C   UNK N   1      36.338  13.815  14.375  0.00  0.00     0.008 A 
HETATM    7  C   UNK N   1      36.727  12.523  13.990  0.00  0.00     0.050 A 
HETATM    8  S   UNK N   1      36.867  12.567  12.340  0.00  0.00    -0.102 SA
ENDBRANCH   3   4
BRANCH   3   9
HETATM    9  C   UNK N   1      37.199  14.050   9.650  0.00  0.00     0.032 A 
HETATM   10  C   UNK N   1      38.565  14.240   9.414  0.00  0.00     0.019 A 
HETATM   11  C   UNK N   1      39.075  13.412   8.373  0.00  0.00     0.008 A 
HETATM   12  C   UNK N   1      38.118  12.569   7.793  0.00  0.00     0.050 A 
HETATM   13  S   UNK N   1      36.694  12.883   8.584  0.00  0.00    -0.102 SA
ENDBRANCH   3   9
BRANCH   3  14
HETATM   14  O   UNK N   1      36.880  16.092  10.786  0.00  0.00    -0.370 OA
HETATM   15  H   UNK N   1      37.028  16.962  10.383  0.00  0.00     0.212 HD
ENDBRANCH   3  14
ENDBRANCH   1   3
BRANCH   1  16
HETATM   16  O   UNK N   1      34.688  15.975   9.364  0.00  0.00    -0.313 OA
BRANCH  16  17
HETATM   17  C   UNK N   1      34.853  16.147   8.007  0.00  0.00     0.136 C 
HETATM   18  C   UNK N   1      34.413  17.602   7.747  0.00  0.00     0.069 C 
HETATM   19  C   UNK N   1      32.876  17.720   7.543  0.00  0.00     0.224 C 
HETATM   20  C   UNK N   1      32.134  17.012   8.713  0.00  0.00     0.184 A 
HETATM   21  N   UNK N   1      32.517  16.947   6.338  0.00  0.00    -0.061 N 
HETATM   22  C   UNK N   1      31.909  15.628   8.258  0.00  0.00     0.184 A 
HETATM   23  O   UNK N   1      30.842  16.544   8.377  0.00  0.00    -0.371 OA
HETATM   24  C   UNK N   1      32.570  15.567   6.872  0.00  0.00     0.224 C 
HETATM   25  C   UNK N   1      34.051  15.144   7.120  0.00  0.00     0.069 C 
HETATM   26  C   UNK N   1      33.400  17.175   5.188  0.00  0.00     0.273 C 
HETATM   27  C   UNK N   1      31.177  17.298   5.859  0.00  0.00     0.273 C 
ENDBRANCH  16  17
ENDBRANCH   1  16
TORSDOF 6
ENDMDL
MODEL 4
REMARK VINA RESULT:      -6.0      3.610      5.482
REMARK  6 active torsions:
REMARK  status: ('A' for Active; 'I' for Inactive)
REMARK    1  A    between atoms: C_11  and  O_23 
REMARK    2  A    between atoms: C_19  and  C_14 
REMARK    3  A    between atoms: C_19  and  C_15 
REMARK    4  A    between atoms: C_19  and  C_18 
REMARK    5  A    between atoms: O_23  and  C_18 
REMARK    6  A    between atoms: O_22  and  C_19 
ROOT
HETATM    1  C   UNK N   1      29.246  17.556   6.234  0.00  0.00     0.305 C 
HETATM    2  O   UNK N   1      28.337  17.823   7.007  0.00  0.00    -0.261 OA
ENDROOT
BRANCH   1   3
HETATM    3  C   UNK N   1      29.084  17.655   4.730  0.00  0.00     0.213 C 
BRANCH   3   4
HETATM    4  C   UNK N   1      28.937  16.312   4.044  0.00  0.00     0.032 A 
HETATM    5  C   UNK N   1      29.305  15.968   2.742  0.00  0.00     0.019 A 
HETATM    6  C   UNK N   1      29.055  14.597   2.439  0.00  0.00     0.008 A 
HETATM    7  C   UNK N   1      28.492  13.867   3.495  0.00  0.00     0.050 A 
HETATM    8  S   UNK N   1      28.329  14.938   4.748  0.00  0.00    -0.102 SA
ENDBRANCH   3   4
BRANCH   3   9
HETATM    9  C   UNK N   1      27.906  18.569   4.448  0.00  0.00     0.032 A 
HETATM   10  C   UNK N   1      27.925  19.966   4.522  0.00  0.00     0.019 A 
HETATM   11  C   UNK N   1      26.668  20.561   4.218  0.00  0.00     0.008 A 
HETATM   12  C   UNK N   1      25.661  19.640   3.902  0.00  0.00     0.050 A 
HETATM   13  S   UNK N   1      26.362  18.142   4.012  0.00  0.00    -0.102 SA
ENDBRANCH   3   9
BRANCH   3  14
HETATM   14  O   UNK N   1      30.235  18.270   4.226  0.00  0.00    -0.370 OA
HETATM   15  H   UNK N   1      31.189  18.429   4.294  0.00  0.00     0.212 HD
ENDBRANCH   3  14
ENDBRANCH   1   3
BRANCH   1  16
HETATM   16  O   UNK N   1      30.463  17.168   6.687  0.00  0.00    -0.313 OA
BRANCH  16  17
HETATM   17  C   UNK N   1      30.856  15.995   7.293  0.00  0.00     0.136 C 
HETATM   18  C   UNK N   1      31.459  16.440   8.640  0.00  0.00     0.069 C 
HETATM   19  C   UNK N   1      32.957  16.835   8.507  0.00  0.00     0.224 C 
HETATM   20  C   UNK N   1      33.131  17.855   7.344  0.00  0.00     0.184 A 
HETATM   21  N   UNK N   1      33.707  15.637   8.082  0.00  0.00    -0.061 N 
HETATM   22  C   UNK N   1      33.423  17.044   6.149  0.00  0.00     0.184 A 
HETATM   23  O   UNK N   1      34.416  17.842   6.755  0.00  0.00    -0.371 OA
HETATM   24  C   UNK N   1      33.356  15.591   6.644  0.00  0.00     0.224 C 
HETATM   25  C   UNK N   1      31.872  15.144   6.468  0.00  0.00     0.069 C 
HETATM   26  C   UNK N   1      33.363  14.416   8.819  0.00  0.00     0.273 C 
HETATM   27  C   UNK N   1      35.148  15.809   8.289  0.00  0.00     0.273 C 
ENDBRANCH  16  17
ENDBRANCH   1  16
TORSDOF 6
ENDMDL
MODEL 5
REMARK VINA RESULT:      -6.0     14.427     17.382
REMARK  6 active torsions:
REMARK  status: ('A' for Active; 'I' for Inactive)
REMARK    1  A    between atoms: C_11  and  O_23 
REMARK    2  A    between atoms: C_19  and  C_14 
REMARK    3  A    between atoms: C_19  and  C_15 
REMARK    4  A    between atoms: C_19  and  C_18 
REMARK    5  A    between atoms: O_23  and  C_18 
REMARK    6  A    between atoms: O_22  and  C_19 
ROOT
HETATM    1  C   UNK N   1      28.540  24.568  -5.286  0.00  0.00     0.305 C 
HETATM    2  O   UNK N   1      29.104  25.611  -5.582  0.00  0.00    -0.261 OA
ENDROOT
BRANCH   1   3
HETATM    3  C   UNK N   1      27.035  24.478  -5.127  0.00  0.00     0.213 C 
BRANCH   3   4
HETATM    4  C   UNK N   1      26.364  25.820  -4.910  0.00  0.00     0.032 A 
HETATM    5  C   UNK N   1      25.417  26.447  -5.722  0.00  0.00     0.019 A 
HETATM    6  C   UNK N   1      24.970  27.693  -5.191  0.00  0.00     0.008 A 
HETATM    7  C   UNK N   1      25.562  28.044  -3.969  0.00  0.00     0.050 A 
HETATM    8  S   UNK N   1      26.604  26.810  -3.601  0.00  0.00    -0.102 SA
ENDBRANCH   3   4
BRANCH   3   9
HETATM    9  C   UNK N   1      26.482  23.758  -6.343  0.00  0.00     0.032 A 
HETATM   10  C   UNK N   1      25.520  22.742  -6.318  0.00  0.00     0.019 A 
HETATM   11  C   UNK N   1      25.201  22.239  -7.611  0.00  0.00     0.008 A 
HETATM   12  C   UNK N   1      25.903  22.858  -8.654  0.00  0.00     0.050 A 
HETATM   13  S   UNK N   1      26.881  23.989  -7.938  0.00  0.00    -0.102 SA
ENDBRANCH   3   9
BRANCH   3  14
HETATM   14  O   UNK N   1      26.781  23.685  -4.005  0.00  0.00    -0.370 OA
HETATM   15  H   UNK N   1      26.138  23.252  -3.421  0.00  0.00     0.212 HD
ENDBRANCH   3  14
ENDBRANCH   1   3
BRANCH   1  16
HETATM   16  O   UNK N   1      29.237  23.421  -5.097  0.00  0.00    -0.313 OA
BRANCH  16  17
HETATM   17  C   UNK N   1      30.187  22.814  -5.889  0.00  0.00     0.136 C 
HETATM   18  C   UNK N   1      30.077  21.315  -5.544  0.00  0.00     0.069 C 
HETATM   19  C   UNK N   1      30.924  20.940  -4.296  0.00  0.00     0.224 C 
HETATM   20  C   UNK N   1      30.591  21.907  -3.123  0.00  0.00     0.184 A 
HETATM   21  N   UNK N   1      32.342  21.199  -4.615  0.00  0.00    -0.061 N 
HETATM   22  C   UNK N   1      31.563  23.009  -3.232  0.00  0.00     0.184 A 
HETATM   23  O   UNK N   1      31.640  22.062  -2.188  0.00  0.00    -0.371 OA
HETATM   24  C   UNK N   1      32.387  22.673  -4.485  0.00  0.00     0.224 C 
HETATM   25  C   UNK N   1      31.641  23.341  -5.681  0.00  0.00     0.069 C 
HETATM   26  C   UNK N   1      32.766  20.704  -5.929  0.00  0.00     0.273 C 
HETATM   27  C   UNK N   1      33.233  20.537  -3.657  0.00  0.00     0.273 C 
ENDBRANCH  16  17
ENDBRANCH   1  16
TORSDOF 6
ENDMDL
MODEL 6
REMARK VINA RESULT:      -5.8      3.762      6.183
REMARK  6 active torsions:
REMARK  status: ('A' for Active; 'I' for Inactive)
REMARK    1  A    between atoms: C_11  and  O_23 
REMARK    2  A    between atoms: C_19  and  C_14 
REMARK    3  A    between atoms: C_19  and  C_15 
REMARK    4  A    between atoms: C_19  and  C_18 
REMARK    5  A    between atoms: O_23  and  C_18 
REMARK    6  A    between atoms: O_22  and  C_19 
ROOT
HETATM    1  C   UNK N   1      29.326  17.318   5.228  0.00  0.00     0.305 C 
HETATM    2  O   UNK N   1      29.174  17.520   4.033  0.00  0.00    -0.261 OA
ENDROOT
BRANCH   1   3
HETATM    3  C   UNK N   1      28.226  17.577   6.240  0.00  0.00     0.213 C 
BRANCH   3   4
HETATM    4  C   UNK N   1      28.736  17.800   7.649  0.00  0.00     0.032 A 
HETATM    5  C   UNK N   1      29.825  18.575   8.055  0.00  0.00     0.019 A 
HETATM    6  C   UNK N   1      29.996  18.591   9.471  0.00  0.00     0.008 A 
HETATM    7  C   UNK N   1      29.049  17.832  10.175  0.00  0.00     0.050 A 
HETATM    8  S   UNK N   1      28.049  17.180   9.026  0.00  0.00    -0.102 SA
ENDBRANCH   3   4
BRANCH   3   9
HETATM    9  C   UNK N   1      27.404  18.751   5.741  0.00  0.00     0.032 A 
HETATM   10  C   UNK N   1      27.706  20.101   5.950  0.00  0.00     0.019 A 
HETATM   11  C   UNK N   1      26.747  20.986   5.379  0.00  0.00     0.008 A 
HETATM   12  C   UNK N   1      25.695  20.338   4.717  0.00  0.00     0.050 A 
HETATM   13  S   UNK N   1      25.993  18.714   4.868  0.00  0.00    -0.102 SA
ENDBRANCH   3   9
BRANCH   3  14
HETATM   14  O   UNK N   1      27.400  16.449   6.255  0.00  0.00    -0.370 OA
HETATM   15  H   UNK N   1      26.601  16.009   6.585  0.00  0.00     0.212 HD
ENDBRANCH   3  14
ENDBRANCH   1   3
BRANCH   1  16
HETATM   16  O   UNK N   1      30.494  16.834   5.717  0.00  0.00    -0.313 OA
BRANCH  16  17
HETATM   17  C   UNK N   1      31.002  15.554   5.706  0.00  0.00     0.136 C 
HETATM   18  C   UNK N   1      31.567  15.350   7.127  0.00  0.00     0.069 C 
HETATM   19  C   UNK N   1      33.018  15.891   7.261  0.00  0.00     0.224 C 
HETATM   20  C   UNK N   1      33.086  17.353   6.734  0.00  0.00     0.184 A 
HETATM   21  N   UNK N   1      33.879  15.114   6.348  0.00  0.00    -0.061 N 
HETATM   22  C   UNK N   1      33.449  17.243   5.309  0.00  0.00     0.184 A 
HETATM   23  O   UNK N   1      34.364  17.738   6.264  0.00  0.00    -0.371 OA
HETATM   24  C   UNK N   1      33.526  15.731   5.048  0.00  0.00     0.224 C 
HETATM   25  C   UNK N   1      32.092  15.295   4.619  0.00  0.00     0.069 C 
HETATM   26  C   UNK N   1      33.659  13.664   6.397  0.00  0.00     0.273 C 
HETATM   27  C   UNK N   1      35.298  15.291   6.672  0.00  0.00     0.273 C 
ENDBRANCH  16  17
ENDBRANCH   1  16
TORSDOF 6
ENDMDL
MODEL 7
REMARK VINA RESULT:      -5.8      3.551      6.294
REMARK  6 active torsions:
REMARK  status: ('A' for Active; 'I' for Inactive)
REMARK    1  A    between atoms: C_11  and  O_23 
REMARK    2  A    between atoms: C_19  and  C_14 
REMARK    3  A    between atoms: C_19  and  C_15 
REMARK    4  A    between atoms: C_19  and  C_18 
REMARK    5  A    between atoms: O_23  and  C_18 
REMARK    6  A    between atoms: O_22  and  C_19 
ROOT
HETATM    1  C   UNK N   1      28.553  17.180   7.822  0.00  0.00     0.305 C 
HETATM    2  O   UNK N   1      28.042  17.044   8.923  0.00  0.00    -0.261 OA
ENDROOT
BRANCH   1   3
HETATM    3  C   UNK N   1      27.729  17.362   6.563  0.00  0.00     0.213 C 
BRANCH   3   4
HETATM    4  C   UNK N   1      27.427  18.811   6.238  0.00  0.00     0.032 A 
HETATM    5  C   UNK N   1      28.026  19.953   6.774  0.00  0.00     0.019 A 
HETATM    6  C   UNK N   1      27.521  21.161   6.208  0.00  0.00     0.008 A 
HETATM    7  C   UNK N   1      26.530  20.971   5.234  0.00  0.00     0.050 A 
HETATM    8  S   UNK N   1      26.323  19.332   5.115  0.00  0.00    -0.102 SA
ENDBRANCH   3   4
BRANCH   3   9
HETATM    9  C   UNK N   1      28.455  16.665   5.428  0.00  0.00     0.032 A 
HETATM   10  C   UNK N   1      29.124  17.303   4.378  0.00  0.00     0.019 A 
HETATM   11  C   UNK N   1      29.704  16.395   3.447  0.00  0.00     0.008 A 
HETATM   12  C   UNK N   1      29.497  15.045   3.761  0.00  0.00     0.050 A 
HETATM   13  S   UNK N   1      28.613  15.034   5.164  0.00  0.00    -0.102 SA
ENDBRANCH   3   9
BRANCH   3  14
HETATM   14  O   UNK N   1      26.511  16.705   6.763  0.00  0.00    -0.370 OA
HETATM   15  H   UNK N   1      25.999  15.881   6.747  0.00  0.00     0.212 HD
ENDBRANCH   3  14
ENDBRANCH   1   3
BRANCH   1  16
HETATM   16  O   UNK N   1      29.900  17.189   7.668  0.00  0.00    -0.313 OA
BRANCH  16  17
HETATM   17  C   UNK N   1      30.904  17.253   8.609  0.00  0.00     0.136 C 
HETATM   18  C   UNK N   1      31.977  18.157   7.969  0.00  0.00     0.069 C 
HETATM   19  C   UNK N   1      32.938  17.358   7.045  0.00  0.00     0.224 C 
HETATM   20  C   UNK N   1      32.113  16.507   6.036  0.00  0.00     0.184 A 
HETATM   21  N   UNK N   1      33.656  16.375   7.878  0.00  0.00    -0.061 N 
HETATM   22  C   UNK N   1      31.930  15.196   6.683  0.00  0.00     0.184 A 
HETATM   23  O   UNK N   1      32.785  15.354   5.570  0.00  0.00    -0.371 OA
HETATM   24  C   UNK N   1      32.605  15.346   8.055  0.00  0.00     0.224 C 
HETATM   25  C   UNK N   1      31.500  15.870   9.023  0.00  0.00     0.069 C 
HETATM   26  C   UNK N   1      34.178  16.916   9.138  0.00  0.00     0.273 C 
HETATM   27  C   UNK N   1      34.831  15.842   7.181  0.00  0.00     0.273 C 
ENDBRANCH  16  17
ENDBRANCH   1  16
TORSDOF 6
ENDMDL
MODEL 8
REMARK VINA RESULT:      -5.8     16.578     19.391
REMARK  6 active torsions:
REMARK  status: ('A' for Active; 'I' for Inactive)
REMARK    1  A    between atoms: C_11  and  O_23 
REMARK    2  A    between atoms: C_19  and  C_14 
REMARK    3  A    between atoms: C_19  and  C_15 
REMARK    4  A    between atoms: C_19  and  C_18 
REMARK    5  A    between atoms: O_23  and  C_18 
REMARK    6  A    between atoms: O_22  and  C_19 
ROOT
HETATM    1  C   UNK N   1      27.191  25.458  -7.042  0.00  0.00     0.305 C 
HETATM    2  O   UNK N   1      27.669  25.406  -8.166  0.00  0.00    -0.261 OA
ENDROOT
BRANCH   1   3
HETATM    3  C   UNK N   1      26.562  24.252  -6.373  0.00  0.00     0.213 C 
BRANCH   3   4
HETATM    4  C   UNK N   1      26.535  23.015  -7.248  0.00  0.00     0.032 A 
HETATM    5  C   UNK N   1      27.529  22.044  -7.394  0.00  0.00     0.019 A 
HETATM    6  C   UNK N   1      27.149  20.991  -8.277  0.00  0.00     0.008 A 
HETATM    7  C   UNK N   1      25.865  21.133  -8.825  0.00  0.00     0.050 A 
HETATM    8  S   UNK N   1      25.260  22.541  -8.198  0.00  0.00    -0.102 SA
ENDBRANCH   3   4
BRANCH   3   9
HETATM    9  C   UNK N   1      27.300  24.008  -5.069  0.00  0.00     0.032 A 
HETATM   10  C   UNK N   1      26.726  24.038  -3.793  0.00  0.00     0.019 A 
HETATM   11  C   UNK N   1      27.662  23.786  -2.750  0.00  0.00     0.008 A 
HETATM   12  C   UNK N   1      28.969  23.552  -3.200  0.00  0.00     0.050 A 
HETATM   13  S   UNK N   1      28.910  23.669  -4.853  0.00  0.00    -0.102 SA
ENDBRANCH   3   9
BRANCH   3  14
HETATM   14  O   UNK N   1      25.241  24.588  -6.063  0.00  0.00    -0.370 OA
HETATM   15  H   UNK N   1      24.305  24.334  -6.028  0.00  0.00     0.212 HD
ENDBRANCH   3  14
ENDBRANCH   1   3
BRANCH   1  16
HETATM   16  O   UNK N   1      27.211  26.606  -6.322  0.00  0.00    -0.313 OA
BRANCH  16  17
HETATM   17  C   UNK N   1      28.183  27.577  -6.219  0.00  0.00     0.136 C 
HETATM   18  C   UNK N   1      28.918  27.251  -4.903  0.00  0.00     0.069 C 
HETATM   19  C   UNK N   1      28.209  27.876  -3.669  0.00  0.00     0.224 C 
HETATM   20  C   UNK N   1      26.698  27.502  -3.684  0.00  0.00     0.184 A 
HETATM   21  N   UNK N   1      28.242  29.343  -3.820  0.00  0.00    -0.061 N 
HETATM   22  C   UNK N   1      26.027  28.600  -4.402  0.00  0.00     0.184 A 
HETATM   23  O   UNK N   1      25.868  28.428  -3.010  0.00  0.00    -0.371 OA
HETATM   24  C   UNK N   1      27.169  29.540  -4.821  0.00  0.00     0.224 C 
HETATM   25  C   UNK N   1      27.643  29.042  -6.221  0.00  0.00     0.069 C 
HETATM   26  C   UNK N   1      29.545  29.879  -4.231  0.00  0.00     0.273 C 
HETATM   27  C   UNK N   1      27.940  30.017  -2.554  0.00  0.00     0.273 C 
ENDBRANCH  16  17
ENDBRANCH   1  16
TORSDOF 6
ENDMDL
MODEL 9
REMARK VINA RESULT:      -5.7     14.856     17.651
REMARK  6 active torsions:
REMARK  status: ('A' for Active; 'I' for Inactive)
REMARK    1  A    between atoms: C_11  and  O_23 
REMARK    2  A    between atoms: C_19  and  C_14 
REMARK    3  A    between atoms: C_19  and  C_15 
REMARK    4  A    between atoms: C_19  and  C_18 
REMARK    5  A    between atoms: O_23  and  C_18 
REMARK    6  A    between atoms: O_22  and  C_19 
ROOT
HETATM    1  C   UNK N   1      28.839  25.480  -6.374  0.00  0.00     0.305 C 
HETATM    2  O   UNK N   1      29.664  26.353  -6.596  0.00  0.00    -0.261 OA
ENDROOT
BRANCH   1   3
HETATM    3  C   UNK N   1      27.370  25.651  -6.708  0.00  0.00     0.213 C 
BRANCH   3   4
HETATM    4  C   UNK N   1      26.656  24.346  -6.998  0.00  0.00     0.032 A 
HETATM    5  C   UNK N   1      25.988  23.515  -6.096  0.00  0.00     0.019 A 
HETATM    6  C   UNK N   1      25.394  22.380  -6.724  0.00  0.00     0.008 A 
HETATM    7  C   UNK N   1      25.594  22.318  -8.111  0.00  0.00     0.050 A 
HETATM    8  S   UNK N   1      26.489  23.658  -8.498  0.00  0.00    -0.102 SA
ENDBRANCH   3   4
BRANCH   3   9
HETATM    9  C   UNK N   1      26.720  26.413  -5.568  0.00  0.00     0.032 A 
HETATM   10  C   UNK N   1      25.641  27.295  -5.691  0.00  0.00     0.019 A 
HETATM   11  C   UNK N   1      25.249  27.878  -4.452  0.00  0.00     0.008 A 
HETATM   12  C   UNK N   1      26.010  27.455  -3.355  0.00  0.00     0.050 A 
HETATM   13  S   UNK N   1      27.128  26.389  -3.959  0.00  0.00    -0.102 SA
ENDBRANCH   3   9
BRANCH   3  14
HETATM   14  O   UNK N   1      27.292  26.446  -7.856  0.00  0.00    -0.370 OA
HETATM   15  H   UNK N   1      26.767  27.019  -8.436  0.00  0.00     0.212 HD
ENDBRANCH   3  14
ENDBRANCH   1   3
BRANCH   1  16
HETATM   16  O   UNK N   1      29.199  24.294  -5.825  0.00  0.00    -0.313 OA
BRANCH  16  17
HETATM   17  C   UNK N   1      30.174  23.397  -6.202  0.00  0.00     0.136 C 
HETATM   18  C   UNK N   1      29.745  22.065  -5.554  0.00  0.00     0.069 C 
HETATM   19  C   UNK N   1      30.244  21.943  -4.087  0.00  0.00     0.224 C 
HETATM   20  C   UNK N   1      29.847  23.217  -3.287  0.00  0.00     0.184 A 
HETATM   21  N   UNK N   1      31.720  21.948  -4.107  0.00  0.00    -0.061 N 
HETATM   22  C   UNK N   1      30.992  24.135  -3.413  0.00  0.00     0.184 A 
HETATM   23  O   UNK N   1      30.694  23.496  -2.190  0.00  0.00    -0.371 OA
HETATM   24  C   UNK N   1      31.986  23.389  -4.317  0.00  0.00     0.224 C 
HETATM   25  C   UNK N   1      31.623  23.794  -5.779  0.00  0.00     0.069 C 
HETATM   26  C   UNK N   1      32.313  21.078  -5.129  0.00  0.00     0.273 C 
HETATM   27  C   UNK N   1      32.272  21.468  -2.837  0.00  0.00     0.273 C 
ENDBRANCH  16  17
ENDBRANCH   1  16
TORSDOF 6
ENDMDL
