MODEL 1
REMARK VINA RESULT:      -8.1      0.000      0.000
REMARK  7 active torsions:
REMARK  status: ('A' for Active; 'I' for Inactive)
REMARK    1  A    between atoms: C_1  and  O_14 
REMARK    2  A    between atoms: C_4  and  O_3 
REMARK    3  A    between atoms: C_18  and  O_19 
REMARK    4  A    between atoms: O_19  and  C_34 
REMARK    5  A    between atoms: C_23  and  O_31 
REMARK    6  A    between atoms: C_27  and  O_32 
REMARK    7  A    between atoms: C_37  and  O_38 
ROOT
HETATM    1  C   UNK N   1      27.915  15.380   3.289  0.00  0.00     0.130 C 
HETATM    2  C   UNK N   1      27.113  15.278   4.626  0.00  0.00     0.041 C 
HETATM    3  C   UNK N   1      28.077  13.090   1.763  0.00  0.00     0.131 C 
HETATM    4  C   UNK N   1      27.438  14.453   2.140  0.00  0.00     0.040 C 
HETATM    5  C   UNK N   1      27.867  10.572   1.865  0.00  0.00    -0.020 C 
HETATM    6  C   UNK N   1      27.839  11.855   2.660  0.00  0.00     0.033 C 
HETATM    7  C   UNK N   1      30.774  10.079   3.751  0.00  0.00     0.251 C 
HETATM    8  C   UNK N   1      31.165  10.365   2.337  0.00  0.00     0.006 C 
HETATM    9  C   UNK N   1      30.331  10.271   1.282  0.00  0.00     0.012 C 
HETATM   10  C   UNK N   1      28.891   9.927   1.276  0.00  0.00    -0.003 C 
HETATM   11  C   UNK N   1      26.441  11.890   3.251  0.00  0.00     0.017 C 
HETATM   12  C   UNK N   1      25.967  14.573   1.780  0.00  0.00     0.015 C 
HETATM   13  C   UNK N   1      32.594  10.679   2.037  0.00  0.00     0.054 C 
HETATM   14  O   UNK N   1      29.680   9.601   4.003  0.00  0.00    -0.268 OA
HETATM   15  N   UNK N   1      31.626  10.325   4.782  0.00  0.00    -0.319 N 
HETATM   16  C   UNK N   1      27.330  16.389   5.713  0.00  0.00     0.144 C 
HETATM   17  C   UNK N   1      28.764  16.880   5.976  0.00  0.00     0.044 C 
HETATM   18  C   UNK N   1      32.056  11.630   5.180  0.00  0.00     0.099 C 
HETATM   19  C   UNK N   1      33.111  11.798   6.080  0.00  0.00     0.098 A 
HETATM   20  C   UNK N   1      31.440  12.812   4.703  0.00  0.00     0.108 C 
HETATM   21  C   UNK N   1      31.881  14.089   5.144  0.00  0.00     0.047 C 
HETATM   22  C   UNK N   1      32.800  14.189   6.235  0.00  0.00     0.026 C 
HETATM   23  C   UNK N   1      33.423  13.010   6.647  0.00  0.00     0.076 A 
HETATM   24  C   UNK N   1      31.478  15.276   4.472  0.00  0.00     0.088 C 
HETATM   25  C   UNK N   1      31.963  16.519   4.895  0.00  0.00     0.007 C 
HETATM   26  C   UNK N   1      32.683  16.583   6.067  0.00  0.00     0.096 C 
HETATM   27  C   UNK N   1      33.077  15.472   6.742  0.00  0.00     0.063 C 
HETATM   28  C   UNK N   1      27.426  13.947   5.278  0.00  0.00     0.015 C 
HETATM   29  C   UNK N   1      29.054  17.346   7.435  0.00  0.00     0.151 C 
HETATM   30  C   UNK N   1      30.523  17.239   7.831  0.00  0.00     0.029 C 
HETATM   31  C   UNK N   1      29.078  17.980   4.983  0.00  0.00     0.015 C 
HETATM   32  C   UNK N   1      31.199  18.015   8.706  0.00  0.00     0.137 C 
HETATM   33  O   UNK N   1      32.557  17.878   8.922  0.00  0.00    -0.319 OA
HETATM   34  O   UNK N   1      33.023  17.723   6.693  0.00  0.00    -0.305 OA
HETATM   35  C   UNK N   1      33.506  17.476   7.971  0.00  0.00     0.237 C 
HETATM   36  C   UNK N   1      33.690  15.969   7.953  0.00  0.00     0.225 C 
HETATM   37  C   UNK N   1      34.826  18.195   8.177  0.00  0.00     0.089 C 
HETATM   38  C   UNK N   1      31.700  17.765   4.121  0.00  0.00     0.054 C 
HETATM   39  N   UNK N   1      34.541  12.893   7.403  0.00  0.00    -0.339 N 
ATOM     40  HN  UNK N   1      34.991  13.603   7.981  1.00  0.00     0.167 HD
HETATM   41  C   UNK N   1      34.918  11.607   7.207  0.00  0.00     0.113 A 
HETATM   42  N   UNK N   1      34.053  10.914   6.435  0.00  0.00    -0.304 N 
HETATM   43  O   UNK N   1      34.116  15.294   8.877  0.00  0.00    -0.286 OA
HETATM   44  C   UNK N   1      36.151  11.061   7.558  0.00  0.00     0.056 A 
HETATM   45  C   UNK N   1      36.452   9.774   7.081  0.00  0.00    -0.057 A 
HETATM   46  C   UNK N   1      35.511   9.060   6.311  0.00  0.00     0.024 A 
HETATM   47  C   UNK N   1      34.285   9.657   5.991  0.00  0.00     0.099 A 
HETATM   48  C   UNK N   1      37.797   9.189   7.324  0.00  0.00     0.048 C 
HETATM   49  H   UNK N   1      31.971   9.554   5.289  0.00  0.00     0.169 HD
ENDROOT
BRANCH  16  50
HETATM   50  O   UNK N   1      26.428  17.445   5.751  0.00  0.00    -0.315 OA
BRANCH  50  51
HETATM   51  C   UNK N   1      25.432  17.680   4.859  0.00  0.00     0.255 C 
HETATM   52  C   UNK N   1      24.065  17.158   5.142  0.00  0.00     0.126 C 
HETATM   53  O   UNK N   1      25.642  18.293   3.826  0.00  0.00    -0.266 OA
ENDBRANCH  50  51
ENDBRANCH  16  50
BRANCH   1  54
HETATM   54  O   UNK N   1      27.896  16.683   2.792  0.00  0.00    -0.395 OA
HETATM   55  H   UNK N   1      27.304  17.211   2.235  0.00  0.00     0.210 HD
ENDBRANCH   1  54
BRANCH  29  56
HETATM   56  O   UNK N   1      28.363  18.503   7.877  0.00  0.00    -0.386 OA
HETATM   57  C   UNK N   1      27.775  18.257   9.131  0.00  0.00     0.202 C 
ENDBRANCH  29  56
BRANCH   3  58
HETATM   58  O   UNK N   1      29.426  13.238   1.439  0.00  0.00    -0.394 OA
HETATM   59  H   UNK N   1      30.012  13.047   0.690  0.00  0.00     0.210 HD
ENDBRANCH   3  58
BRANCH  24  60
HETATM   60  O   UNK N   1      30.705  15.218   3.377  0.00  0.00    -0.359 OA
HETATM   61  H   UNK N   1      30.846  14.609   2.678  0.00  0.00     0.217 HD
ENDBRANCH  24  60
BRANCH  20  62
HETATM   62  O   UNK N   1      30.447  12.731   3.810  0.00  0.00    -0.357 OA
HETATM   63  H   UNK N   1      29.727  13.328   3.846  0.00  0.00     0.217 HD
ENDBRANCH  20  62
TORSDOF 7
ENDMDL
MODEL 2
REMARK VINA RESULT:      -8.1      3.554      6.522
REMARK  7 active torsions:
REMARK  status: ('A' for Active; 'I' for Inactive)
REMARK    1  A    between atoms: C_1  and  O_14 
REMARK    2  A    between atoms: C_4  and  O_3 
REMARK    3  A    between atoms: C_18  and  O_19 
REMARK    4  A    between atoms: O_19  and  C_34 
REMARK    5  A    between atoms: C_23  and  O_31 
REMARK    6  A    between atoms: C_27  and  O_32 
REMARK    7  A    between atoms: C_37  and  O_38 
ROOT
HETATM    1  C   UNK N   1      34.187  14.157   5.065  0.00  0.00     0.130 C 
HETATM    2  C   UNK N   1      33.493  15.077   6.120  0.00  0.00     0.041 C 
HETATM    3  C   UNK N   1      32.538  12.848   3.286  0.00  0.00     0.131 C 
HETATM    4  C   UNK N   1      33.463  14.023   3.700  0.00  0.00     0.040 C 
HETATM    5  C   UNK N   1      30.158  12.074   2.925  0.00  0.00    -0.020 C 
HETATM    6  C   UNK N   1      31.118  12.740   3.882  0.00  0.00     0.033 C 
HETATM    7  C   UNK N   1      30.248   9.587   5.387  0.00  0.00     0.251 C 
HETATM    8  C   UNK N   1      30.988   9.096   4.184  0.00  0.00     0.006 C 
HETATM    9  C   UNK N   1      30.873   9.627   2.950  0.00  0.00     0.012 C 
HETATM   10  C   UNK N   1      30.069  10.793   2.522  0.00  0.00    -0.003 C 
HETATM   11  C   UNK N   1      30.525  14.122   4.095  0.00  0.00     0.017 C 
HETATM   12  C   UNK N   1      33.155  15.336   3.000  0.00  0.00     0.015 C 
HETATM   13  C   UNK N   1      31.836   7.874   4.313  0.00  0.00     0.054 C 
HETATM   14  O   UNK N   1      29.377  10.434   5.271  0.00  0.00    -0.268 OA
HETATM   15  N   UNK N   1      30.512   9.095   6.627  0.00  0.00    -0.319 N 
HETATM   16  C   UNK N   1      34.308  15.506   7.390  0.00  0.00     0.144 C 
HETATM   17  C   UNK N   1      35.182  14.447   8.085  0.00  0.00     0.044 C 
HETATM   18  C   UNK N   1      31.746   9.286   7.325  0.00  0.00     0.099 C 
HETATM   19  C   UNK N   1      32.041   8.556   8.480  0.00  0.00     0.098 A 
HETATM   20  C   UNK N   1      32.723  10.219   6.903  0.00  0.00     0.108 C 
HETATM   21  C   UNK N   1      33.925  10.395   7.640  0.00  0.00     0.047 C 
HETATM   22  C   UNK N   1      34.065   9.797   8.931  0.00  0.00     0.026 C 
HETATM   23  C   UNK N   1      33.108   8.847   9.294  0.00  0.00     0.076 A 
HETATM   24  C   UNK N   1      35.027  11.104   7.086  0.00  0.00     0.088 C 
HETATM   25  C   UNK N   1      36.217  11.225   7.813  0.00  0.00     0.007 C 
HETATM   26  C   UNK N   1      36.236  10.805   9.125  0.00  0.00     0.096 C 
HETATM   27  C   UNK N   1      35.199  10.136   9.691  0.00  0.00     0.063 C 
HETATM   28  C   UNK N   1      32.233  14.391   6.608  0.00  0.00     0.015 C 
HETATM   29  C   UNK N   1      35.348  14.624   9.625  0.00  0.00     0.151 C 
HETATM   30  C   UNK N   1      35.659  13.325  10.360  0.00  0.00     0.029 C 
HETATM   31  C   UNK N   1      36.530  14.417   7.395  0.00  0.00     0.015 C 
HETATM   32  C   UNK N   1      36.381  13.170  11.492  0.00  0.00     0.137 C 
HETATM   33  O   UNK N   1      36.670  11.928  12.022  0.00  0.00    -0.319 OA
HETATM   34  O   UNK N   1      37.234  11.053   9.990  0.00  0.00    -0.305 OA
HETATM   35  C   UNK N   1      36.864  10.746  11.293  0.00  0.00     0.237 C 
HETATM   36  C   UNK N   1      35.565   9.989  11.081  0.00  0.00     0.225 C 
HETATM   37  C   UNK N   1      37.919   9.869  11.942  0.00  0.00     0.089 C 
HETATM   38  C   UNK N   1      37.446  11.812   7.207  0.00  0.00     0.054 C 
HETATM   39  N   UNK N   1      33.202   7.923  10.282  0.00  0.00    -0.339 N 
ATOM     40  HN  UNK N   1      33.859   7.896  11.061  1.00  0.00     0.167 HD
HETATM   41  C   UNK N   1      32.213   7.047   9.984  0.00  0.00     0.113 A 
HETATM   42  N   UNK N   1      31.475   7.422   8.917  0.00  0.00    -0.304 N 
HETATM   43  O   UNK N   1      34.874   9.503  11.963  0.00  0.00    -0.286 OA
HETATM   44  C   UNK N   1      32.056   5.782  10.547  0.00  0.00     0.056 A 
HETATM   45  C   UNK N   1      31.108   4.924   9.962  0.00  0.00    -0.057 A 
HETATM   46  C   UNK N   1      30.325   5.360   8.873  0.00  0.00     0.024 A 
HETATM   47  C   UNK N   1      30.524   6.645   8.351  0.00  0.00     0.099 A 
HETATM   48  C   UNK N   1      30.980   3.523  10.444  0.00  0.00     0.048 C 
HETATM   49  H   UNK N   1      29.808   8.572   7.074  0.00  0.00     0.169 HD
ENDROOT
BRANCH  16  50
HETATM   50  O   UNK N   1      34.947  16.740   7.365  0.00  0.00    -0.315 OA
BRANCH  50  51
HETATM   51  C   UNK N   1      34.449  17.909   7.840  0.00  0.00     0.255 C 
HETATM   52  C   UNK N   1      32.992  18.010   8.140  0.00  0.00     0.126 C 
HETATM   53  O   UNK N   1      35.168  18.880   8.008  0.00  0.00    -0.266 OA
ENDBRANCH  50  51
ENDBRANCH  16  50
BRANCH   1  54
HETATM   54  O   UNK N   1      35.483  14.594   4.796  0.00  0.00    -0.395 OA
HETATM   55  H   UNK N   1      36.366  14.437   5.166  0.00  0.00     0.210 HD
ENDBRANCH   1  54
BRANCH  29  56
HETATM   56  O   UNK N   1      36.052  15.778  10.056  0.00  0.00    -0.386 OA
HETATM   57  C   UNK N   1      35.295  16.465  11.021  0.00  0.00     0.202 C 
ENDBRANCH  29  56
BRANCH   3  58
HETATM   58  O   UNK N   1      33.214  11.629   3.345  0.00  0.00    -0.394 OA
HETATM   59  H   UNK N   1      33.511  11.002   4.023  0.00  0.00     0.210 HD
ENDBRANCH   3  58
BRANCH  24  60
HETATM   60  O   UNK N   1      34.977  11.587   5.836  0.00  0.00    -0.359 OA
HETATM   61  H   UNK N   1      34.230  12.032   5.486  0.00  0.00     0.217 HD
ENDBRANCH  24  60
BRANCH  20  62
HETATM   62  O   UNK N   1      32.527  10.927   5.785  0.00  0.00    -0.357 OA
HETATM   63  H   UNK N   1      33.188  11.511   5.471  0.00  0.00     0.217 HD
ENDBRANCH  20  62
TORSDOF 7
ENDMDL
MODEL 3
REMARK VINA RESULT:      -8.1      2.447      4.512
REMARK  7 active torsions:
REMARK  status: ('A' for Active; 'I' for Inactive)
REMARK    1  A    between atoms: C_1  and  O_14 
REMARK    2  A    between atoms: C_4  and  O_3 
REMARK    3  A    between atoms: C_18  and  O_19 
REMARK    4  A    between atoms: O_19  and  C_34 
REMARK    5  A    between atoms: C_23  and  O_31 
REMARK    6  A    between atoms: C_27  and  O_32 
REMARK    7  A    between atoms: C_37  and  O_38 
ROOT
HETATM    1  C   UNK N   1      27.114  17.296   3.974  0.00  0.00     0.130 C 
HETATM    2  C   UNK N   1      26.967  17.407   5.525  0.00  0.00     0.041 C 
HETATM    3  C   UNK N   1      25.112  15.959   2.631  0.00  0.00     0.131 C 
HETATM    4  C   UNK N   1      25.788  17.248   3.168  0.00  0.00     0.040 C 
HETATM    5  C   UNK N   1      23.239  14.287   2.933  0.00  0.00    -0.020 C 
HETATM    6  C   UNK N   1      24.382  15.010   3.606  0.00  0.00     0.033 C 
HETATM    7  C   UNK N   1      25.340  11.542   3.484  0.00  0.00     0.251 C 
HETATM    8  C   UNK N   1      25.332  11.853   2.021  0.00  0.00     0.006 C 
HETATM    9  C   UNK N   1      24.397  12.605   1.407  0.00  0.00     0.012 C 
HETATM   10  C   UNK N   1      23.243  13.310   2.009  0.00  0.00    -0.003 C 
HETATM   11  C   UNK N   1      23.712  15.802   4.716  0.00  0.00     0.017 C 
HETATM   12  C   UNK N   1      24.826  18.393   3.437  0.00  0.00     0.015 C 
HETATM   13  C   UNK N   1      26.360  11.213   1.147  0.00  0.00     0.054 C 
HETATM   14  O   UNK N   1      24.392  11.857   4.185  0.00  0.00    -0.268 OA
HETATM   15  N   UNK N   1      26.385  10.891   4.061  0.00  0.00    -0.319 N 
HETATM   16  C   UNK N   1      28.237  17.771   6.372  0.00  0.00     0.144 C 
HETATM   17  C   UNK N   1      29.574  17.109   5.999  0.00  0.00     0.044 C 
HETATM   18  C   UNK N   1      27.704  11.432   4.183  0.00  0.00     0.099 C 
HETATM   19  C   UNK N   1      28.780  10.625   4.562  0.00  0.00     0.098 A 
HETATM   20  C   UNK N   1      27.992  12.797   3.944  0.00  0.00     0.108 C 
HETATM   21  C   UNK N   1      29.313  13.298   4.101  0.00  0.00     0.047 C 
HETATM   22  C   UNK N   1      30.316  12.484   4.713  0.00  0.00     0.026 C 
HETATM   23  C   UNK N   1      30.013  11.133   4.891  0.00  0.00     0.076 A 
HETATM   24  C   UNK N   1      29.677  14.576   3.595  0.00  0.00     0.088 C 
HETATM   25  C   UNK N   1      30.995  15.030   3.721  0.00  0.00     0.007 C 
HETATM   26  C   UNK N   1      31.874  14.299   4.490  0.00  0.00     0.096 C 
HETATM   27  C   UNK N   1      31.558  13.080   4.999  0.00  0.00     0.063 C 
HETATM   28  C   UNK N   1      26.437  16.090   6.056  0.00  0.00     0.015 C 
HETATM   29  C   UNK N   1      30.557  16.873   7.186  0.00  0.00     0.151 C 
HETATM   30  C   UNK N   1      31.539  15.730   6.950  0.00  0.00     0.029 C 
HETATM   31  C   UNK N   1      30.227  17.937   4.912  0.00  0.00     0.015 C 
HETATM   32  C   UNK N   1      32.795  15.610   7.431  0.00  0.00     0.137 C 
HETATM   33  O   UNK N   1      33.627  14.565   7.078  0.00  0.00    -0.319 OA
HETATM   34  O   UNK N   1      33.093  14.723   4.865  0.00  0.00    -0.305 OA
HETATM   35  C   UNK N   1      33.638  13.902   5.843  0.00  0.00     0.237 C 
HETATM   36  C   UNK N   1      32.688  12.718   5.825  0.00  0.00     0.225 C 
HETATM   37  C   UNK N   1      35.046  13.491   5.454  0.00  0.00     0.089 C 
HETATM   38  C   UNK N   1      31.456  16.285   3.063  0.00  0.00     0.054 C 
HETATM   39  N   UNK N   1      30.883  10.121   5.127  0.00  0.00    -0.339 N 
ATOM     40  HN  UNK N   1      31.854  10.179   5.434  1.00  0.00     0.167 HD
HETATM   41  C   UNK N   1      30.153   9.013   4.857  0.00  0.00     0.113 A 
HETATM   42  N   UNK N   1      28.868   9.288   4.543  0.00  0.00    -0.304 N 
HETATM   43  O   UNK N   1      32.780  11.722   6.525  0.00  0.00    -0.286 OA
HETATM   44  C   UNK N   1      30.662   7.725   4.699  0.00  0.00     0.056 A 
HETATM   45  C   UNK N   1      29.792   6.738   4.204  0.00  0.00    -0.057 A 
HETATM   46  C   UNK N   1      28.445   7.049   3.923  0.00  0.00     0.024 A 
HETATM   47  C   UNK N   1      27.986   8.360   4.106  0.00  0.00     0.099 A 
HETATM   48  C   UNK N   1      30.310   5.377   3.903  0.00  0.00     0.048 C 
HETATM   49  H   UNK N   1      26.224   9.989   4.419  0.00  0.00     0.169 HD
ENDROOT
BRANCH  16  50
HETATM   50  O   UNK N   1      28.421  19.102   6.724  0.00  0.00    -0.315 OA
BRANCH  50  51
HETATM   51  C   UNK N   1      27.692  20.157   6.280  0.00  0.00     0.255 C 
HETATM   52  C   UNK N   1      26.688  20.780   7.188  0.00  0.00     0.126 C 
HETATM   53  O   UNK N   1      27.832  20.589   5.148  0.00  0.00    -0.266 OA
ENDBRANCH  50  51
ENDBRANCH  16  50
BRANCH   1  54
HETATM   54  O   UNK N   1      27.858  18.359   3.465  0.00  0.00    -0.395 OA
HETATM   55  H   UNK N   1      28.649  18.852   3.733  0.00  0.00     0.210 HD
ENDBRANCH   1  54
BRANCH  29  56
HETATM   56  O   UNK N   1      31.077  18.033   7.816  0.00  0.00    -0.386 OA
HETATM   57  C   UNK N   1      30.548  18.148   9.113  0.00  0.00     0.202 C 
ENDBRANCH  29  56
BRANCH   3  58
HETATM   58  O   UNK N   1      25.964  15.261   1.775  0.00  0.00    -0.394 OA
HETATM   59  H   UNK N   1      25.916  14.822   0.912  0.00  0.00     0.210 HD
ENDBRANCH   3  58
BRANCH  24  60
HETATM   60  O   UNK N   1      28.793  15.325   2.918  0.00  0.00    -0.359 OA
HETATM   61  H   UNK N   1      27.873  15.147   2.900  0.00  0.00     0.217 HD
ENDBRANCH  24  60
BRANCH  20  62
HETATM   62  O   UNK N   1      27.019  13.621   3.541  0.00  0.00    -0.357 OA
HETATM   63  H   UNK N   1      27.135  14.549   3.585  0.00  0.00     0.217 HD
ENDBRANCH  20  62
TORSDOF 7
ENDMDL
MODEL 4
REMARK VINA RESULT:      -8.0      2.644      7.282
REMARK  7 active torsions:
REMARK  status: ('A' for Active; 'I' for Inactive)
REMARK    1  A    between atoms: C_1  and  O_14 
REMARK    2  A    between atoms: C_4  and  O_3 
REMARK    3  A    between atoms: C_18  and  O_19 
REMARK    4  A    between atoms: O_19  and  C_34 
REMARK    5  A    between atoms: C_23  and  O_31 
REMARK    6  A    between atoms: C_27  and  O_32 
REMARK    7  A    between atoms: C_37  and  O_38 
ROOT
HETATM    1  C   UNK N   1      29.414  16.518   6.346  0.00  0.00     0.130 C 
HETATM    2  C   UNK N   1      29.044  17.635   5.319  0.00  0.00     0.041 C 
HETATM    3  C   UNK N   1      32.028  15.641   6.335  0.00  0.00     0.131 C 
HETATM    4  C   UNK N   1      30.876  16.534   6.868  0.00  0.00     0.040 C 
HETATM    5  C   UNK N   1      34.121  15.534   4.921  0.00  0.00    -0.020 C 
HETATM    6  C   UNK N   1      32.669  15.950   4.965  0.00  0.00     0.033 C 
HETATM    7  C   UNK N   1      32.845  13.219   2.626  0.00  0.00     0.251 C 
HETATM    8  C   UNK N   1      33.207  12.496   3.885  0.00  0.00     0.006 C 
HETATM    9  C   UNK N   1      34.023  12.988   4.838  0.00  0.00     0.012 C 
HETATM   10  C   UNK N   1      34.682  14.312   4.891  0.00  0.00    -0.003 C 
HETATM   11  C   UNK N   1      32.709  17.449   4.724  0.00  0.00     0.017 C 
HETATM   12  C   UNK N   1      31.334  17.852   7.469  0.00  0.00     0.015 C 
HETATM   13  C   UNK N   1      32.726  11.095   4.070  0.00  0.00     0.054 C 
HETATM   14  O   UNK N   1      33.400  14.266   2.337  0.00  0.00    -0.268 OA
HETATM   15  N   UNK N   1      31.911  12.723   1.772  0.00  0.00    -0.319 N 
HETATM   16  C   UNK N   1      27.529  17.875   4.989  0.00  0.00     0.144 C 
HETATM   17  C   UNK N   1      26.621  16.646   4.806  0.00  0.00     0.044 C 
HETATM   18  C   UNK N   1      30.520  12.597   2.082  0.00  0.00     0.099 C 
HETATM   19  C   UNK N   1      29.663  11.861   1.260  0.00  0.00     0.098 A 
HETATM   20  C   UNK N   1      29.934  13.209   3.216  0.00  0.00     0.108 C 
HETATM   21  C   UNK N   1      28.543  13.079   3.473  0.00  0.00     0.047 C 
HETATM   22  C   UNK N   1      27.683  12.517   2.479  0.00  0.00     0.026 C 
HETATM   23  C   UNK N   1      28.297  11.880   1.399  0.00  0.00     0.076 A 
HETATM   24  C   UNK N   1      27.995  13.436   4.737  0.00  0.00     0.088 C 
HETATM   25  C   UNK N   1      26.629  13.255   4.983  0.00  0.00     0.007 C 
HETATM   26  C   UNK N   1      25.810  12.899   3.934  0.00  0.00     0.096 C 
HETATM   27  C   UNK N   1      26.296  12.563   2.711  0.00  0.00     0.063 C 
HETATM   28  C   UNK N   1      29.746  17.340   4.008  0.00  0.00     0.015 C 
HETATM   29  C   UNK N   1      25.437  16.832   3.809  0.00  0.00     0.151 C 
HETATM   30  C   UNK N   1      24.950  15.528   3.186  0.00  0.00     0.029 C 
HETATM   31  C   UNK N   1      26.118  16.220   6.170  0.00  0.00     0.015 C 
HETATM   32  C   UNK N   1      23.699  15.227   2.776  0.00  0.00     0.137 C 
HETATM   33  O   UNK N   1      23.355  13.975   2.303  0.00  0.00    -0.319 OA
HETATM   34  O   UNK N   1      24.467  12.899   3.982  0.00  0.00    -0.305 OA
HETATM   35  C   UNK N   1      23.914  12.757   2.716  0.00  0.00     0.237 C 
HETATM   36  C   UNK N   1      25.126  12.377   1.884  0.00  0.00     0.225 C 
HETATM   37  C   UNK N   1      22.874  11.652   2.721  0.00  0.00     0.089 C 
HETATM   38  C   UNK N   1      26.046  13.459   6.339  0.00  0.00     0.054 C 
HETATM   39  N   UNK N   1      27.730  11.007   0.531  0.00  0.00    -0.339 N 
ATOM     40  HN  UNK N   1      26.739  10.832   0.366  1.00  0.00     0.167 HD
HETATM   41  C   UNK N   1      28.797  10.424  -0.066  0.00  0.00     0.113 A 
HETATM   42  N   UNK N   1      29.978  10.944   0.334  0.00  0.00    -0.304 N 
HETATM   43  O   UNK N   1      25.118  12.135   0.687  0.00  0.00    -0.286 OA
HETATM   44  C   UNK N   1      28.757   9.274  -0.851  0.00  0.00     0.056 A 
HETATM   45  C   UNK N   1      29.984   8.685  -1.205  0.00  0.00    -0.057 A 
HETATM   46  C   UNK N   1      31.201   9.275  -0.804  0.00  0.00     0.024 A 
HETATM   47  C   UNK N   1      31.180  10.435  -0.018  0.00  0.00     0.099 A 
HETATM   48  C   UNK N   1      30.001   7.394  -1.941  0.00  0.00     0.048 C 
HETATM   49  H   UNK N   1      32.211  12.432   0.881  0.00  0.00     0.169 HD
ENDROOT
BRANCH  16  50
HETATM   50  O   UNK N   1      26.867  18.885   5.677  0.00  0.00    -0.315 OA
BRANCH  50  51
HETATM   51  C   UNK N   1      27.437  19.795   6.506  0.00  0.00     0.255 C 
HETATM   52  C   UNK N   1      27.588  21.204   6.046  0.00  0.00     0.126 C 
HETATM   53  O   UNK N   1      27.842  19.475   7.611  0.00  0.00    -0.266 OA
ENDBRANCH  50  51
ENDBRANCH  16  50
BRANCH   1  54
HETATM   54  O   UNK N   1      28.584  16.573   7.465  0.00  0.00    -0.395 OA
HETATM   55  H   UNK N   1      28.699  16.725   8.416  0.00  0.00     0.210 HD
ENDBRANCH   1  54
BRANCH  29  56
HETATM   56  O   UNK N   1      24.437  17.766   4.184  0.00  0.00    -0.386 OA
HETATM   57  C   UNK N   1      24.536  18.917   3.383  0.00  0.00     0.202 C 
ENDBRANCH  29  56
BRANCH   3  58
HETATM   58  O   UNK N   1      31.717  14.287   6.464  0.00  0.00    -0.394 OA
HETATM   59  H   UNK N   1      31.357  13.692   7.140  0.00  0.00     0.210 HD
ENDBRANCH   3  58
BRANCH  24  60
HETATM   60  O   UNK N   1      28.784  13.864   5.733  0.00  0.00    -0.359 OA
HETATM   61  H   UNK N   1      28.761  13.505   6.599  0.00  0.00     0.217 HD
ENDBRANCH  24  60
BRANCH  20  62
HETATM   62  O   UNK N   1      30.700  13.898   4.069  0.00  0.00    -0.357 OA
HETATM   63  H   UNK N   1      30.860  14.811   3.933  0.00  0.00     0.217 HD
ENDBRANCH  20  62
TORSDOF 7
ENDMDL
MODEL 5
REMARK VINA RESULT:      -7.9      2.491      8.587
REMARK  7 active torsions:
REMARK  status: ('A' for Active; 'I' for Inactive)
REMARK    1  A    between atoms: C_1  and  O_14 
REMARK    2  A    between atoms: C_4  and  O_3 
REMARK    3  A    between atoms: C_18  and  O_19 
REMARK    4  A    between atoms: O_19  and  C_34 
REMARK    5  A    between atoms: C_23  and  O_31 
REMARK    6  A    between atoms: C_27  and  O_32 
REMARK    7  A    between atoms: C_37  and  O_38 
ROOT
HETATM    1  C   UNK N   1      33.613  15.984   6.329  0.00  0.00     0.130 C 
HETATM    2  C   UNK N   1      33.724  14.836   7.383  0.00  0.00     0.041 C 
HETATM    3  C   UNK N   1      31.493  17.724   6.609  0.00  0.00     0.131 C 
HETATM    4  C   UNK N   1      32.971  17.305   6.829  0.00  0.00     0.040 C 
HETATM    5  C   UNK N   1      29.203  17.971   7.651  0.00  0.00    -0.020 C 
HETATM    6  C   UNK N   1      30.372  17.043   7.424  0.00  0.00     0.033 C 
HETATM    7  C   UNK N   1      27.633  15.666   5.537  0.00  0.00     0.251 C 
HETATM    8  C   UNK N   1      27.841  16.941   4.784  0.00  0.00     0.006 C 
HETATM    9  C   UNK N   1      28.098  18.132   5.359  0.00  0.00     0.012 C 
HETATM   10  C   UNK N   1      28.276  18.440   6.796  0.00  0.00    -0.003 C 
HETATM   11  C   UNK N   1      30.857  16.714   8.825  0.00  0.00     0.017 C 
HETATM   12  C   UNK N   1      33.613  17.907   8.068  0.00  0.00     0.015 C 
HETATM   13  C   UNK N   1      27.656  16.937   3.302  0.00  0.00     0.054 C 
HETATM   14  O   UNK N   1      27.551  15.676   6.754  0.00  0.00    -0.268 OA
HETATM   15  N   UNK N   1      27.513  14.476   4.889  0.00  0.00    -0.319 N 
HETATM   16  C   UNK N   1      34.631  13.600   7.049  0.00  0.00     0.144 C 
HETATM   17  C   UNK N   1      34.580  13.024   5.623  0.00  0.00     0.044 C 
HETATM   18  C   UNK N   1      28.565  13.850   4.149  0.00  0.00     0.099 C 
HETATM   19  C   UNK N   1      28.308  12.760   3.314  0.00  0.00     0.098 A 
HETATM   20  C   UNK N   1      29.911  14.282   4.227  0.00  0.00     0.108 C 
HETATM   21  C   UNK N   1      30.930  13.615   3.495  0.00  0.00     0.047 C 
HETATM   22  C   UNK N   1      30.647  12.373   2.847  0.00  0.00     0.026 C 
HETATM   23  C   UNK N   1      29.305  12.003   2.748  0.00  0.00     0.076 A 
HETATM   24  C   UNK N   1      32.218  14.199   3.333  0.00  0.00     0.088 C 
HETATM   25  C   UNK N   1      33.191  13.546   2.568  0.00  0.00     0.007 C 
HETATM   26  C   UNK N   1      32.938  12.264   2.132  0.00  0.00     0.096 C 
HETATM   27  C   UNK N   1      31.725  11.670   2.278  0.00  0.00     0.063 C 
HETATM   28  C   UNK N   1      32.334  14.307   7.671  0.00  0.00     0.015 C 
HETATM   29  C   UNK N   1      34.838  11.490   5.511  0.00  0.00     0.151 C 
HETATM   30  C   UNK N   1      34.208  10.852   4.278  0.00  0.00     0.029 C 
HETATM   31  C   UNK N   1      35.554  13.802   4.762  0.00  0.00     0.015 C 
HETATM   32  C   UNK N   1      34.653   9.781   3.586  0.00  0.00     0.137 C 
HETATM   33  O   UNK N   1      34.042   9.342   2.427  0.00  0.00    -0.319 OA
HETATM   34  O   UNK N   1      33.855  11.453   1.578  0.00  0.00    -0.305 OA
HETATM   35  C   UNK N   1      33.388  10.148   1.484  0.00  0.00     0.237 C 
HETATM   36  C   UNK N   1      31.914  10.317   1.806  0.00  0.00     0.225 C 
HETATM   37  C   UNK N   1      33.593   9.621   0.076  0.00  0.00     0.089 C 
HETATM   38  C   UNK N   1      34.491  14.196   2.237  0.00  0.00     0.054 C 
HETATM   39  N   UNK N   1      28.767  11.077   1.917  0.00  0.00    -0.339 N 
ATOM     40  HN  UNK N   1      29.246  10.345   1.392  1.00  0.00     0.167 HD
HETATM   41  C   UNK N   1      27.443  11.358   1.951  0.00  0.00     0.113 A 
HETATM   42  N   UNK N   1      27.135  12.352   2.812  0.00  0.00    -0.304 N 
HETATM   43  O   UNK N   1      31.085   9.421   1.831  0.00  0.00    -0.286 OA
HETATM   44  C   UNK N   1      26.486  10.859   1.070  0.00  0.00     0.056 A 
HETATM   45  C   UNK N   1      25.201  11.429   1.115  0.00  0.00    -0.057 A 
HETATM   46  C   UNK N   1      24.900  12.438   2.052  0.00  0.00     0.024 A 
HETATM   47  C   UNK N   1      25.901  12.898   2.918  0.00  0.00     0.099 A 
HETATM   48  C   UNK N   1      24.175  11.020   0.120  0.00  0.00     0.048 C 
HETATM   49  H   UNK N   1      26.645  14.014   4.932  0.00  0.00     0.169 HD
ENDROOT
BRANCH  16  50
HETATM   50  O   UNK N   1      35.930  13.597   7.540  0.00  0.00    -0.315 OA
BRANCH  50  51
HETATM   51  C   UNK N   1      36.292  13.536   8.847  0.00  0.00     0.255 C 
HETATM   52  C   UNK N   1      35.584  12.589   9.754  0.00  0.00     0.126 C 
HETATM   53  O   UNK N   1      37.171  14.254   9.292  0.00  0.00    -0.266 OA
ENDBRANCH  50  51
ENDBRANCH  16  50
BRANCH   1  54
HETATM   54  O   UNK N   1      34.866  16.312   5.813  0.00  0.00    -0.395 OA
HETATM   55  H   UNK N   1      35.400  17.117   5.730  0.00  0.00     0.210 HD
ENDBRANCH   1  54
BRANCH  29  56
HETATM   56  O   UNK N   1      36.137  11.042   5.861  0.00  0.00    -0.386 OA
HETATM   57  C   UNK N   1      36.055  10.134   6.932  0.00  0.00     0.202 C 
ENDBRANCH  29  56
BRANCH   3  58
HETATM   58  O   UNK N   1      31.182  17.778   5.251  0.00  0.00    -0.394 OA
HETATM   59  H   UNK N   1      30.586  18.275   4.668  0.00  0.00     0.210 HD
ENDBRANCH   3  58
BRANCH  24  60
HETATM   60  O   UNK N   1      32.490  15.414   3.832  0.00  0.00    -0.359 OA
HETATM   61  H   UNK N   1      33.092  16.011   3.434  0.00  0.00     0.217 HD
ENDBRANCH  24  60
BRANCH  20  62
HETATM   62  O   UNK N   1      30.227  15.342   4.978  0.00  0.00    -0.357 OA
HETATM   63  H   UNK N   1      29.935  16.199   4.737  0.00  0.00     0.217 HD
ENDBRANCH  20  62
TORSDOF 7
ENDMDL
MODEL 6
REMARK VINA RESULT:      -7.9     13.188     16.726
REMARK  7 active torsions:
REMARK  status: ('A' for Active; 'I' for Inactive)
REMARK    1  A    between atoms: C_1  and  O_14 
REMARK    2  A    between atoms: C_4  and  O_3 
REMARK    3  A    between atoms: C_18  and  O_19 
REMARK    4  A    between atoms: O_19  and  C_34 
REMARK    5  A    between atoms: C_23  and  O_31 
REMARK    6  A    between atoms: C_27  and  O_32 
REMARK    7  A    between atoms: C_37  and  O_38 
ROOT
HETATM    1  C   UNK N   1      27.691  24.321  -6.100  0.00  0.00     0.130 C 
HETATM    2  C   UNK N   1      27.960  24.191  -7.633  0.00  0.00     0.041 C 
HETATM    3  C   UNK N   1      27.420  26.876  -5.101  0.00  0.00     0.131 C 
HETATM    4  C   UNK N   1      26.847  25.547  -5.661  0.00  0.00     0.040 C 
HETATM    5  C   UNK N   1      27.949  29.302  -5.579  0.00  0.00    -0.020 C 
HETATM    6  C   UNK N   1      28.110  27.877  -6.053  0.00  0.00     0.033 C 
HETATM    7  C   UNK N   1      31.402  28.982  -5.103  0.00  0.00     0.251 C 
HETATM    8  C   UNK N   1      30.734  29.001  -3.765  0.00  0.00     0.006 C 
HETATM    9  C   UNK N   1      29.481  29.444  -3.545  0.00  0.00     0.012 C 
HETATM   10  C   UNK N   1      28.496  29.945  -4.531  0.00  0.00    -0.003 C 
HETATM   11  C   UNK N   1      27.437  27.865  -7.414  0.00  0.00     0.017 C 
HETATM   12  C   UNK N   1      25.504  25.690  -6.356  0.00  0.00     0.015 C 
HETATM   13  C   UNK N   1      31.526  28.603  -2.563  0.00  0.00     0.054 C 
HETATM   14  O   UNK N   1      30.869  29.510  -6.065  0.00  0.00    -0.268 OA
HETATM   15  N   UNK N   1      32.617  28.396  -5.276  0.00  0.00    -0.319 N 
HETATM   16  C   UNK N   1      28.528  22.834  -8.179  0.00  0.00     0.144 C 
HETATM   17  C   UNK N   1      29.632  22.129  -7.372  0.00  0.00     0.044 C 
HETATM   18  C   UNK N   1      32.862  26.993  -5.150  0.00  0.00     0.099 C 
HETATM   19  C   UNK N   1      34.165  26.491  -5.101  0.00  0.00     0.098 A 
HETATM   20  C   UNK N   1      31.817  26.041  -5.081  0.00  0.00     0.108 C 
HETATM   21  C   UNK N   1      32.105  24.653  -4.982  0.00  0.00     0.047 C 
HETATM   22  C   UNK N   1      33.442  24.186  -5.171  0.00  0.00     0.026 C 
HETATM   23  C   UNK N   1      34.452  25.150  -5.188  0.00  0.00     0.076 A 
HETATM   24  C   UNK N   1      31.093  23.718  -4.626  0.00  0.00     0.088 C 
HETATM   25  C   UNK N   1      31.410  22.362  -4.488  0.00  0.00     0.007 C 
HETATM   26  C   UNK N   1      32.661  21.934  -4.873  0.00  0.00     0.096 C 
HETATM   27  C   UNK N   1      33.649  22.796  -5.230  0.00  0.00     0.063 C 
HETATM   28  C   UNK N   1      28.928  25.280  -8.049  0.00  0.00     0.015 C 
HETATM   29  C   UNK N   1      30.646  21.294  -8.213  0.00  0.00     0.151 C 
HETATM   30  C   UNK N   1      32.006  21.130  -7.544  0.00  0.00     0.029 C 
HETATM   31  C   UNK N   1      28.972  21.271  -6.313  0.00  0.00     0.015 C 
HETATM   32  C   UNK N   1      32.864  20.093  -7.664  0.00  0.00     0.137 C 
HETATM   33  O   UNK N   1      34.037  20.014  -6.938  0.00  0.00    -0.319 OA
HETATM   34  O   UNK N   1      33.023  20.645  -4.993  0.00  0.00    -0.305 OA
HETATM   35  C   UNK N   1      34.242  20.518  -5.647  0.00  0.00     0.237 C 
HETATM   36  C   UNK N   1      34.738  21.953  -5.668  0.00  0.00     0.225 C 
HETATM   37  C   UNK N   1      35.170  19.621  -4.849  0.00  0.00     0.089 C 
HETATM   38  C   UNK N   1      30.424  21.379  -3.958  0.00  0.00     0.054 C 
HETATM   39  N   UNK N   1      35.782  24.950  -5.019  0.00  0.00    -0.339 N 
ATOM     40  HN  UNK N   1      36.301  24.074  -5.075  1.00  0.00     0.167 HD
HETATM   41  C   UNK N   1      36.254  26.191  -4.758  0.00  0.00     0.113 A 
HETATM   42  N   UNK N   1      35.303  27.147  -4.832  0.00  0.00    -0.304 N 
HETATM   43  O   UNK N   1      35.799  22.331  -6.142  0.00  0.00    -0.286 OA
HETATM   44  C   UNK N   1      37.521  26.488  -4.259  0.00  0.00     0.056 A 
HETATM   45  C   UNK N   1      37.762  27.809  -3.840  0.00  0.00    -0.057 A 
HETATM   46  C   UNK N   1      36.760  28.792  -3.968  0.00  0.00     0.024 A 
HETATM   47  C   UNK N   1      35.505  28.437  -4.481  0.00  0.00     0.099 A 
HETATM   48  C   UNK N   1      39.054  28.155  -3.191  0.00  0.00     0.048 C 
HETATM   49  H   UNK N   1      33.379  28.977  -5.504  0.00  0.00     0.169 HD
ENDROOT
BRANCH  16  50
HETATM   50  O   UNK N   1      27.624  21.913  -8.695  0.00  0.00    -0.315 OA
BRANCH  50  51
HETATM   51  C   UNK N   1      26.325  22.153  -9.004  0.00  0.00     0.255 C 
HETATM   52  C   UNK N   1      25.257  21.677  -8.079  0.00  0.00     0.126 C 
HETATM   53  O   UNK N   1      26.017  22.733 -10.031  0.00  0.00    -0.266 OA
ENDBRANCH  50  51
ENDBRANCH  16  50
BRANCH   1  54
HETATM   54  O   UNK N   1      27.045  23.188  -5.608  0.00  0.00    -0.395 OA
HETATM   55  H   UNK N   1      26.185  22.991  -5.204  0.00  0.00     0.210 HD
ENDBRANCH   1  54
BRANCH  29  56
HETATM   56  O   UNK N   1      30.126  20.154  -8.878  0.00  0.00    -0.386 OA
HETATM   57  C   UNK N   1      30.302  20.291 -10.266  0.00  0.00     0.202 C 
ENDBRANCH  29  56
BRANCH   3  58
HETATM   58  O   UNK N   1      28.179  26.653  -3.951  0.00  0.00    -0.394 OA
HETATM   59  H   UNK N   1      28.414  25.907  -3.377  0.00  0.00     0.210 HD
ENDBRANCH   3  58
BRANCH  24  60
HETATM   60  O   UNK N   1      29.850  24.128  -4.333  0.00  0.00    -0.359 OA
HETATM   61  H   UNK N   1      29.121  23.545  -4.251  0.00  0.00     0.217 HD
ENDBRANCH  24  60
BRANCH  20  62
HETATM   62  O   UNK N   1      30.543  26.450  -5.085  0.00  0.00    -0.357 OA
HETATM   63  H   UNK N   1      29.847  25.833  -5.189  0.00  0.00     0.217 HD
ENDBRANCH  20  62
TORSDOF 7
ENDMDL
MODEL 7
REMARK VINA RESULT:      -7.9      1.665      2.265
REMARK  7 active torsions:
REMARK  status: ('A' for Active; 'I' for Inactive)
REMARK    1  A    between atoms: C_1  and  O_14 
REMARK    2  A    between atoms: C_4  and  O_3 
REMARK    3  A    between atoms: C_18  and  O_19 
REMARK    4  A    between atoms: O_19  and  C_34 
REMARK    5  A    between atoms: C_23  and  O_31 
REMARK    6  A    between atoms: C_27  and  O_32 
REMARK    7  A    between atoms: C_37  and  O_38 
ROOT
HETATM    1  C   UNK N   1      29.804  14.223   2.836  0.00  0.00     0.130 C 
HETATM    2  C   UNK N   1      28.857  13.991   4.056  0.00  0.00     0.041 C 
HETATM    3  C   UNK N   1      30.747  11.973   1.554  0.00  0.00     0.131 C 
HETATM    4  C   UNK N   1      29.747  13.147   1.719  0.00  0.00     0.040 C 
HETATM    5  C   UNK N   1      31.142   9.492   1.847  0.00  0.00    -0.020 C 
HETATM    6  C   UNK N   1      30.682  10.766   2.515  0.00  0.00     0.033 C 
HETATM    7  C   UNK N   1      33.759   9.848   4.144  0.00  0.00     0.251 C 
HETATM    8  C   UNK N   1      34.279  10.151   2.775  0.00  0.00     0.006 C 
HETATM    9  C   UNK N   1      33.664   9.794   1.630  0.00  0.00     0.012 C 
HETATM   10  C   UNK N   1      32.369   9.098   1.460  0.00  0.00    -0.003 C 
HETATM   11  C   UNK N   1      29.244  10.476   2.907  0.00  0.00     0.017 C 
HETATM   12  C   UNK N   1      28.364  12.873   1.155  0.00  0.00     0.015 C 
HETATM   13  C   UNK N   1      35.618  10.800   2.644  0.00  0.00     0.054 C 
HETATM   14  O   UNK N   1      32.788   9.122   4.287  0.00  0.00    -0.268 OA
HETATM   15  N   UNK N   1      34.359  10.355   5.255  0.00  0.00    -0.319 N 
HETATM   16  C   UNK N   1      28.629  15.175   5.061  0.00  0.00     0.144 C 
HETATM   17  C   UNK N   1      29.844  16.025   5.471  0.00  0.00     0.044 C 
HETATM   18  C   UNK N   1      34.392  11.745   5.590  0.00  0.00     0.099 C 
HETATM   19  C   UNK N   1      35.226  12.220   6.606  0.00  0.00     0.098 A 
HETATM   20  C   UNK N   1      33.588  12.706   4.933  0.00  0.00     0.108 C 
HETATM   21  C   UNK N   1      33.634  14.074   5.315  0.00  0.00     0.047 C 
HETATM   22  C   UNK N   1      34.324  14.459   6.506  0.00  0.00     0.026 C 
HETATM   23  C   UNK N   1      35.144  13.499   7.101  0.00  0.00     0.076 A 
HETATM   24  C   UNK N   1      33.063  15.085   4.493  0.00  0.00     0.088 C 
HETATM   25  C   UNK N   1      33.161  16.430   4.866  0.00  0.00     0.007 C 
HETATM   26  C   UNK N   1      33.657  16.734   6.115  0.00  0.00     0.096 C 
HETATM   27  C   UNK N   1      34.201  15.794   6.932  0.00  0.00     0.063 C 
HETATM   28  C   UNK N   1      29.380  12.817   4.859  0.00  0.00     0.015 C 
HETATM   29  C   UNK N   1      29.787  16.624   6.909  0.00  0.00     0.151 C 
HETATM   30  C   UNK N   1      31.159  16.913   7.507  0.00  0.00     0.029 C 
HETATM   31  C   UNK N   1      30.029  17.116   4.436  0.00  0.00     0.015 C 
HETATM   32  C   UNK N   1      31.486  17.878   8.394  0.00  0.00     0.137 C 
HETATM   33  O   UNK N   1      32.787  18.100   8.802  0.00  0.00    -0.319 OA
HETATM   34  O   UNK N   1      33.610  17.953   6.678  0.00  0.00    -0.305 OA
HETATM   35  C   UNK N   1      33.938  17.903   8.027  0.00  0.00     0.237 C 
HETATM   36  C   UNK N   1      34.483  16.493   8.165  0.00  0.00     0.225 C 
HETATM   37  C   UNK N   1      34.998  18.942   8.344  0.00  0.00     0.089 C 
HETATM   38  C   UNK N   1      32.725  17.527   3.958  0.00  0.00     0.054 C 
HETATM   39  N   UNK N   1      36.129  13.708   8.008  0.00  0.00    -0.339 N 
ATOM     40  HN  UNK N   1      36.299  14.537   8.577  1.00  0.00     0.167 HD
HETATM   41  C   UNK N   1      36.832  12.551   7.978  0.00  0.00     0.113 A 
HETATM   42  N   UNK N   1      36.289  11.622   7.161  0.00  0.00    -0.304 N 
HETATM   43  O   UNK N   1      34.914  15.996   9.194  0.00  0.00    -0.286 OA
HETATM   44  C   UNK N   1      38.092  12.353   8.539  0.00  0.00     0.056 A 
HETATM   45  C   UNK N   1      38.765  11.161   8.222  0.00  0.00    -0.057 A 
HETATM   46  C   UNK N   1      38.154  10.193   7.398  0.00  0.00     0.024 A 
HETATM   47  C   UNK N   1      36.883  10.444   6.865  0.00  0.00     0.099 A 
HETATM   48  C   UNK N   1      40.159  10.949   8.695  0.00  0.00     0.048 C 
HETATM   49  H   UNK N   1      34.798   9.723   5.869  0.00  0.00     0.169 HD
ENDROOT
BRANCH  16  50
HETATM   50  O   UNK N   1      27.503  15.969   4.884  0.00  0.00    -0.315 OA
BRANCH  50  51
HETATM   51  C   UNK N   1      26.559  15.816   3.921  0.00  0.00     0.255 C 
HETATM   52  C   UNK N   1      25.326  15.037   4.228  0.00  0.00     0.126 C 
HETATM   53  O   UNK N   1      26.711  16.289   2.807  0.00  0.00    -0.266 OA
ENDBRANCH  50  51
ENDBRANCH  16  50
BRANCH   1  54
HETATM   54  O   UNK N   1      29.545  15.451   2.229  0.00  0.00    -0.395 OA
HETATM   55  H   UNK N   1      29.247  16.327   2.519  0.00  0.00     0.210 HD
ENDBRANCH   1  54
BRANCH  29  56
HETATM   56  O   UNK N   1      28.776  17.590   7.151  0.00  0.00    -0.386 OA
HETATM   57  C   UNK N   1      27.970  17.177   8.226  0.00  0.00     0.202 C 
ENDBRANCH  29  56
BRANCH   3  58
HETATM   58  O   UNK N   1      32.053  12.440   1.403  0.00  0.00    -0.394 OA
HETATM   59  H   UNK N   1      32.507  13.293   1.313  0.00  0.00     0.210 HD
ENDBRANCH   3  58
BRANCH  24  60
HETATM   60  O   UNK N   1      32.503  14.777   3.313  0.00  0.00    -0.359 OA
HETATM   61  H   UNK N   1      32.744  15.187   2.506  0.00  0.00     0.217 HD
ENDBRANCH  24  60
BRANCH  20  62
HETATM   62  O   UNK N   1      32.793  12.331   3.925  0.00  0.00    -0.357 OA
HETATM   63  H   UNK N   1      31.867  12.454   3.980  0.00  0.00     0.217 HD
ENDBRANCH  20  62
TORSDOF 7
ENDMDL
MODEL 8
REMARK VINA RESULT:      -7.8      4.020      9.013
REMARK  7 active torsions:
REMARK  status: ('A' for Active; 'I' for Inactive)
REMARK    1  A    between atoms: C_1  and  O_14 
REMARK    2  A    between atoms: C_4  and  O_3 
REMARK    3  A    between atoms: C_18  and  O_19 
REMARK    4  A    between atoms: O_19  and  C_34 
REMARK    5  A    between atoms: C_23  and  O_31 
REMARK    6  A    between atoms: C_27  and  O_32 
REMARK    7  A    between atoms: C_37  and  O_38 
ROOT
HETATM    1  C   UNK N   1      24.512  10.291   2.408  0.00  0.00     0.130 C 
HETATM    2  C   UNK N   1      24.868  10.516   0.903  0.00  0.00     0.041 C 
HETATM    3  C   UNK N   1      22.178  11.442   3.315  0.00  0.00     0.131 C 
HETATM    4  C   UNK N   1      22.999  10.254   2.749  0.00  0.00     0.040 C 
HETATM    5  C   UNK N   1      20.487  13.255   2.814  0.00  0.00    -0.020 C 
HETATM    6  C   UNK N   1      21.790  12.618   2.392  0.00  0.00     0.033 C 
HETATM    7  C   UNK N   1      22.635  15.917   3.558  0.00  0.00     0.251 C 
HETATM    8  C   UNK N   1      22.164  15.310   4.840  0.00  0.00     0.006 C 
HETATM    9  C   UNK N   1      21.088  14.506   4.953  0.00  0.00     0.012 C 
HETATM   10  C   UNK N   1      20.190  14.016   3.883  0.00  0.00    -0.003 C 
HETATM   11  C   UNK N   1      21.514  12.118   0.984  0.00  0.00     0.017 C 
HETATM   12  C   UNK N   1      22.181   9.253   1.951  0.00  0.00     0.015 C 
HETATM   13  C   UNK N   1      22.856  15.687   6.109  0.00  0.00     0.054 C 
HETATM   14  O   UNK N   1      21.962  15.815   2.545  0.00  0.00    -0.268 OA
HETATM   15  N   UNK N   1      23.805  16.607   3.492  0.00  0.00    -0.319 N 
HETATM   16  C   UNK N   1      26.344  10.257   0.437  0.00  0.00     0.144 C 
HETATM   17  C   UNK N   1      27.489  10.742   1.344  0.00  0.00     0.044 C 
HETATM   18  C   UNK N   1      25.098  16.022   3.673  0.00  0.00     0.099 C 
HETATM   19  C   UNK N   1      26.233  16.821   3.834  0.00  0.00     0.098 A 
HETATM   20  C   UNK N   1      25.305  14.622   3.688  0.00  0.00     0.108 C 
HETATM   21  C   UNK N   1      26.610  14.083   3.846  0.00  0.00     0.047 C 
HETATM   22  C   UNK N   1      27.750  14.941   3.770  0.00  0.00     0.026 C 
HETATM   23  C   UNK N   1      27.510  16.316   3.805  0.00  0.00     0.076 A 
HETATM   24  C   UNK N   1      26.803  12.706   4.149  0.00  0.00     0.088 C 
HETATM   25  C   UNK N   1      28.095  12.207   4.346  0.00  0.00     0.007 C 
HETATM   26  C   UNK N   1      29.168  13.025   4.068  0.00  0.00     0.096 C 
HETATM   27  C   UNK N   1      29.023  14.341   3.764  0.00  0.00     0.063 C 
HETATM   28  C   UNK N   1      24.526  11.945   0.533  0.00  0.00     0.015 C 
HETATM   29  C   UNK N   1      28.797  11.158   0.604  0.00  0.00     0.151 C 
HETATM   30  C   UNK N   1      29.644  12.162   1.378  0.00  0.00     0.029 C 
HETATM   31  C   UNK N   1      27.767   9.665   2.373  0.00  0.00     0.015 C 
HETATM   32  C   UNK N   1      30.987  12.301   1.351  0.00  0.00     0.137 C 
HETATM   33  O   UNK N   1      31.656  13.195   2.164  0.00  0.00    -0.319 OA
HETATM   34  O   UNK N   1      30.446  12.613   4.010  0.00  0.00    -0.305 OA
HETATM   35  C   UNK N   1      31.269  13.584   3.454  0.00  0.00     0.237 C 
HETATM   36  C   UNK N   1      30.354  14.795   3.432  0.00  0.00     0.225 C 
HETATM   37  C   UNK N   1      32.476  13.816   4.343  0.00  0.00     0.089 C 
HETATM   38  C   UNK N   1      28.331  10.816   4.826  0.00  0.00     0.054 C 
HETATM   39  N   UNK N   1      28.403  17.299   4.078  0.00  0.00    -0.339 N 
ATOM     40  HN  UNK N   1      29.421  17.244   4.085  1.00  0.00     0.167 HD
HETATM   41  C   UNK N   1      27.617  18.370   4.341  0.00  0.00     0.113 A 
HETATM   42  N   UNK N   1      26.301  18.116   4.170  0.00  0.00    -0.304 N 
HETATM   43  O   UNK N   1      30.658  15.908   3.030  0.00  0.00    -0.286 OA
HETATM   44  C   UNK N   1      28.040  19.561   4.926  0.00  0.00     0.056 A 
HETATM   45  C   UNK N   1      27.051  20.476   5.327  0.00  0.00    -0.057 A 
HETATM   46  C   UNK N   1      25.687  20.199   5.098  0.00  0.00     0.024 A 
HETATM   47  C   UNK N   1      25.320  18.986   4.501  0.00  0.00     0.099 A 
HETATM   48  C   UNK N   1      27.437  21.709   6.063  0.00  0.00     0.048 C 
HETATM   49  H   UNK N   1      23.760  17.573   3.307  0.00  0.00     0.169 HD
ENDROOT
BRANCH  16  50
HETATM   50  O   UNK N   1      26.640   9.019  -0.120  0.00  0.00    -0.315 OA
BRANCH  50  51
HETATM   51  C   UNK N   1      25.755   8.023  -0.375  0.00  0.00     0.255 C 
HETATM   52  C   UNK N   1      25.138   7.927  -1.728  0.00  0.00     0.126 C 
HETATM   53  O   UNK N   1      25.444   7.219   0.488  0.00  0.00    -0.266 OA
ENDBRANCH  50  51
ENDBRANCH  16  50
BRANCH   1  54
HETATM   54  O   UNK N   1      25.064   9.101   2.879  0.00  0.00    -0.395 OA
HETATM   55  H   UNK N   1      24.796   8.170   2.912  0.00  0.00     0.210 HD
ENDBRANCH   1  54
BRANCH  29  56
HETATM   56  O   UNK N   1      29.498  10.123  -0.068  0.00  0.00    -0.386 OA
HETATM   57  C   UNK N   1      29.687  10.475  -1.416  0.00  0.00     0.202 C 
ENDBRANCH  29  56
BRANCH   3  58
HETATM   58  O   UNK N   1      22.709  11.892   4.524  0.00  0.00    -0.394 OA
HETATM   59  H   UNK N   1      23.290  11.556   5.225  0.00  0.00     0.210 HD
ENDBRANCH   3  58
BRANCH  24  60
HETATM   60  O   UNK N   1      25.755  11.890   4.337  0.00  0.00    -0.359 OA
HETATM   61  H   UNK N   1      25.630  11.094   3.858  0.00  0.00     0.217 HD
ENDBRANCH  24  60
BRANCH  20  62
HETATM   62  O   UNK N   1      24.260  13.794   3.578  0.00  0.00    -0.357 OA
HETATM   63  H   UNK N   1      23.415  14.124   3.344  0.00  0.00     0.217 HD
ENDBRANCH  20  62
TORSDOF 7
ENDMDL
MODEL 9
REMARK VINA RESULT:      -7.7      2.420      8.059
REMARK  7 active torsions:
REMARK  status: ('A' for Active; 'I' for Inactive)
REMARK    1  A    between atoms: C_1  and  O_14 
REMARK    2  A    between atoms: C_4  and  O_3 
REMARK    3  A    between atoms: C_18  and  O_19 
REMARK    4  A    between atoms: O_19  and  C_34 
REMARK    5  A    between atoms: C_23  and  O_31 
REMARK    6  A    between atoms: C_27  and  O_32 
REMARK    7  A    between atoms: C_37  and  O_38 
ROOT
HETATM    1  C   UNK N   1      33.869  16.043   7.047  0.00  0.00     0.130 C 
HETATM    2  C   UNK N   1      33.716  15.189   8.346  0.00  0.00     0.041 C 
HETATM    3  C   UNK N   1      31.713  17.603   6.327  0.00  0.00     0.131 C 
HETATM    4  C   UNK N   1      33.085  17.382   7.018  0.00  0.00     0.040 C 
HETATM    5  C   UNK N   1      29.220  17.882   6.648  0.00  0.00    -0.020 C 
HETATM    6  C   UNK N   1      30.429  17.035   6.969  0.00  0.00     0.033 C 
HETATM    7  C   UNK N   1      28.338  15.014   4.847  0.00  0.00     0.251 C 
HETATM    8  C   UNK N   1      28.713  16.090   3.879  0.00  0.00     0.006 C 
HETATM    9  C   UNK N   1      28.776  17.401   4.184  0.00  0.00     0.012 C 
HETATM   10  C   UNK N   1      28.550  18.052   5.494  0.00  0.00    -0.003 C 
HETATM   11  C   UNK N   1      30.523  17.089   8.484  0.00  0.00     0.017 C 
HETATM   12  C   UNK N   1      33.352  18.312   8.188  0.00  0.00     0.015 C 
HETATM   13  C   UNK N   1      28.937  15.722   2.449  0.00  0.00     0.054 C 
HETATM   14  O   UNK N   1      27.928  15.302   5.959  0.00  0.00    -0.268 OA
HETATM   15  N   UNK N   1      28.426  13.699   4.509  0.00  0.00    -0.319 N 
HETATM   16  C   UNK N   1      34.708  13.995   8.576  0.00  0.00     0.144 C 
HETATM   17  C   UNK N   1      35.059  13.099   7.376  0.00  0.00     0.044 C 
HETATM   18  C   UNK N   1      29.654  13.014   4.246  0.00  0.00     0.099 C 
HETATM   19  C   UNK N   1      29.659  11.741   3.672  0.00  0.00     0.098 A 
HETATM   20  C   UNK N   1      30.917  13.571   4.557  0.00  0.00     0.108 C 
HETATM   21  C   UNK N   1      32.112  12.845   4.303  0.00  0.00     0.047 C 
HETATM   22  C   UNK N   1      32.045  11.465   3.936  0.00  0.00     0.026 C 
HETATM   23  C   UNK N   1      30.788  10.964   3.591  0.00  0.00     0.076 A 
HETATM   24  C   UNK N   1      33.381  13.487   4.337  0.00  0.00     0.088 C 
HETATM   25  C   UNK N   1      34.541  12.763   4.037  0.00  0.00     0.007 C 
HETATM   26  C   UNK N   1      34.445  11.397   3.886  0.00  0.00     0.096 C 
HETATM   27  C   UNK N   1      33.252  10.748   3.858  0.00  0.00     0.063 C 
HETATM   28  C   UNK N   1      32.313  14.620   8.389  0.00  0.00     0.015 C 
HETATM   29  C   UNK N   1      35.373  11.611   7.722  0.00  0.00     0.151 C 
HETATM   30  C   UNK N   1      35.117  10.648   6.568  0.00  0.00     0.029 C 
HETATM   31  C   UNK N   1      36.213  13.737   6.629  0.00  0.00     0.015 C 
HETATM   32  C   UNK N   1      35.757   9.488   6.305  0.00  0.00     0.137 C 
HETATM   33  O   UNK N   1      35.495   8.737   5.176  0.00  0.00    -0.319 OA
HETATM   34  O   UNK N   1      35.497  10.564   3.807  0.00  0.00    -0.305 OA
HETATM   35  C   UNK N   1      35.103   9.237   3.926  0.00  0.00     0.237 C 
HETATM   36  C   UNK N   1      33.594   9.345   3.804  0.00  0.00     0.225 C 
HETATM   37  C   UNK N   1      35.695   8.414   2.796  0.00  0.00     0.089 C 
HETATM   38  C   UNK N   1      35.866  13.431   3.900  0.00  0.00     0.054 C 
HETATM   39  N   UNK N   1      30.518   9.824   2.908  0.00  0.00    -0.339 N 
ATOM     40  HN  UNK N   1      31.138   9.035   2.724  1.00  0.00     0.167 HD
HETATM   41  C   UNK N   1      29.229   9.986   2.528  0.00  0.00     0.113 A 
HETATM   42  N   UNK N   1      28.675  11.122   3.004  0.00  0.00    -0.304 N 
HETATM   43  O   UNK N   1      32.810   8.409   3.838  0.00  0.00    -0.286 OA
HETATM   44  C   UNK N   1      28.558   9.211   1.584  0.00  0.00     0.056 A 
HETATM   45  C   UNK N   1      27.297   9.657   1.153  0.00  0.00    -0.057 A 
HETATM   46  C   UNK N   1      26.729  10.827   1.698  0.00  0.00     0.024 A 
HETATM   47  C   UNK N   1      27.447  11.565   2.649  0.00  0.00     0.099 A 
HETATM   48  C   UNK N   1      26.589   8.936   0.063  0.00  0.00     0.048 C 
HETATM   49  H   UNK N   1      27.589  13.185   4.441  0.00  0.00     0.169 HD
ENDROOT
BRANCH  16  50
HETATM   50  O   UNK N   1      35.825  14.224   9.371  0.00  0.00    -0.315 OA
BRANCH  50  51
HETATM   51  C   UNK N   1      35.861  14.965  10.506  0.00  0.00     0.255 C 
HETATM   52  C   UNK N   1      35.088  14.511  11.697  0.00  0.00     0.126 C 
HETATM   53  O   UNK N   1      36.500  16.003  10.562  0.00  0.00    -0.266 OA
ENDBRANCH  50  51
ENDBRANCH  16  50
BRANCH   1  54
HETATM   54  O   UNK N   1      35.207  16.352   6.806  0.00  0.00    -0.395 OA
HETATM   55  H   UNK N   1      35.708  17.142   6.551  0.00  0.00     0.210 HD
ENDBRANCH   1  54
BRANCH  29  56
HETATM   56  O   UNK N   1      36.539  11.376   8.496  0.00  0.00    -0.386 OA
HETATM   57  C   UNK N   1      36.186  10.778   9.718  0.00  0.00     0.202 C 
ENDBRANCH  29  56
BRANCH   3  58
HETATM   58  O   UNK N   1      31.781  17.309   4.965  0.00  0.00    -0.394 OA
HETATM   59  H   UNK N   1      32.163  17.698   4.163  0.00  0.00     0.210 HD
ENDBRANCH   3  58
BRANCH  24  60
HETATM   60  O   UNK N   1      33.480  14.805   4.569  0.00  0.00    -0.359 OA
HETATM   61  H   UNK N   1      34.294  15.268   4.570  0.00  0.00     0.217 HD
ENDBRANCH  24  60
BRANCH  20  62
HETATM   62  O   UNK N   1      30.993  14.802   5.074  0.00  0.00    -0.357 OA
HETATM   63  H   UNK N   1      30.219  15.245   5.361  0.00  0.00     0.217 HD
ENDBRANCH  20  62
TORSDOF 7
ENDMDL
