MODEL 1
REMARK VINA RESULT:      -3.1      0.000      0.000
REMARK  3 active torsions:
REMARK  status: ('A' for Active; 'I' for Inactive)
REMARK    1  A    between atoms: N_17  and  C_18 
REMARK    2  A    between atoms: C_18  and  C_19 
REMARK    3  A    between atoms: C_19  and  O_20 
ROOT
HETATM    1  C   UNK N   1      23.585  11.390   8.938  0.00  0.00     0.271 C 
HETATM    2  N   UNK N   1      23.887  12.491   9.841  0.00  0.00    -0.077 N 
HETATM    3  C   UNK N   1      24.871  13.372   9.228  0.00  0.00     0.271 C 
HETATM    4  C   UNK N   1      22.671  13.249  10.061  0.00  0.00     0.271 C 
ENDROOT
BRANCH   2   5
HETATM    5  C   UNK N   1      24.350  11.997  11.138  0.00  0.00     0.262 C 
BRANCH   5   6
HETATM    6  C   UNK N   1      23.248  11.952  12.194  0.00  0.00     0.192 C 
BRANCH   6   7
HETATM    7  O   UNK N   1      23.777  12.320  13.429  0.00  0.00    -0.399 OA
HETATM    8  H   UNK N   1      23.893  11.711  14.174  0.00  0.00     0.209 HD
ENDBRANCH   6   7
ENDBRANCH   5   6
ENDBRANCH   2   5
TORSDOF 3
ENDMDL
MODEL 2
REMARK VINA RESULT:      -3.0     10.675     11.602
REMARK  3 active torsions:
REMARK  status: ('A' for Active; 'I' for Inactive)
REMARK    1  A    between atoms: N_17  and  C_18 
REMARK    2  A    between atoms: C_18  and  C_19 
REMARK    3  A    between atoms: C_19  and  O_20 
ROOT
HETATM    1  C   UNK N   1      33.295  15.749   7.329  0.00  0.00     0.271 C 
HETATM    2  N   UNK N   1      32.885  17.088   6.932  0.00  0.00    -0.077 N 
HETATM    3  C   UNK N   1      33.498  17.430   5.657  0.00  0.00     0.271 C 
HETATM    4  C   UNK N   1      31.445  17.094   6.762  0.00  0.00     0.271 C 
ENDROOT
BRANCH   2   5
HETATM    5  C   UNK N   1      33.221  18.069   7.964  0.00  0.00     0.262 C 
BRANCH   5   6
HETATM    6  C   UNK N   1      34.662  17.956   8.457  0.00  0.00     0.192 C 
BRANCH   6   7
HETATM    7  O   UNK N   1      35.243  19.222   8.478  0.00  0.00    -0.399 OA
HETATM    8  H   UNK N   1      35.046  19.900   9.143  0.00  0.00     0.209 HD
ENDBRANCH   6   7
ENDBRANCH   5   6
ENDBRANCH   2   5
TORSDOF 3
ENDMDL
MODEL 3
REMARK VINA RESULT:      -3.0     10.453     11.284
REMARK  3 active torsions:
REMARK  status: ('A' for Active; 'I' for Inactive)
REMARK    1  A    between atoms: N_17  and  C_18 
REMARK    2  A    between atoms: C_18  and  C_19 
REMARK    3  A    between atoms: C_19  and  O_20 
ROOT
HETATM    1  C   UNK N   1      31.310  17.932   8.613  0.00  0.00     0.271 C 
HETATM    2  N   UNK N   1      32.341  17.170   7.924  0.00  0.00    -0.077 N 
HETATM    3  C   UNK N   1      32.799  16.083   8.778  0.00  0.00     0.271 C 
HETATM    4  C   UNK N   1      31.762  16.595   6.726  0.00  0.00     0.271 C 
ENDROOT
BRANCH   2   5
HETATM    5  C   UNK N   1      33.452  18.032   7.519  0.00  0.00     0.262 C 
BRANCH   5   6
HETATM    6  C   UNK N   1      34.635  17.983   8.483  0.00  0.00     0.192 C 
BRANCH   6   7
HETATM    7  O   UNK N   1      35.271  19.223   8.496  0.00  0.00    -0.399 OA
HETATM    8  H   UNK N   1      36.218  19.350   8.329  0.00  0.00     0.209 HD
ENDBRANCH   6   7
ENDBRANCH   5   6
ENDBRANCH   2   5
TORSDOF 3
ENDMDL
MODEL 4
REMARK VINA RESULT:      -3.0     10.651     11.686
REMARK  3 active torsions:
REMARK  status: ('A' for Active; 'I' for Inactive)
REMARK    1  A    between atoms: N_17  and  C_18 
REMARK    2  A    between atoms: C_18  and  C_19 
REMARK    3  A    between atoms: C_19  and  O_20 
ROOT
HETATM    1  C   UNK N   1      34.283  15.307   7.688  0.00  0.00     0.271 C 
HETATM    2  N   UNK N   1      33.738  15.982   8.856  0.00  0.00    -0.077 N 
HETATM    3  C   UNK N   1      32.355  16.361   8.603  0.00  0.00     0.271 C 
HETATM    4  C   UNK N   1      33.760  15.057   9.972  0.00  0.00     0.271 C 
ENDROOT
BRANCH   2   5
HETATM    5  C   UNK N   1      34.550  17.145   9.219  0.00  0.00     0.262 C 
BRANCH   5   6
HETATM    6  C   UNK N   1      34.484  18.271   8.190  0.00  0.00     0.192 C 
BRANCH   6   7
HETATM    7  O   UNK N   1      35.356  19.291   8.565  0.00  0.00    -0.399 OA
HETATM    8  H   UNK N   1      36.039  19.662   7.985  0.00  0.00     0.209 HD
ENDBRANCH   6   7
ENDBRANCH   5   6
ENDBRANCH   2   5
TORSDOF 3
ENDMDL
MODEL 5
REMARK VINA RESULT:      -2.8     10.456     11.171
REMARK  3 active torsions:
REMARK  status: ('A' for Active; 'I' for Inactive)
REMARK    1  A    between atoms: N_17  and  C_18 
REMARK    2  A    between atoms: C_18  and  C_19 
REMARK    3  A    between atoms: C_19  and  O_20 
ROOT
HETATM    1  C   UNK N   1      34.533  16.127   7.435  0.00  0.00     0.271 C 
HETATM    2  N   UNK N   1      34.090  17.031   8.486  0.00  0.00    -0.077 N 
HETATM    3  C   UNK N   1      34.565  18.379   8.205  0.00  0.00     0.271 C 
HETATM    4  C   UNK N   1      32.641  17.051   8.492  0.00  0.00     0.271 C 
ENDROOT
BRANCH   2   5
HETATM    5  C   UNK N   1      34.540  16.572   9.800  0.00  0.00     0.262 C 
BRANCH   5   6
HETATM    6  C   UNK N   1      34.224  15.101  10.065  0.00  0.00     0.192 C 
BRANCH   6   7
HETATM    7  O   UNK N   1      33.384  15.002  11.172  0.00  0.00    -0.399 OA
HETATM    8  H   UNK N   1      33.688  15.053  12.092  0.00  0.00     0.209 HD
ENDBRANCH   6   7
ENDBRANCH   5   6
ENDBRANCH   2   5
TORSDOF 3
ENDMDL
MODEL 6
REMARK VINA RESULT:      -2.8     10.873     11.722
REMARK  3 active torsions:
REMARK  status: ('A' for Active; 'I' for Inactive)
REMARK    1  A    between atoms: N_17  and  C_18 
REMARK    2  A    between atoms: C_18  and  C_19 
REMARK    3  A    between atoms: C_19  and  O_20 
ROOT
HETATM    1  C   UNK N   1      32.855  16.558   8.609  0.00  0.00     0.271 C 
HETATM    2  N   UNK N   1      34.041  15.887   9.117  0.00  0.00    -0.077 N 
HETATM    3  C   UNK N   1      33.648  14.797   9.999  0.00  0.00     0.271 C 
HETATM    4  C   UNK N   1      34.767  15.325   7.995  0.00  0.00     0.271 C 
ENDROOT
BRANCH   2   5
HETATM    5  C   UNK N   1      34.928  16.830   9.800  0.00  0.00     0.262 C 
BRANCH   5   6
HETATM    6  C   UNK N   1      35.516  16.275  11.095  0.00  0.00     0.192 C 
BRANCH   6   7
HETATM    7  O   UNK N   1      36.882  16.057  10.926  0.00  0.00    -0.399 OA
HETATM    8  H   UNK N   1      37.265  15.560  10.186  0.00  0.00     0.209 HD
ENDBRANCH   6   7
ENDBRANCH   5   6
ENDBRANCH   2   5
TORSDOF 3
ENDMDL
MODEL 7
REMARK VINA RESULT:      -2.7     21.443     22.502
REMARK  3 active torsions:
REMARK  status: ('A' for Active; 'I' for Inactive)
REMARK    1  A    between atoms: N_17  and  C_18 
REMARK    2  A    between atoms: C_18  and  C_19 
REMARK    3  A    between atoms: C_19  and  O_20 
ROOT
HETATM    1  C   UNK N   1      42.432  20.822   1.086  0.00  0.00     0.271 C 
HETATM    2  N   UNK N   1      41.901  21.428   2.298  0.00  0.00    -0.077 N 
HETATM    3  C   UNK N   1      40.446  21.450   2.238  0.00  0.00     0.271 C 
HETATM    4  C   UNK N   1      42.298  20.612   3.429  0.00  0.00     0.271 C 
ENDROOT
BRANCH   2   5
HETATM    5  C   UNK N   1      42.446  22.771   2.498  0.00  0.00     0.262 C 
BRANCH   5   6
HETATM    6  C   UNK N   1      43.566  22.819   3.534  0.00  0.00     0.192 C 
BRANCH   6   7
HETATM    7  O   UNK N   1      43.532  24.046   4.194  0.00  0.00    -0.399 OA
HETATM    8  H   UNK N   1      43.845  24.879   3.809  0.00  0.00     0.209 HD
ENDBRANCH   6   7
ENDBRANCH   5   6
ENDBRANCH   2   5
TORSDOF 3
ENDMDL
MODEL 8
REMARK VINA RESULT:      -2.7      2.347      3.116
REMARK  3 active torsions:
REMARK  status: ('A' for Active; 'I' for Inactive)
REMARK    1  A    between atoms: N_17  and  C_18 
REMARK    2  A    between atoms: C_18  and  C_19 
REMARK    3  A    between atoms: C_19  and  O_20 
ROOT
HETATM    1  C   UNK N   1      24.591  13.116   9.884  0.00  0.00     0.271 C 
HETATM    2  N   UNK N   1      23.255  12.549   9.987  0.00  0.00    -0.077 N 
HETATM    3  C   UNK N   1      23.124  11.432   9.063  0.00  0.00     0.271 C 
HETATM    4  C   UNK N   1      23.073  12.048  11.336  0.00  0.00     0.271 C 
ENDROOT
BRANCH   2   5
HETATM    5  C   UNK N   1      22.231  13.565   9.742  0.00  0.00     0.262 C 
BRANCH   5   6
HETATM    6  C   UNK N   1      20.855  13.176  10.278  0.00  0.00     0.192 C 
BRANCH   6   7
HETATM    7  O   UNK N   1      19.869  13.789   9.507  0.00  0.00    -0.399 OA
HETATM    8  H   UNK N   1      18.927  13.564   9.551  0.00  0.00     0.209 HD
ENDBRANCH   6   7
ENDBRANCH   5   6
ENDBRANCH   2   5
TORSDOF 3
ENDMDL
MODEL 9
REMARK VINA RESULT:      -2.7      9.920     10.701
REMARK  3 active torsions:
REMARK  status: ('A' for Active; 'I' for Inactive)
REMARK    1  A    between atoms: N_17  and  C_18 
REMARK    2  A    between atoms: C_18  and  C_19 
REMARK    3  A    between atoms: C_19  and  O_20 
ROOT
HETATM    1  C   UNK N   1      19.887  17.366   4.139  0.00  0.00     0.271 C 
HETATM    2  N   UNK N   1      20.855  18.140   3.377  0.00  0.00    -0.077 N 
HETATM    3  C   UNK N   1      22.171  17.528   3.491  0.00  0.00     0.271 C 
HETATM    4  C   UNK N   1      20.462  18.120   1.982  0.00  0.00     0.271 C 
ENDROOT
BRANCH   2   5
HETATM    5  C   UNK N   1      20.878  19.536   3.818  0.00  0.00     0.262 C 
BRANCH   5   6
HETATM    6  C   UNK N   1      20.747  20.533   2.669  0.00  0.00     0.192 C 
BRANCH   6   7
HETATM    7  O   UNK N   1      21.721  21.520   2.802  0.00  0.00    -0.399 OA
HETATM    8  H   UNK N   1      22.672  21.341   2.860  0.00  0.00     0.209 HD
ENDBRANCH   6   7
ENDBRANCH   5   6
ENDBRANCH   2   5
TORSDOF 3
ENDMDL
