REMARK  17 active torsions:
REMARK  status: ('A' for Active; 'I' for Inactive)
REMARK    1  A    between atoms: C_1  and  O_17 
REMARK    2  A    between atoms: C_2  and  O_12 
REMARK    3  A    between atoms: C_5  and  O_26 
REMARK    4  A    between atoms: C_8  and  O_42 
REMARK    5  A    between atoms: C_13  and  O_12 
REMARK    6  A    between atoms: C_24  and  O_17 
REMARK    7  A    between atoms: C_23  and  C_24 
REMARK    8  A    between atoms: O_26  and  C_28 
REMARK    9  A    between atoms: C_33  and  O_34 
REMARK   10  A    between atoms: C_37  and  O_38 
REMARK   11  A    between atoms: C_51  and  O_42 
REMARK   12  A    between atoms: C_50  and  C_47 
REMARK   13  A    between atoms: C_50  and  C_49 
REMARK   14  A    between atoms: C_51  and  C_49 
REMARK   15  A    between atoms: C_49  and  O_53 
REMARK   16  A    between atoms: C_50  and  N_54 
REMARK       I    between atoms: C_61  and  N_54 
REMARK   17  A    between atoms: C_60  and  C_61 
ROOT
HETATM    1  C   UNK N   1       1.443  -1.666   0.084  0.00  0.00     0.176 C 
HETATM    2  C   UNK N   1       4.116  -1.616   0.365  0.00  0.00     0.125 C 
HETATM    3  C   UNK N   1       4.905   0.390   1.770  0.00  0.00     0.068 C 
HETATM    4  C   UNK N   1       2.342   2.208   0.780  0.00  0.00     0.171 C 
HETATM    5  C   UNK N   1       0.825   2.748   0.520  0.00  0.00     0.232 C 
HETATM    6  C   UNK N   1      -0.241   1.607   0.340  0.00  0.00    -0.028 C 
HETATM    7  C   UNK N   1      -1.579   1.541   0.486  0.00  0.00    -0.048 C 
HETATM    8  C   UNK N   1      -2.272   0.184   0.187  0.00  0.00     0.164 C 
HETATM    9  C   UNK N   1      -1.343  -1.071   0.548  0.00  0.00     0.078 C 
HETATM   10  C   UNK N   1      -2.363   2.743   0.880  0.00  0.00     0.046 C 
HETATM   11  C   UNK N   1       5.308  -1.545  -0.575  0.00  0.00     0.210 C 
HETATM   12  O   UNK N   1       2.865   2.710   1.763  0.00  0.00    -0.294 OA
HETATM   13  C   UNK N   1       2.869  -0.719  -0.061  0.00  0.00     0.076 C 
HETATM   14  C   UNK N   1       3.215   1.018   0.001  0.00  0.00     0.055 C 
HETATM   15  C   UNK N   1       3.464   1.535  -1.427  0.00  0.00     0.027 C 
HETATM   16  C   UNK N   1       0.004  -0.983  -0.244  0.00  0.00     0.098 C 
HETATM   17  C   UNK N   1       0.839   0.285   1.619  0.00  0.00     0.023 C 
HETATM   18  C   UNK N   1       0.894   0.839  -1.362  0.00  0.00     0.023 C 
HETATM   19  C   UNK N   1       4.668   1.154   0.504  0.00  0.00     0.137 C 
HETATM   20  C   UNK N   1       5.113  -1.063   1.373  0.00  0.00     0.161 C 
HETATM   21  O   UNK N   1       6.181  -1.152   0.454  0.00  0.00    -0.380 OA
HETATM   22  C   UNK N   1       0.406   0.401   0.057  0.00  0.00     0.013 C 
ENDROOT
BRANCH   8  23
HETATM   23  O   UNK N   1      -2.488   0.212  -1.176  0.00  0.00    -0.309 OA
BRANCH  23  24
HETATM   24  C   UNK N   1      -3.648  -0.060  -1.811  0.00  0.00     0.290 C 
HETATM   25  O   UNK N   1      -3.831   0.401  -2.925  0.00  0.00    -0.262 OA
BRANCH  24  26
HETATM   26  C   UNK N   1      -4.691  -0.970  -1.237  0.00  0.00     0.244 C 
BRANCH  26  27
HETATM   27  C   UNK N   1      -5.321  -0.517   0.081  0.00  0.00     0.156 C 
BRANCH  27  28
HETATM   28  C   UNK N   1      -6.566  -1.338   0.284  0.00  0.00    -0.033 A 
HETATM   29  C   UNK N   1      -7.620  -1.299  -0.645  0.00  0.00     0.009 A 
HETATM   30  C   UNK N   1      -8.713  -2.158  -0.506  0.00  0.00     0.001 A 
HETATM   31  C   UNK N   1      -8.746  -3.081   0.542  0.00  0.00     0.000 A 
HETATM   32  C   UNK N   1      -7.692  -3.137   1.459  0.00  0.00     0.001 A 
HETATM   33  C   UNK N   1      -6.604  -2.269   1.329  0.00  0.00     0.009 A 
ENDBRANCH  27  28
BRANCH  27  34
HETATM   34  N   UNK N   1      -5.452   0.936   0.087  0.00  0.00    -0.345 N 
HETATM   35  C   UNK N   1      -6.543   1.734   0.248  0.00  0.00     0.252 C 
HETATM   36  O   UNK N   1      -7.639   1.267   0.492  0.00  0.00    -0.268 OA
HETATM   37  H   UNK N   1      -4.606   1.422  -0.047  0.00  0.00     0.163 HD
BRANCH  35  38
HETATM   38  C   UNK N   1      -6.372   3.195   0.070  0.00  0.00     0.032 A 
HETATM   39  C   UNK N   1      -7.480   4.056   0.081  0.00  0.00     0.017 A 
HETATM   40  C   UNK N   1      -7.304   5.429  -0.136  0.00  0.00     0.001 A 
HETATM   41  C   UNK N   1      -6.024   5.948  -0.358  0.00  0.00     0.000 A 
HETATM   42  C   UNK N   1      -4.918   5.097  -0.365  0.00  0.00     0.001 A 
HETATM   43  C   UNK N   1      -5.095   3.727  -0.160  0.00  0.00     0.017 A 
ENDBRANCH  35  38
ENDBRANCH  27  34
ENDBRANCH  26  27
BRANCH  26  44
HETATM   44  O   UNK N   1      -4.177  -2.261  -1.109  0.00  0.00    -0.383 OA
HETATM   45  H   UNK N   1      -4.776  -3.019  -1.020  0.00  0.00     0.210 HD
ENDBRANCH  26  44
ENDBRANCH  24  26
ENDBRANCH  23  24
ENDBRANCH   8  23
BRANCH  16  46
HETATM   46  O   UNK N   1      -0.329  -1.298  -1.578  0.00  0.00    -0.386 OA
HETATM   47  H   UNK N   1      -0.630  -1.208  -2.495  0.00  0.00     0.210 HD
ENDBRANCH  16  46
BRANCH   5  48
HETATM   48  O   UNK N   1       0.751   3.624  -0.539  0.00  0.00    -0.304 OA
BRANCH  48  49
HETATM   49  C   UNK N   1       0.513   4.947  -0.369  0.00  0.00     0.255 C 
HETATM   50  O   UNK N   1       0.225   5.632  -1.336  0.00  0.00    -0.266 OA
HETATM   51  C   UNK N   1       0.615   5.593   0.978  0.00  0.00     0.126 C 
ENDBRANCH  48  49
ENDBRANCH   5  48
BRANCH   1  52
HETATM   52  O   UNK N   1       1.340  -2.311   1.309  0.00  0.00    -0.308 OA
BRANCH  52  53
HETATM   53  C   UNK N   1       0.512  -3.376   1.514  0.00  0.00     0.293 C 
HETATM   54  O   UNK N   1      -0.106  -3.442   2.566  0.00  0.00    -0.259 OA
BRANCH  53  55
HETATM   55  C   UNK N   1       0.333  -4.453   0.500  0.00  0.00     0.039 A 
HETATM   56  C   UNK N   1      -0.672  -5.419   0.669  0.00  0.00     0.017 A 
HETATM   57  C   UNK N   1      -0.821  -6.457  -0.257  0.00  0.00     0.001 A 
HETATM   58  C   UNK N   1       0.047  -6.551  -1.347  0.00  0.00     0.000 A 
HETATM   59  C   UNK N   1       1.056  -5.599  -1.519  0.00  0.00     0.001 A 
HETATM   60  C   UNK N   1       1.192  -4.552  -0.603  0.00  0.00     0.017 A 
ENDBRANCH  53  55
ENDBRANCH  52  53
ENDBRANCH   1  52
BRANCH   2  61
HETATM   61  O   UNK N   1       3.817  -2.905   0.801  0.00  0.00    -0.305 OA
BRANCH  61  62
HETATM   62  C   UNK N   1       4.230  -4.089   0.274  0.00  0.00     0.255 C 
HETATM   63  C   UNK N   1       4.222  -5.305   1.135  0.00  0.00     0.126 C 
HETATM   64  O   UNK N   1       4.611  -4.174  -0.883  0.00  0.00    -0.266 OA
ENDBRANCH  61  62
ENDBRANCH   2  61
BRANCH  19  65
HETATM   65  O   UNK N   1       5.149   2.468   0.584  0.00  0.00    -0.394 OA
HETATM   66  H   UNK N   1       6.104   2.634   0.640  0.00  0.00     0.210 HD
ENDBRANCH  19  65
TORSDOF 17
