MODEL 1
REMARK VINA RESULT:      -8.7      0.000      0.000
REMARK  17 active torsions:
REMARK  status: ('A' for Active; 'I' for Inactive)
REMARK    1  A    between atoms: C_24  and  C_19 
REMARK    2  A    between atoms: C_30  and  C_19 
REMARK    3  A    between atoms: C_31  and  C_21 
REMARK    4  A    between atoms: C_34  and  C_21 
REMARK    5  A    between atoms: C_33  and  C_23 
REMARK    6  A    between atoms: N_48  and  C_23 
REMARK    7  A    between atoms: C_35  and  C_29 
REMARK    8  A    between atoms: C_33  and  C_30 
REMARK    9  A    between atoms: C_30  and  N_43 
REMARK   10  A    between atoms: C_36  and  C_31 
REMARK   11  A    between atoms: C_31  and  N_45 
REMARK   12  A    between atoms: C_32  and  C_37 
REMARK   13  A    between atoms: C_33  and  O_49 
REMARK   14  A    between atoms: O_50  and  C_34 
REMARK       I    between atoms: N_45  and  C_35 
REMARK   15  A    between atoms: C_36  and  O_52 
REMARK   16  A    between atoms: O_53  and  C_37 
REMARK   17  A    between atoms: N_46  and  C_38 
ROOT
HETATM    1  C   UNK N   1      22.463  12.983   7.544  0.00  0.00     0.118 C 
ENDROOT
BRANCH   1   2
HETATM    2  C   UNK N   1      21.724  12.344   8.740  0.00  0.00     0.066 C 
BRANCH   2   3
HETATM    3  C   UNK N   1      22.406  12.070  10.043  0.00  0.00    -0.056 A 
HETATM    4  C   UNK N   1      21.658  12.015  11.227  0.00  0.00     0.007 A 
HETATM    5  C   UNK N   1      22.298  11.933  12.466  0.00  0.00     0.001 A 
HETATM    6  C   UNK N   1      23.693  11.936  12.530  0.00  0.00     0.000 A 
HETATM    7  C   UNK N   1      24.445  12.019  11.355  0.00  0.00     0.001 A 
HETATM    8  C   UNK N   1      23.803  12.101  10.114  0.00  0.00     0.007 A 
ENDBRANCH   2   3
ENDBRANCH   1   2
BRANCH   1   9
HETATM    9  C   UNK N   1      22.259  12.282   6.180  0.00  0.00     0.158 C 
BRANCH   9  10
HETATM   10  C   UNK N   1      23.368  12.424   5.137  0.00  0.00     0.151 C 
BRANCH  10  11
HETATM   11  N   UNK N   1      22.949  13.442   4.174  0.00  0.00    -0.398 N 
HETATM   12  C   UNK N   1      22.199  12.824   3.093  0.00  0.00     0.122 C 
HETATM   13  C   UNK N   1      21.202  13.864   2.644  0.00  0.00     0.007 C 
HETATM   14  C   UNK N   1      20.221  13.300   1.626  0.00  0.00     0.006 C 
HETATM   15  C   UNK N   1      21.971  15.059   2.047  0.00  0.00    -0.006 C 
HETATM   16  C   UNK N   1      19.207  14.386   1.266  0.00  0.00     0.000 C 
HETATM   17  C   UNK N   1      19.917  15.619   0.703  0.00  0.00     0.000 C 
HETATM   18  C   UNK N   1      20.969  16.152   1.679  0.00  0.00     0.005 C 
HETATM   19  C   UNK N   1      22.986  15.614   3.054  0.00  0.00     0.038 C 
HETATM   20  C   UNK N   1      23.863  14.519   3.696  0.00  0.00     0.154 C 
BRANCH  20  21
HETATM   21  C   UNK N   1      24.595  15.204   4.848  0.00  0.00     0.135 C 
HETATM   22  N   UNK N   1      25.877  15.416   4.884  0.00  0.00    -0.365 N 
ATOM     23  HN  UNK N   1      26.234  15.822   5.749  1.00  0.00     0.162 HD
BRANCH  22  24
HETATM   24  C   UNK N   1      26.868  15.152   3.855  0.00  0.00     0.021 C 
HETATM   25  C   UNK N   1      26.587  16.052   2.676  0.00  0.00     0.037 C 
HETATM   26  C   UNK N   1      26.751  13.712   3.387  0.00  0.00     0.037 C 
HETATM   27  C   UNK N   1      28.284  15.480   4.293  0.00  0.00     0.037 C 
ENDBRANCH  22  24
BRANCH  21  28
HETATM   28  O   UNK N   1      23.860  15.602   5.908  0.00  0.00    -0.348 OA
HETATM   29  H   UNK N   1      23.713  15.839   6.803  0.00  0.00     0.219 HD
ENDBRANCH  21  28
ENDBRANCH  20  21
ENDBRANCH  10  11
ENDBRANCH   9  10
BRANCH   9  30
HETATM   30  O   UNK N   1      21.846  10.956   6.322  0.00  0.00    -0.392 OA
HETATM   31  H   UNK N   1      21.957  10.131   6.820  0.00  0.00     0.210 HD
ENDBRANCH   9  30
ENDBRANCH   1   9
BRANCH   1  32
HETATM   32  N   UNK N   1      21.880  14.308   7.431  0.00  0.00    -0.365 N 
HETATM   33  C   UNK N   1      20.688  14.536   6.985  0.00  0.00     0.135 C 
ATOM     34  HN  UNK N   1      22.444  15.108   7.722  1.00  0.00     0.161 HD
BRANCH  33  35
HETATM   35  C   UNK N   1      20.171  15.944   6.937  0.00  0.00     0.166 C 
BRANCH  35  36
HETATM   36  C   UNK N   1      20.359  16.533   8.345  0.00  0.00     0.117 C 
BRANCH  36  37
HETATM   37  C   UNK N   1      19.077  16.924   9.019  0.00  0.00     0.111 C 
HETATM   38  N   UNK N   1      18.795  18.156   9.229  0.00  0.00    -0.384 N 
HETATM   39  H   UNK N   1      17.891  18.537   9.309  0.00  0.00     0.157 HD
ATOM     40  HN  UNK N   1      19.579  18.802   9.321  1.00  0.00     0.157 HD
BRANCH  37  41
HETATM   41  O   UNK N   1      18.196  15.970   9.365  0.00  0.00    -0.350 OA
HETATM   42  H   UNK N   1      17.615  16.028  10.098  0.00  0.00     0.219 HD
ENDBRANCH  37  41
ENDBRANCH  36  37
ENDBRANCH  35  36
BRANCH  35  43
HETATM   43  N   UNK N   1      20.912  16.678   5.907  0.00  0.00    -0.343 N 
HETATM   44  C   UNK N   1      21.326  17.978   6.012  0.00  0.00     0.268 C 
HETATM   45  O   UNK N   1      20.941  18.682   6.930  0.00  0.00    -0.266 OA
HETATM   46  H   UNK N   1      21.128  16.199   5.074  0.00  0.00     0.163 HD
BRANCH  44  47
HETATM   47  C   UNK N   1      22.352  18.506   5.088  0.00  0.00     0.101 A 
HETATM   48  C   UNK N   1      21.926  19.181   3.932  0.00  0.00     0.036 A 
HETATM   49  C   UNK N   1      22.854  19.847   3.136  0.00  0.00     0.016 A 
HETATM   50  C   UNK N   1      24.198  19.822   3.485  0.00  0.00    -0.009 A 
HETATM   51  C   UNK N   1      25.138  20.522   2.725  0.00  0.00     0.013 A 
HETATM   52  C   UNK N   1      24.607  19.091   4.622  0.00  0.00     0.043 A 
HETATM   53  C   UNK N   1      26.487  20.494   3.090  0.00  0.00     0.001 A 
HETATM   54  C   UNK N   1      26.900  19.752   4.203  0.00  0.00     0.002 A 
HETATM   55  C   UNK N   1      25.961  19.051   4.969  0.00  0.00     0.030 A 
HETATM   56  N   UNK N   1      23.675  18.469   5.402  0.00  0.00    -0.351 N 
ATOM     57  HN  UNK N   1      23.977  17.966   6.236  1.00  0.00     0.166 HD
ENDBRANCH  44  47
ENDBRANCH  35  43
ENDBRANCH  33  35
BRANCH  33  58
HETATM   58  O   UNK N   1      19.924  13.526   6.507  0.00  0.00    -0.348 OA
HETATM   59  H   UNK N   1      19.895  12.771   5.954  0.00  0.00     0.219 HD
ENDBRANCH  33  58
ENDBRANCH   1  32
TORSDOF 17
ENDMDL
MODEL 2
REMARK VINA RESULT:      -8.5      8.297     13.222
REMARK  17 active torsions:
REMARK  status: ('A' for Active; 'I' for Inactive)
REMARK    1  A    between atoms: C_24  and  C_19 
REMARK    2  A    between atoms: C_30  and  C_19 
REMARK    3  A    between atoms: C_31  and  C_21 
REMARK    4  A    between atoms: C_34  and  C_21 
REMARK    5  A    between atoms: C_33  and  C_23 
REMARK    6  A    between atoms: N_48  and  C_23 
REMARK    7  A    between atoms: C_35  and  C_29 
REMARK    8  A    between atoms: C_33  and  C_30 
REMARK    9  A    between atoms: C_30  and  N_43 
REMARK   10  A    between atoms: C_36  and  C_31 
REMARK   11  A    between atoms: C_31  and  N_45 
REMARK   12  A    between atoms: C_32  and  C_37 
REMARK   13  A    between atoms: C_33  and  O_49 
REMARK   14  A    between atoms: O_50  and  C_34 
REMARK       I    between atoms: N_45  and  C_35 
REMARK   15  A    between atoms: C_36  and  O_52 
REMARK   16  A    between atoms: O_53  and  C_37 
REMARK   17  A    between atoms: N_46  and  C_38 
ROOT
HETATM    1  C   UNK N   1      32.823  16.201   7.214  0.00  0.00     0.118 C 
ENDROOT
BRANCH   1   2
HETATM    2  C   UNK N   1      32.319  17.336   8.131  0.00  0.00     0.066 C 
BRANCH   2   3
HETATM    3  C   UNK N   1      30.871  17.707   8.214  0.00  0.00    -0.056 A 
HETATM    4  C   UNK N   1      30.389  18.397   9.335  0.00  0.00     0.007 A 
HETATM    5  C   UNK N   1      29.017  18.597   9.507  0.00  0.00     0.001 A 
HETATM    6  C   UNK N   1      28.116  18.081   8.573  0.00  0.00     0.000 A 
HETATM    7  C   UNK N   1      28.588  17.368   7.467  0.00  0.00     0.001 A 
HETATM    8  C   UNK N   1      29.963  17.169   7.295  0.00  0.00     0.007 A 
ENDBRANCH   2   3
ENDBRANCH   1   2
BRANCH   1   9
HETATM    9  C   UNK N   1      33.394  16.648   5.847  0.00  0.00     0.158 C 
BRANCH   9  10
HETATM   10  C   UNK N   1      32.443  16.656   4.650  0.00  0.00     0.151 C 
BRANCH  10  11
HETATM   11  N   UNK N   1      32.582  15.373   3.960  0.00  0.00    -0.398 N 
HETATM   12  C   UNK N   1      33.427  15.529   2.788  0.00  0.00     0.122 C 
HETATM   13  C   UNK N   1      34.136  14.207   2.620  0.00  0.00     0.007 C 
HETATM   14  C   UNK N   1      35.194  14.272   1.527  0.00  0.00     0.006 C 
HETATM   15  C   UNK N   1      33.090  13.124   2.293  0.00  0.00    -0.006 C 
HETATM   16  C   UNK N   1      35.912  12.924   1.458  0.00  0.00     0.000 C 
HETATM   17  C   UNK N   1      34.915  11.798   1.174  0.00  0.00     0.000 C 
HETATM   18  C   UNK N   1      33.793  11.770   2.216  0.00  0.00     0.005 C 
HETATM   19  C   UNK N   1      32.001  13.074   3.372  0.00  0.00     0.038 C 
HETATM   20  C   UNK N   1      31.427  14.463   3.718  0.00  0.00     0.154 C 
BRANCH  20  21
HETATM   21  C   UNK N   1      30.584  14.256   4.975  0.00  0.00     0.135 C 
HETATM   22  N   UNK N   1      29.340  14.614   5.097  0.00  0.00    -0.365 N 
ATOM     23  HN  UNK N   1      28.928  14.474   6.020  1.00  0.00     0.162 HD
BRANCH  22  24
HETATM   24  C   UNK N   1      28.461  15.185   4.093  0.00  0.00     0.021 C 
HETATM   25  C   UNK N   1      27.087  15.349   4.696  0.00  0.00     0.037 C 
HETATM   26  C   UNK N   1      28.345  14.238   2.911  0.00  0.00     0.037 C 
HETATM   27  C   UNK N   1      28.883  16.574   3.651  0.00  0.00     0.037 C 
ENDBRANCH  22  24
BRANCH  21  28
HETATM   28  O   UNK N   1      31.181  13.675   6.039  0.00  0.00    -0.348 OA
HETATM   29  H   UNK N   1      31.789  13.619   6.750  0.00  0.00     0.219 HD
ENDBRANCH  21  28
ENDBRANCH  20  21
ENDBRANCH  10  11
ENDBRANCH   9  10
BRANCH   9  30
HETATM   30  O   UNK N   1      34.122  17.836   5.941  0.00  0.00    -0.392 OA
HETATM   31  H   UNK N   1      34.508  18.580   5.453  0.00  0.00     0.210 HD
ENDBRANCH   9  30
ENDBRANCH   1   9
BRANCH   1  32
HETATM   32  N   UNK N   1      33.920  15.604   7.957  0.00  0.00    -0.365 N 
HETATM   33  C   UNK N   1      33.806  14.533   8.673  0.00  0.00     0.135 C 
ATOM     34  HN  UNK N   1      34.834  16.055   7.911  1.00  0.00     0.161 HD
BRANCH  33  35
HETATM   35  C   UNK N   1      35.012  13.983   9.378  0.00  0.00     0.166 C 
BRANCH  35  36
HETATM   36  C   UNK N   1      35.972  15.163   9.601  0.00  0.00     0.117 C 
BRANCH  36  37
HETATM   37  C   UNK N   1      35.808  15.839  10.931  0.00  0.00     0.111 C 
HETATM   38  N   UNK N   1      35.099  16.900  11.046  0.00  0.00    -0.384 N 
HETATM   39  H   UNK N   1      34.636  17.201  11.861  0.00  0.00     0.157 HD
ATOM     40  HN  UNK N   1      35.005  17.487  10.217  1.00  0.00     0.157 HD
BRANCH  37  41
HETATM   41  O   UNK N   1      36.379  15.297  12.020  0.00  0.00    -0.350 OA
HETATM   42  H   UNK N   1      36.374  14.382  12.220  0.00  0.00     0.219 HD
ENDBRANCH  37  41
ENDBRANCH  36  37
ENDBRANCH  35  36
BRANCH  35  43
HETATM   43  N   UNK N   1      34.575  13.357  10.629  0.00  0.00    -0.343 N 
HETATM   44  C   UNK N   1      35.034  12.161  11.112  0.00  0.00     0.268 C 
HETATM   45  O   UNK N   1      35.731  11.437  10.422  0.00  0.00    -0.266 OA
HETATM   46  H   UNK N   1      33.899  13.832  11.163  0.00  0.00     0.163 HD
BRANCH  44  47
HETATM   47  C   UNK N   1      34.801  11.794  12.525  0.00  0.00     0.101 A 
HETATM   48  C   UNK N   1      34.371  10.489  12.814  0.00  0.00     0.036 A 
HETATM   49  C   UNK N   1      34.316  10.053  14.135  0.00  0.00     0.016 A 
HETATM   50  C   UNK N   1      34.672  10.922  15.158  0.00  0.00    -0.009 A 
HETATM   51  C   UNK N   1      34.668  10.490  16.486  0.00  0.00     0.013 A 
HETATM   52  C   UNK N   1      35.049  12.247  14.844  0.00  0.00     0.043 A 
HETATM   53  C   UNK N   1      35.034  11.373  17.506  0.00  0.00     0.001 A 
HETATM   54  C   UNK N   1      35.386  12.693  17.202  0.00  0.00     0.002 A 
HETATM   55  C   UNK N   1      35.394  13.130  15.872  0.00  0.00     0.030 A 
HETATM   56  N   UNK N   1      35.121  12.642  13.539  0.00  0.00    -0.351 N 
ATOM     57  HN  UNK N   1      35.421  13.592  13.322  1.00  0.00     0.166 HD
ENDBRANCH  44  47
ENDBRANCH  35  43
ENDBRANCH  33  35
BRANCH  33  58
HETATM   58  O   UNK N   1      32.603  13.937   8.840  0.00  0.00    -0.348 OA
HETATM   59  H   UNK N   1      31.731  14.030   9.171  0.00  0.00     0.219 HD
ENDBRANCH  33  58
ENDBRANCH   1  32
TORSDOF 17
ENDMDL
MODEL 3
REMARK VINA RESULT:      -8.4     10.210     14.193
REMARK  17 active torsions:
REMARK  status: ('A' for Active; 'I' for Inactive)
REMARK    1  A    between atoms: C_24  and  C_19 
REMARK    2  A    between atoms: C_30  and  C_19 
REMARK    3  A    between atoms: C_31  and  C_21 
REMARK    4  A    between atoms: C_34  and  C_21 
REMARK    5  A    between atoms: C_33  and  C_23 
REMARK    6  A    between atoms: N_48  and  C_23 
REMARK    7  A    between atoms: C_35  and  C_29 
REMARK    8  A    between atoms: C_33  and  C_30 
REMARK    9  A    between atoms: C_30  and  N_43 
REMARK   10  A    between atoms: C_36  and  C_31 
REMARK   11  A    between atoms: C_31  and  N_45 
REMARK   12  A    between atoms: C_32  and  C_37 
REMARK   13  A    between atoms: C_33  and  O_49 
REMARK   14  A    between atoms: O_50  and  C_34 
REMARK       I    between atoms: N_45  and  C_35 
REMARK   15  A    between atoms: C_36  and  O_52 
REMARK   16  A    between atoms: O_53  and  C_37 
REMARK   17  A    between atoms: N_46  and  C_38 
ROOT
HETATM    1  C   UNK N   1      36.472  14.095  11.374  0.00  0.00     0.118 C 
ENDROOT
BRANCH   1   2
HETATM    2  C   UNK N   1      35.348  13.934  12.420  0.00  0.00     0.066 C 
BRANCH   2   3
HETATM    3  C   UNK N   1      35.636  13.649  13.861  0.00  0.00    -0.056 A 
HETATM    4  C   UNK N   1      34.755  12.855  14.607  0.00  0.00     0.007 A 
HETATM    5  C   UNK N   1      34.917  12.723  15.989  0.00  0.00     0.001 A 
HETATM    6  C   UNK N   1      35.945  13.411  16.637  0.00  0.00     0.000 A 
HETATM    7  C   UNK N   1      36.810  14.227  15.903  0.00  0.00     0.001 A 
HETATM    8  C   UNK N   1      36.648  14.358  14.519  0.00  0.00     0.007 A 
ENDBRANCH   2   3
ENDBRANCH   1   2
BRANCH   1   9
HETATM    9  C   UNK N   1      37.543  12.978  11.365  0.00  0.00     0.158 C 
BRANCH   9  10
HETATM   10  C   UNK N   1      37.158  11.633  10.748  0.00  0.00     0.151 C 
BRANCH  10  11
HETATM   11  N   UNK N   1      36.539  10.821  11.797  0.00  0.00    -0.398 N 
HETATM   12  C   UNK N   1      37.561  10.303  12.691  0.00  0.00     0.122 C 
HETATM   13  C   UNK N   1      36.901  10.201  14.045  0.00  0.00     0.007 C 
HETATM   14  C   UNK N   1      37.902   9.833  15.132  0.00  0.00     0.006 C 
HETATM   15  C   UNK N   1      35.778   9.148  13.968  0.00  0.00    -0.006 C 
HETATM   16  C   UNK N   1      37.179   9.811  16.478  0.00  0.00     0.000 C 
HETATM   17  C   UNK N   1      36.024   8.809  16.451  0.00  0.00     0.000 C 
HETATM   18  C   UNK N   1      35.048   9.111  15.310  0.00  0.00     0.005 C 
HETATM   19  C   UNK N   1      34.783   9.492  12.854  0.00  0.00     0.038 C 
HETATM   20  C   UNK N   1      35.467   9.825  11.512  0.00  0.00     0.154 C 
BRANCH  20  21
HETATM   21  C   UNK N   1      34.366  10.404  10.625  0.00  0.00     0.135 C 
HETATM   22  N   UNK N   1      33.961   9.871   9.511  0.00  0.00    -0.365 N 
ATOM     23  HN  UNK N   1      33.266  10.407   8.990  1.00  0.00     0.162 HD
BRANCH  22  24
HETATM   24  C   UNK N   1      34.365   8.612   8.909  0.00  0.00     0.021 C 
HETATM   25  C   UNK N   1      33.764   8.525   7.528  0.00  0.00     0.037 C 
HETATM   26  C   UNK N   1      33.827   7.454   9.731  0.00  0.00     0.037 C 
HETATM   27  C   UNK N   1      35.866   8.501   8.712  0.00  0.00     0.037 C 
ENDBRANCH  22  24
BRANCH  21  28
HETATM   28  O   UNK N   1      33.787  11.559  11.019  0.00  0.00    -0.348 OA
HETATM   29  H   UNK N   1      33.281  12.340  10.908  0.00  0.00     0.219 HD
ENDBRANCH  21  28
ENDBRANCH  20  21
ENDBRANCH  10  11
ENDBRANCH   9  10
BRANCH   9  30
HETATM   30  O   UNK N   1      38.777  13.432  10.895  0.00  0.00    -0.392 OA
HETATM   31  H   UNK N   1      39.643  13.794  11.138  0.00  0.00     0.210 HD
ENDBRANCH   9  30
ENDBRANCH   1   9
BRANCH   1  32
HETATM   32  N   UNK N   1      35.782  14.032  10.097  0.00  0.00    -0.365 N 
HETATM   33  C   UNK N   1      35.452  15.074   9.405  0.00  0.00     0.135 C 
ATOM     34  HN  UNK N   1      35.544  13.113   9.724  1.00  0.00     0.161 HD
BRANCH  33  35
HETATM   35  C   UNK N   1      34.767  14.896   8.081  0.00  0.00     0.166 C 
BRANCH  35  36
HETATM   36  C   UNK N   1      34.735  13.384   7.799  0.00  0.00     0.117 C 
BRANCH  36  37
HETATM   37  C   UNK N   1      33.354  12.799   7.765  0.00  0.00     0.111 C 
HETATM   38  N   UNK N   1      32.897  12.254   6.699  0.00  0.00    -0.384 N 
HETATM   39  H   UNK N   1      32.209  11.551   6.657  0.00  0.00     0.157 HD
ATOM     40  HN  UNK N   1      33.281  12.579   5.811  1.00  0.00     0.157 HD
BRANCH  37  41
HETATM   41  O   UNK N   1      32.606  12.809   8.882  0.00  0.00    -0.350 OA
HETATM   42  H   UNK N   1      31.748  13.182   8.940  0.00  0.00     0.219 HD
ENDBRANCH  37  41
ENDBRANCH  36  37
ENDBRANCH  35  36
BRANCH  35  43
HETATM   43  N   UNK N   1      33.429  15.489   8.165  0.00  0.00    -0.343 N 
HETATM   44  C   UNK N   1      33.108  16.761   7.773  0.00  0.00     0.268 C 
HETATM   45  O   UNK N   1      33.979  17.562   7.481  0.00  0.00    -0.266 OA
HETATM   46  H   UNK N   1      32.706  14.931   8.533  0.00  0.00     0.163 HD
BRANCH  44  47
HETATM   47  C   UNK N   1      31.693  17.138   7.571  0.00  0.00     0.101 A 
HETATM   48  C   UNK N   1      31.009  17.757   8.631  0.00  0.00     0.036 A 
HETATM   49  C   UNK N   1      29.739  18.288   8.420  0.00  0.00     0.016 A 
HETATM   50  C   UNK N   1      29.154  18.186   7.165  0.00  0.00    -0.009 A 
HETATM   51  C   UNK N   1      27.901  18.752   6.921  0.00  0.00     0.013 A 
HETATM   52  C   UNK N   1      29.840  17.511   6.131  0.00  0.00     0.043 A 
HETATM   53  C   UNK N   1      27.324  18.647   5.652  0.00  0.00     0.001 A 
HETATM   54  C   UNK N   1      27.991  17.959   4.631  0.00  0.00     0.002 A 
HETATM   55  C   UNK N   1      29.248  17.392   4.870  0.00  0.00     0.030 A 
HETATM   56  N   UNK N   1      31.095  17.022   6.355  0.00  0.00    -0.351 N 
ATOM     57  HN  UNK N   1      31.594  16.560   5.594  1.00  0.00     0.166 HD
ENDBRANCH  44  47
ENDBRANCH  35  43
ENDBRANCH  33  35
BRANCH  33  58
HETATM   58  O   UNK N   1      35.666  16.320   9.886  0.00  0.00    -0.348 OA
HETATM   59  H   UNK N   1      35.602  16.886  10.630  0.00  0.00     0.219 HD
ENDBRANCH  33  58
ENDBRANCH   1  32
TORSDOF 17
ENDMDL
MODEL 4
REMARK VINA RESULT:      -8.4      1.787      5.059
REMARK  17 active torsions:
REMARK  status: ('A' for Active; 'I' for Inactive)
REMARK    1  A    between atoms: C_24  and  C_19 
REMARK    2  A    between atoms: C_30  and  C_19 
REMARK    3  A    between atoms: C_31  and  C_21 
REMARK    4  A    between atoms: C_34  and  C_21 
REMARK    5  A    between atoms: C_33  and  C_23 
REMARK    6  A    between atoms: N_48  and  C_23 
REMARK    7  A    between atoms: C_35  and  C_29 
REMARK    8  A    between atoms: C_33  and  C_30 
REMARK    9  A    between atoms: C_30  and  N_43 
REMARK   10  A    between atoms: C_36  and  C_31 
REMARK   11  A    between atoms: C_31  and  N_45 
REMARK   12  A    between atoms: C_32  and  C_37 
REMARK   13  A    between atoms: C_33  and  O_49 
REMARK   14  A    between atoms: O_50  and  C_34 
REMARK       I    between atoms: N_45  and  C_35 
REMARK   15  A    between atoms: C_36  and  O_52 
REMARK   16  A    between atoms: O_53  and  C_37 
REMARK   17  A    between atoms: N_46  and  C_38 
ROOT
HETATM    1  C   UNK N   1      19.406  13.989   4.227  0.00  0.00     0.118 C 
ENDROOT
BRANCH   1   2
HETATM    2  C   UNK N   1      19.749  14.368   2.770  0.00  0.00     0.066 C 
BRANCH   2   3
HETATM    3  C   UNK N   1      21.125  14.199   2.206  0.00  0.00    -0.056 A 
HETATM    4  C   UNK N   1      22.192  14.941   2.729  0.00  0.00     0.007 A 
HETATM    5  C   UNK N   1      23.441  14.924   2.102  0.00  0.00     0.001 A 
HETATM    6  C   UNK N   1      23.621  14.187   0.930  0.00  0.00     0.000 A 
HETATM    7  C   UNK N   1      22.553  13.467   0.387  0.00  0.00     0.001 A 
HETATM    8  C   UNK N   1      21.303  13.484   1.016  0.00  0.00     0.007 A 
ENDBRANCH   2   3
ENDBRANCH   1   2
BRANCH   1   9
HETATM    9  C   UNK N   1      19.897  12.596   4.689  0.00  0.00     0.158 C 
BRANCH   9  10
HETATM   10  C   UNK N   1      20.916  12.546   5.828  0.00  0.00     0.151 C 
BRANCH  10  11
HETATM   11  N   UNK N   1      22.239  12.342   5.236  0.00  0.00    -0.398 N 
HETATM   12  C   UNK N   1      22.256  11.106   4.472  0.00  0.00     0.122 C 
HETATM   13  C   UNK N   1      23.231  11.339   3.344  0.00  0.00     0.007 C 
HETATM   14  C   UNK N   1      23.228  10.185   2.351  0.00  0.00     0.006 C 
HETATM   15  C   UNK N   1      24.639  11.532   3.941  0.00  0.00    -0.006 C 
HETATM   16  C   UNK N   1      24.186  10.517   1.208  0.00  0.00     0.000 C 
HETATM   17  C   UNK N   1      25.599  10.760   1.745  0.00  0.00     0.000 C 
HETATM   18  C   UNK N   1      25.610  11.861   2.809  0.00  0.00     0.005 C 
HETATM   19  C   UNK N   1      24.645  12.671   4.967  0.00  0.00     0.038 C 
HETATM   20  C   UNK N   1      23.501  12.565   5.997  0.00  0.00     0.154 C 
BRANCH  20  21
HETATM   21  C   UNK N   1      23.496  13.899   6.741  0.00  0.00     0.135 C 
HETATM   22  N   UNK N   1      23.460  14.021   8.035  0.00  0.00    -0.365 N 
ATOM     23  HN  UNK N   1      23.391  14.976   8.387  1.00  0.00     0.162 HD
BRANCH  22  24
HETATM   24  C   UNK N   1      23.505  12.978   9.045  0.00  0.00     0.021 C 
HETATM   25  C   UNK N   1      22.375  13.204  10.019  0.00  0.00     0.037 C 
HETATM   26  C   UNK N   1      24.813  13.063   9.813  0.00  0.00     0.037 C 
HETATM   27  C   UNK N   1      23.285  11.588   8.476  0.00  0.00     0.037 C 
ENDBRANCH  22  24
BRANCH  21  28
HETATM   28  O   UNK N   1      23.514  15.029   6.001  0.00  0.00    -0.348 OA
HETATM   29  H   UNK N   1      23.758  15.910   5.797  0.00  0.00     0.219 HD
ENDBRANCH  21  28
ENDBRANCH  20  21
ENDBRANCH  10  11
ENDBRANCH   9  10
BRANCH   9  30
HETATM   30  O   UNK N   1      18.842  11.705   4.895  0.00  0.00    -0.392 OA
HETATM   31  H   UNK N   1      18.250  11.302   5.548  0.00  0.00     0.210 HD
ENDBRANCH   9  30
ENDBRANCH   1   9
BRANCH   1  32
HETATM   32  N   UNK N   1      20.113  14.975   5.027  0.00  0.00    -0.365 N 
HETATM   33  C   UNK N   1      19.526  15.903   5.710  0.00  0.00     0.135 C 
ATOM     34  HN  UNK N   1      21.132  14.933   5.052  1.00  0.00     0.161 HD
BRANCH  33  35
HETATM   35  C   UNK N   1      20.350  16.854   6.528  0.00  0.00     0.166 C 
BRANCH  35  36
HETATM   36  C   UNK N   1      20.541  16.202   7.907  0.00  0.00     0.117 C 
BRANCH  36  37
HETATM   37  C   UNK N   1      19.391  16.418   8.848  0.00  0.00     0.111 C 
HETATM   38  N   UNK N   1      18.931  17.595   9.062  0.00  0.00    -0.384 N 
HETATM   39  H   UNK N   1      18.012  17.815   9.338  0.00  0.00     0.157 HD
ATOM     40  HN  UNK N   1      19.576  18.375   8.936  1.00  0.00     0.157 HD
BRANCH  37  41
HETATM   41  O   UNK N   1      18.813  15.358   9.437  0.00  0.00    -0.350 OA
HETATM   42  H   UNK N   1      17.896  15.288   9.617  0.00  0.00     0.219 HD
ENDBRANCH  37  41
ENDBRANCH  36  37
ENDBRANCH  35  36
BRANCH  35  43
HETATM   43  N   UNK N   1      21.616  17.094   5.829  0.00  0.00    -0.343 N 
HETATM   44  C   UNK N   1      21.840  18.104   4.932  0.00  0.00     0.268 C 
HETATM   45  O   UNK N   1      20.918  18.783   4.516  0.00  0.00    -0.266 OA
HETATM   46  H   UNK N   1      22.363  16.482   6.019  0.00  0.00     0.163 HD
BRANCH  44  47
HETATM   47  C   UNK N   1      23.222  18.469   4.558  0.00  0.00     0.101 A 
HETATM   48  C   UNK N   1      23.412  19.521   3.647  0.00  0.00     0.036 A 
HETATM   49  C   UNK N   1      24.694  20.011   3.410  0.00  0.00     0.016 A 
HETATM   50  C   UNK N   1      25.776  19.441   4.067  0.00  0.00    -0.009 A 
HETATM   51  C   UNK N   1      27.064  19.948   3.880  0.00  0.00     0.013 A 
HETATM   52  C   UNK N   1      25.565  18.348   4.937  0.00  0.00     0.043 A 
HETATM   53  C   UNK N   1      28.145  19.370   4.551  0.00  0.00     0.001 A 
HETATM   54  C   UNK N   1      27.943  18.272   5.396  0.00  0.00     0.002 A 
HETATM   55  C   UNK N   1      26.653  17.762   5.590  0.00  0.00     0.030 A 
HETATM   56  N   UNK N   1      24.296  17.904   5.174  0.00  0.00    -0.351 N 
ATOM     57  HN  UNK N   1      24.150  17.132   5.824  1.00  0.00     0.166 HD
ENDBRANCH  44  47
ENDBRANCH  35  43
ENDBRANCH  33  35
BRANCH  33  58
HETATM   58  O   UNK N   1      18.183  16.062   5.650  0.00  0.00    -0.348 OA
HETATM   59  H   UNK N   1      17.446  16.228   5.096  0.00  0.00     0.219 HD
ENDBRANCH  33  58
ENDBRANCH   1  32
TORSDOF 17
ENDMDL
MODEL 5
REMARK VINA RESULT:      -8.4      2.522      6.794
REMARK  17 active torsions:
REMARK  status: ('A' for Active; 'I' for Inactive)
REMARK    1  A    between atoms: C_24  and  C_19 
REMARK    2  A    between atoms: C_30  and  C_19 
REMARK    3  A    between atoms: C_31  and  C_21 
REMARK    4  A    between atoms: C_34  and  C_21 
REMARK    5  A    between atoms: C_33  and  C_23 
REMARK    6  A    between atoms: N_48  and  C_23 
REMARK    7  A    between atoms: C_35  and  C_29 
REMARK    8  A    between atoms: C_33  and  C_30 
REMARK    9  A    between atoms: C_30  and  N_43 
REMARK   10  A    between atoms: C_36  and  C_31 
REMARK   11  A    between atoms: C_31  and  N_45 
REMARK   12  A    between atoms: C_32  and  C_37 
REMARK   13  A    between atoms: C_33  and  O_49 
REMARK   14  A    between atoms: O_50  and  C_34 
REMARK       I    between atoms: N_45  and  C_35 
REMARK   15  A    between atoms: C_36  and  O_52 
REMARK   16  A    between atoms: O_53  and  C_37 
REMARK   17  A    between atoms: N_46  and  C_38 
ROOT
HETATM    1  C   UNK N   1      21.585  16.874   5.905  0.00  0.00     0.118 C 
ENDROOT
BRANCH   1   2
HETATM    2  C   UNK N   1      20.432  16.258   6.726  0.00  0.00     0.066 C 
BRANCH   2   3
HETATM    3  C   UNK N   1      20.623  15.045   7.581  0.00  0.00    -0.056 A 
HETATM    4  C   UNK N   1      20.840  15.186   8.959  0.00  0.00     0.007 A 
HETATM    5  C   UNK N   1      21.191  14.080   9.738  0.00  0.00     0.001 A 
HETATM    6  C   UNK N   1      21.358  12.831   9.137  0.00  0.00     0.000 A 
HETATM    7  C   UNK N   1      21.172  12.689   7.759  0.00  0.00     0.001 A 
HETATM    8  C   UNK N   1      20.820  13.796   6.980  0.00  0.00     0.007 A 
ENDBRANCH   2   3
ENDBRANCH   1   2
BRANCH   1   9
HETATM    9  C   UNK N   1      22.777  15.931   5.613  0.00  0.00     0.158 C 
BRANCH   9  10
HETATM   10  C   UNK N   1      23.391  15.977   4.214  0.00  0.00     0.151 C 
BRANCH  10  11
HETATM   11  N   UNK N   1      24.707  16.607   4.322  0.00  0.00    -0.398 N 
HETATM   12  C   UNK N   1      24.636  17.985   3.865  0.00  0.00     0.122 C 
HETATM   13  C   UNK N   1      25.660  18.736   4.680  0.00  0.00     0.007 C 
HETATM   14  C   UNK N   1      25.583  20.237   4.435  0.00  0.00     0.006 C 
HETATM   15  C   UNK N   1      27.062  18.203   4.324  0.00  0.00    -0.006 C 
HETATM   16  C   UNK N   1      26.601  20.935   5.337  0.00  0.00     0.000 C 
HETATM   17  C   UNK N   1      28.013  20.417   5.056  0.00  0.00     0.000 C 
HETATM   18  C   UNK N   1      28.091  18.896   5.216  0.00  0.00     0.005 C 
HETATM   19  C   UNK N   1      27.139  16.687   4.536  0.00  0.00     0.038 C 
HETATM   20  C   UNK N   1      25.961  15.925   3.896  0.00  0.00     0.154 C 
BRANCH  20  21
HETATM   21  C   UNK N   1      26.052  14.499   4.438  0.00  0.00     0.135 C 
HETATM   22  N   UNK N   1      26.152  13.434   3.699  0.00  0.00    -0.365 N 
ATOM     23  HN  UNK N   1      26.134  12.545   4.200  1.00  0.00     0.162 HD
BRANCH  22  24
HETATM   24  C   UNK N   1      26.286  13.342   2.256  0.00  0.00     0.021 C 
HETATM   25  C   UNK N   1      27.493  14.145   1.835  0.00  0.00     0.037 C 
HETATM   26  C   UNK N   1      25.064  13.945   1.587  0.00  0.00     0.037 C 
HETATM   27  C   UNK N   1      26.544  11.928   1.770  0.00  0.00     0.037 C 
ENDBRANCH  22  24
BRANCH  21  28
HETATM   28  O   UNK N   1      26.010  14.336   5.778  0.00  0.00    -0.348 OA
HETATM   29  H   UNK N   1      26.366  14.303   6.644  0.00  0.00     0.219 HD
ENDBRANCH  21  28
ENDBRANCH  20  21
ENDBRANCH  10  11
ENDBRANCH   9  10
BRANCH   9  30
HETATM   30  O   UNK N   1      23.752  15.986   6.611  0.00  0.00    -0.392 OA
HETATM   31  H   UNK N   1      24.442  16.525   7.029  0.00  0.00     0.210 HD
ENDBRANCH   9  30
ENDBRANCH   1   9
BRANCH   1  32
HETATM   32  N   UNK N   1      20.978  17.198   4.626  0.00  0.00    -0.365 N 
HETATM   33  C   UNK N   1      20.768  18.406   4.213  0.00  0.00     0.135 C 
ATOM     34  HN  UNK N   1      20.701  16.428   4.016  1.00  0.00     0.161 HD
BRANCH  33  35
HETATM   35  C   UNK N   1      20.160  18.631   2.860  0.00  0.00     0.166 C 
BRANCH  35  36
HETATM   36  C   UNK N   1      21.238  19.307   1.996  0.00  0.00     0.117 C 
BRANCH  36  37
HETATM   37  C   UNK N   1      20.963  20.751   1.696  0.00  0.00     0.111 C 
HETATM   38  N   UNK N   1      20.385  21.097   0.606  0.00  0.00    -0.384 N 
HETATM   39  H   UNK N   1      19.847  21.909   0.469  0.00  0.00     0.157 HD
ATOM     40  HN  UNK N   1      20.494  20.472  -0.194  1.00  0.00     0.157 HD
BRANCH  37  41
HETATM   41  O   UNK N   1      21.287  21.687   2.604  0.00  0.00    -0.350 OA
HETATM   42  H   UNK N   1      21.749  22.478   2.406  0.00  0.00     0.219 HD
ENDBRANCH  37  41
ENDBRANCH  36  37
ENDBRANCH  35  36
BRANCH  35  43
HETATM   43  N   UNK N   1      19.725  17.338   2.323  0.00  0.00    -0.343 N 
HETATM   44  C   UNK N   1      19.924  16.914   1.037  0.00  0.00     0.268 C 
HETATM   45  O   UNK N   1      20.336  17.681   0.184  0.00  0.00    -0.266 OA
HETATM   46  H   UNK N   1      19.253  16.728   2.934  0.00  0.00     0.163 HD
BRANCH  44  47
HETATM   47  C   UNK N   1      19.768  15.484   0.696  0.00  0.00     0.101 A 
HETATM   48  C   UNK N   1      20.869  14.630   0.877  0.00  0.00     0.036 A 
HETATM   49  C   UNK N   1      20.708  13.254   0.741  0.00  0.00     0.016 A 
HETATM   50  C   UNK N   1      19.461  12.739   0.410  0.00  0.00    -0.009 A 
HETATM   51  C   UNK N   1      19.269  11.359   0.315  0.00  0.00     0.013 A 
HETATM   52  C   UNK N   1      18.383  13.623   0.180  0.00  0.00     0.043 A 
HETATM   53  C   UNK N   1      18.007  10.853  -0.013  0.00  0.00     0.001 A 
HETATM   54  C   UNK N   1      16.943  11.727  -0.265  0.00  0.00     0.002 A 
HETATM   55  C   UNK N   1      17.130  13.111  -0.168  0.00  0.00     0.030 A 
HETATM   56  N   UNK N   1      18.559  14.967   0.346  0.00  0.00    -0.351 N 
ATOM     57  HN  UNK N   1      17.769  15.595   0.204  1.00  0.00     0.166 HD
ENDBRANCH  44  47
ENDBRANCH  35  43
ENDBRANCH  33  35
BRANCH  33  58
HETATM   58  O   UNK N   1      21.036  19.466   5.011  0.00  0.00    -0.348 OA
HETATM   59  H   UNK N   1      21.099  19.776   5.892  0.00  0.00     0.219 HD
ENDBRANCH  33  58
ENDBRANCH   1  32
TORSDOF 17
ENDMDL
MODEL 6
REMARK VINA RESULT:      -8.3      3.012      7.908
REMARK  17 active torsions:
REMARK  status: ('A' for Active; 'I' for Inactive)
REMARK    1  A    between atoms: C_24  and  C_19 
REMARK    2  A    between atoms: C_30  and  C_19 
REMARK    3  A    between atoms: C_31  and  C_21 
REMARK    4  A    between atoms: C_34  and  C_21 
REMARK    5  A    between atoms: C_33  and  C_23 
REMARK    6  A    between atoms: N_48  and  C_23 
REMARK    7  A    between atoms: C_35  and  C_29 
REMARK    8  A    between atoms: C_33  and  C_30 
REMARK    9  A    between atoms: C_30  and  N_43 
REMARK   10  A    between atoms: C_36  and  C_31 
REMARK   11  A    between atoms: C_31  and  N_45 
REMARK   12  A    between atoms: C_32  and  C_37 
REMARK   13  A    between atoms: C_33  and  O_49 
REMARK   14  A    between atoms: O_50  and  C_34 
REMARK       I    between atoms: N_45  and  C_35 
REMARK   15  A    between atoms: C_36  and  O_52 
REMARK   16  A    between atoms: O_53  and  C_37 
REMARK   17  A    between atoms: N_46  and  C_38 
ROOT
HETATM    1  C   UNK N   1      24.175  16.002   5.069  0.00  0.00     0.118 C 
ENDROOT
BRANCH   1   2
HETATM    2  C   UNK N   1      23.793  15.262   3.770  0.00  0.00     0.066 C 
BRANCH   2   3
HETATM    3  C   UNK N   1      22.610  15.662   2.944  0.00  0.00    -0.056 A 
HETATM    4  C   UNK N   1      21.719  16.632   3.421  0.00  0.00     0.007 A 
HETATM    5  C   UNK N   1      20.524  16.889   2.745  0.00  0.00     0.001 A 
HETATM    6  C   UNK N   1      20.198  16.154   1.604  0.00  0.00     0.000 A 
HETATM    7  C   UNK N   1      21.069  15.165   1.138  0.00  0.00     0.001 A 
HETATM    8  C   UNK N   1      22.266  14.908   1.816  0.00  0.00     0.007 A 
ENDBRANCH   2   3
ENDBRANCH   1   2
BRANCH   1   9
HETATM    9  C   UNK N   1      24.748  15.116   6.201  0.00  0.00     0.158 C 
BRANCH   9  10
HETATM   10  C   UNK N   1      24.535  13.606   6.095  0.00  0.00     0.151 C 
BRANCH  10  11
HETATM   11  N   UNK N   1      23.681  13.194   7.210  0.00  0.00    -0.398 N 
HETATM   12  C   UNK N   1      24.430  12.347   8.123  0.00  0.00     0.122 C 
HETATM   13  C   UNK N   1      23.852  12.614   9.491  0.00  0.00     0.007 C 
HETATM   14  C   UNK N   1      24.654  11.923  10.584  0.00  0.00     0.006 C 
HETATM   15  C   UNK N   1      22.388  12.132   9.510  0.00  0.00    -0.006 C 
HETATM   16  C   UNK N   1      24.052  12.287  11.941  0.00  0.00     0.000 C 
HETATM   17  C   UNK N   1      22.582  11.868  12.007  0.00  0.00     0.000 C 
HETATM   18  C   UNK N   1      21.773  12.486  10.863  0.00  0.00     0.005 C 
HETATM   19  C   UNK N   1      21.579  12.797   8.390  0.00  0.00     0.038 C 
HETATM   20  C   UNK N   1      22.278  12.730   7.017  0.00  0.00     0.154 C 
BRANCH  20  21
HETATM   21  C   UNK N   1      21.483  13.666   6.108  0.00  0.00     0.135 C 
HETATM   22  N   UNK N   1      20.985  13.328   4.955  0.00  0.00    -0.365 N 
ATOM     23  HN  UNK N   1      20.538  14.080   4.429  1.00  0.00     0.162 HD
BRANCH  22  24
HETATM   24  C   UNK N   1      20.981  12.023   4.319  0.00  0.00     0.021 C 
HETATM   25  C   UNK N   1      20.126  12.097   3.077  0.00  0.00     0.037 C 
HETATM   26  C   UNK N   1      20.366  10.997   5.254  0.00  0.00     0.037 C 
HETATM   27  C   UNK N   1      22.355  11.586   3.844  0.00  0.00     0.037 C 
ENDBRANCH  22  24
BRANCH  21  28
HETATM   28  O   UNK N   1      21.299  14.938   6.525  0.00  0.00    -0.348 OA
HETATM   29  H   UNK N   1      20.810  15.661   6.864  0.00  0.00     0.219 HD
ENDBRANCH  21  28
ENDBRANCH  20  21
ENDBRANCH  10  11
ENDBRANCH   9  10
BRANCH   9  30
HETATM   30  O   UNK N   1      26.073  15.434   6.503  0.00  0.00    -0.392 OA
HETATM   31  H   UNK N   1      26.964  15.579   6.148  0.00  0.00     0.210 HD
ENDBRANCH   9  30
ENDBRANCH   1   9
BRANCH   1  32
HETATM   32  N   UNK N   1      25.234  16.910   4.664  0.00  0.00    -0.365 N 
HETATM   33  C   UNK N   1      25.215  18.184   4.884  0.00  0.00     0.135 C 
ATOM     34  HN  UNK N   1      26.042  16.520   4.177  1.00  0.00     0.161 HD
BRANCH  33  35
HETATM   35  C   UNK N   1      26.377  19.029   4.448  0.00  0.00     0.166 C 
BRANCH  35  36
HETATM   36  C   UNK N   1      26.080  20.464   4.915  0.00  0.00     0.117 C 
BRANCH  36  37
HETATM   37  C   UNK N   1      26.712  20.821   6.228  0.00  0.00     0.111 C 
HETATM   38  N   UNK N   1      26.060  20.702   7.325  0.00  0.00    -0.384 N 
HETATM   39  H   UNK N   1      26.450  20.551   8.216  0.00  0.00     0.157 HD
ATOM     40  HN  UNK N   1      25.044  20.770   7.270  1.00  0.00     0.157 HD
BRANCH  37  41
HETATM   41  O   UNK N   1      27.992  21.229   6.255  0.00  0.00    -0.350 OA
HETATM   42  H   UNK N   1      28.373  21.729   6.949  0.00  0.00     0.219 HD
ENDBRANCH  37  41
ENDBRANCH  36  37
ENDBRANCH  35  36
BRANCH  35  43
HETATM   43  N   UNK N   1      27.600  18.478   5.037  0.00  0.00    -0.343 N 
HETATM   44  C   UNK N   1      28.441  17.592   4.418  0.00  0.00     0.268 C 
HETATM   45  O   UNK N   1      28.120  17.057   3.371  0.00  0.00    -0.266 OA
HETATM   46  H   UNK N   1      27.837  18.766   5.948  0.00  0.00     0.163 HD
BRANCH  44  47
HETATM   47  C   UNK N   1      29.804  17.374   4.943  0.00  0.00     0.101 A 
HETATM   48  C   UNK N   1      30.861  17.245   4.027  0.00  0.00     0.036 A 
HETATM   49  C   UNK N   1      32.176  17.221   4.483  0.00  0.00     0.016 A 
HETATM   50  C   UNK N   1      32.430  17.308   5.846  0.00  0.00    -0.009 A 
HETATM   51  C   UNK N   1      33.743  17.332   6.321  0.00  0.00     0.013 A 
HETATM   52  C   UNK N   1      31.347  17.381   6.751  0.00  0.00     0.043 A 
HETATM   53  C   UNK N   1      33.985  17.426   7.695  0.00  0.00     0.001 A 
HETATM   54  C   UNK N   1      32.915  17.475   8.596  0.00  0.00     0.002 A 
HETATM   55  C   UNK N   1      31.597  17.454   8.125  0.00  0.00     0.030 A 
HETATM   56  N   UNK N   1      30.068  17.431   6.277  0.00  0.00    -0.351 N 
ATOM     57  HN  UNK N   1      29.294  17.511   6.937  1.00  0.00     0.166 HD
ENDBRANCH  44  47
ENDBRANCH  35  43
ENDBRANCH  33  35
BRANCH  33  58
HETATM   58  O   UNK N   1      24.135  18.772   5.450  0.00  0.00    -0.348 OA
HETATM   59  H   UNK N   1      23.298  19.164   5.299  0.00  0.00     0.219 HD
ENDBRANCH  33  58
ENDBRANCH   1  32
TORSDOF 17
ENDMDL
MODEL 7
REMARK VINA RESULT:      -8.2      7.018     11.442
REMARK  17 active torsions:
REMARK  status: ('A' for Active; 'I' for Inactive)
REMARK    1  A    between atoms: C_24  and  C_19 
REMARK    2  A    between atoms: C_30  and  C_19 
REMARK    3  A    between atoms: C_31  and  C_21 
REMARK    4  A    between atoms: C_34  and  C_21 
REMARK    5  A    between atoms: C_33  and  C_23 
REMARK    6  A    between atoms: N_48  and  C_23 
REMARK    7  A    between atoms: C_35  and  C_29 
REMARK    8  A    between atoms: C_33  and  C_30 
REMARK    9  A    between atoms: C_30  and  N_43 
REMARK   10  A    between atoms: C_36  and  C_31 
REMARK   11  A    between atoms: C_31  and  N_45 
REMARK   12  A    between atoms: C_32  and  C_37 
REMARK   13  A    between atoms: C_33  and  O_49 
REMARK   14  A    between atoms: O_50  and  C_34 
REMARK       I    between atoms: N_45  and  C_35 
REMARK   15  A    between atoms: C_36  and  O_52 
REMARK   16  A    between atoms: O_53  and  C_37 
REMARK   17  A    between atoms: N_46  and  C_38 
ROOT
HETATM    1  C   UNK N   1      32.869  16.562   4.717  0.00  0.00     0.118 C 
ENDROOT
BRANCH   1   2
HETATM    2  C   UNK N   1      33.458  15.151   4.503  0.00  0.00     0.066 C 
BRANCH   2   3
HETATM    3  C   UNK N   1      32.658  14.037   3.905  0.00  0.00    -0.056 A 
HETATM    4  C   UNK N   1      31.807  13.272   4.715  0.00  0.00     0.007 A 
HETATM    5  C   UNK N   1      31.190  12.125   4.209  0.00  0.00     0.001 A 
HETATM    6  C   UNK N   1      31.445  11.719   2.898  0.00  0.00     0.000 A 
HETATM    7  C   UNK N   1      32.314  12.461   2.093  0.00  0.00     0.001 A 
HETATM    8  C   UNK N   1      32.931  13.610   2.600  0.00  0.00     0.007 A 
ENDBRANCH   2   3
ENDBRANCH   1   2
BRANCH   1   9
HETATM    9  C   UNK N   1      31.596  16.887   3.899  0.00  0.00     0.158 C 
BRANCH   9  10
HETATM   10  C   UNK N   1      30.387  17.435   4.658  0.00  0.00     0.151 C 
BRANCH  10  11
HETATM   11  N   UNK N   1      29.229  16.609   4.314  0.00  0.00    -0.398 N 
HETATM   12  C   UNK N   1      29.368  16.100   2.960  0.00  0.00     0.122 C 
HETATM   13  C   UNK N   1      28.676  14.759   2.957  0.00  0.00     0.007 C 
HETATM   14  C   UNK N   1      28.887  14.019   1.644  0.00  0.00     0.006 C 
HETATM   15  C   UNK N   1      27.173  14.979   3.216  0.00  0.00    -0.006 C 
HETATM   16  C   UNK N   1      28.216  12.649   1.737  0.00  0.00     0.000 C 
HETATM   17  C   UNK N   1      26.722  12.802   2.033  0.00  0.00     0.000 C 
HETATM   18  C   UNK N   1      26.487  13.617   3.308  0.00  0.00     0.005 C 
HETATM   19  C   UNK N   1      26.951  15.753   4.521  0.00  0.00     0.038 C 
HETATM   20  C   UNK N   1      27.832  17.014   4.634  0.00  0.00     0.154 C 
BRANCH  20  21
HETATM   21  C   UNK N   1      27.687  17.485   6.081  0.00  0.00     0.135 C 
HETATM   22  N   UNK N   1      27.308  18.678   6.433  0.00  0.00    -0.365 N 
ATOM     23  HN  UNK N   1      27.326  18.869   7.436  1.00  0.00     0.162 HD
BRANCH  22  24
HETATM   24  C   UNK N   1      26.864  19.773   5.590  0.00  0.00     0.021 C 
HETATM   25  C   UNK N   1      26.670  20.996   6.453  0.00  0.00     0.037 C 
HETATM   26  C   UNK N   1      25.527  19.426   4.959  0.00  0.00     0.037 C 
HETATM   27  C   UNK N   1      27.886  20.170   4.540  0.00  0.00     0.037 C 
ENDBRANCH  22  24
BRANCH  21  28
HETATM   28  O   UNK N   1      27.990  16.604   7.059  0.00  0.00    -0.348 OA
HETATM   29  H   UNK N   1      27.851  15.855   7.604  0.00  0.00     0.219 HD
ENDBRANCH  21  28
ENDBRANCH  20  21
ENDBRANCH  10  11
ENDBRANCH   9  10
BRANCH   9  30
HETATM   30  O   UNK N   1      31.878  17.637   2.756  0.00  0.00    -0.392 OA
HETATM   31  H   UNK N   1      32.478  17.758   2.004  0.00  0.00     0.210 HD
ENDBRANCH   9  30
ENDBRANCH   1   9
BRANCH   1  32
HETATM   32  N   UNK N   1      32.489  16.582   6.118  0.00  0.00    -0.365 N 
HETATM   33  C   UNK N   1      33.172  17.177   7.042  0.00  0.00     0.135 C 
ATOM     34  HN  UNK N   1      31.633  16.098   6.392  1.00  0.00     0.161 HD
BRANCH  33  35
HETATM   35  C   UNK N   1      32.674  17.161   8.458  0.00  0.00     0.166 C 
BRANCH  35  36
HETATM   36  C   UNK N   1      31.146  17.003   8.388  0.00  0.00     0.117 C 
BRANCH  36  37
HETATM   37  C   UNK N   1      30.395  17.926   9.303  0.00  0.00     0.111 C 
HETATM   38  N   UNK N   1      29.701  17.463  10.276  0.00  0.00    -0.384 N 
HETATM   39  H   UNK N   1      29.488  17.938  11.112  0.00  0.00     0.157 HD
ATOM     40  HN  UNK N   1      29.336  16.516  10.176  1.00  0.00     0.157 HD
BRANCH  37  41
HETATM   41  O   UNK N   1      30.489  19.254   9.123  0.00  0.00    -0.350 OA
HETATM   42  H   UNK N   1      30.777  19.857   9.780  0.00  0.00     0.219 HD
ENDBRANCH  37  41
ENDBRANCH  36  37
ENDBRANCH  35  36
BRANCH  35  43
HETATM   43  N   UNK N   1      33.330  16.061   9.170  0.00  0.00    -0.343 N 
HETATM   44  C   UNK N   1      34.474  16.177   9.914  0.00  0.00     0.268 C 
HETATM   45  O   UNK N   1      35.134  17.201   9.885  0.00  0.00    -0.266 OA
HETATM   46  H   UNK N   1      32.917  15.169   9.109  0.00  0.00     0.163 HD
BRANCH  44  47
HETATM   47  C   UNK N   1      34.852  15.109  10.863  0.00  0.00     0.101 A 
HETATM   48  C   UNK N   1      34.761  13.774  10.437  0.00  0.00     0.036 A 
HETATM   49  C   UNK N   1      35.277  12.755  11.234  0.00  0.00     0.016 A 
HETATM   50  C   UNK N   1      35.863  13.070  12.453  0.00  0.00    -0.009 A 
HETATM   51  C   UNK N   1      36.428  12.068  13.246  0.00  0.00     0.013 A 
HETATM   52  C   UNK N   1      35.893  14.415  12.883  0.00  0.00     0.043 A 
HETATM   53  C   UNK N   1      37.019  12.398  14.468  0.00  0.00     0.001 A 
HETATM   54  C   UNK N   1      37.030  13.727  14.909  0.00  0.00     0.002 A 
HETATM   55  C   UNK N   1      36.468  14.735  14.116  0.00  0.00     0.030 A 
HETATM   56  N   UNK N   1      35.405  15.399  12.072  0.00  0.00    -0.351 N 
ATOM     57  HN  UNK N   1      35.455  16.370  12.379  1.00  0.00     0.166 HD
ENDBRANCH  44  47
ENDBRANCH  35  43
ENDBRANCH  33  35
BRANCH  33  58
HETATM   58  O   UNK N   1      34.358  17.763   6.756  0.00  0.00    -0.348 OA
HETATM   59  H   UNK N   1      35.053  17.843   6.133  0.00  0.00     0.219 HD
ENDBRANCH  33  58
ENDBRANCH   1  32
TORSDOF 17
ENDMDL
MODEL 8
REMARK VINA RESULT:      -8.1      3.196      8.768
REMARK  17 active torsions:
REMARK  status: ('A' for Active; 'I' for Inactive)
REMARK    1  A    between atoms: C_24  and  C_19 
REMARK    2  A    between atoms: C_30  and  C_19 
REMARK    3  A    between atoms: C_31  and  C_21 
REMARK    4  A    between atoms: C_34  and  C_21 
REMARK    5  A    between atoms: C_33  and  C_23 
REMARK    6  A    between atoms: N_48  and  C_23 
REMARK    7  A    between atoms: C_35  and  C_29 
REMARK    8  A    between atoms: C_33  and  C_30 
REMARK    9  A    between atoms: C_30  and  N_43 
REMARK   10  A    between atoms: C_36  and  C_31 
REMARK   11  A    between atoms: C_31  and  N_45 
REMARK   12  A    between atoms: C_32  and  C_37 
REMARK   13  A    between atoms: C_33  and  O_49 
REMARK   14  A    between atoms: O_50  and  C_34 
REMARK       I    between atoms: N_45  and  C_35 
REMARK   15  A    between atoms: C_36  and  O_52 
REMARK   16  A    between atoms: O_53  and  C_37 
REMARK   17  A    between atoms: N_46  and  C_38 
ROOT
HETATM    1  C   UNK N   1      26.275  15.966   3.686  0.00  0.00     0.118 C 
ENDROOT
BRANCH   1   2
HETATM    2  C   UNK N   1      26.050  17.185   4.605  0.00  0.00     0.066 C 
BRANCH   2   3
HETATM    3  C   UNK N   1      25.398  18.441   4.117  0.00  0.00    -0.056 A 
HETATM    4  C   UNK N   1      24.000  18.533   4.073  0.00  0.00     0.007 A 
HETATM    5  C   UNK N   1      23.381  19.626   3.461  0.00  0.00     0.001 A 
HETATM    6  C   UNK N   1      24.158  20.619   2.861  0.00  0.00     0.000 A 
HETATM    7  C   UNK N   1      25.552  20.520   2.877  0.00  0.00     0.001 A 
HETATM    8  C   UNK N   1      26.171  19.425   3.491  0.00  0.00     0.007 A 
ENDBRANCH   2   3
ENDBRANCH   1   2
BRANCH   1   9
HETATM    9  C   UNK N   1      27.645  15.261   3.833  0.00  0.00     0.158 C 
BRANCH   9  10
HETATM   10  C   UNK N   1      28.902  16.113   3.656  0.00  0.00     0.151 C 
BRANCH  10  11
HETATM   11  N   UNK N   1      29.464  16.362   4.984  0.00  0.00    -0.398 N 
HETATM   12  C   UNK N   1      29.080  17.686   5.444  0.00  0.00     0.122 C 
HETATM   13  C   UNK N   1      28.977  17.580   6.946  0.00  0.00     0.007 C 
HETATM   14  C   UNK N   1      28.412  18.852   7.562  0.00  0.00     0.006 C 
HETATM   15  C   UNK N   1      30.377  17.281   7.516  0.00  0.00    -0.006 C 
HETATM   16  C   UNK N   1      28.276  18.649   9.071  0.00  0.00     0.000 C 
HETATM   17  C   UNK N   1      29.633  18.309   9.691  0.00  0.00     0.000 C 
HETATM   18  C   UNK N   1      30.259  17.079   9.026  0.00  0.00     0.005 C 
HETATM   19  C   UNK N   1      30.969  16.019   6.877  0.00  0.00     0.038 C 
HETATM   20  C   UNK N   1      30.870  16.017   5.338  0.00  0.00     0.154 C 
BRANCH  20  21
HETATM   21  C   UNK N   1      31.239  14.598   4.906  0.00  0.00     0.135 C 
HETATM   22  N   UNK N   1      32.269  14.295   4.174  0.00  0.00    -0.365 N 
ATOM     23  HN  UNK N   1      32.349  13.313   3.908  1.00  0.00     0.162 HD
BRANCH  22  24
HETATM   24  C   UNK N   1      33.322  15.169   3.686  0.00  0.00     0.021 C 
HETATM   25  C   UNK N   1      34.132  14.416   2.659  0.00  0.00     0.037 C 
HETATM   26  C   UNK N   1      34.247  15.548   4.829  0.00  0.00     0.037 C 
HETATM   27  C   UNK N   1      32.792  16.398   2.970  0.00  0.00     0.037 C 
ENDBRANCH  22  24
BRANCH  21  28
HETATM   28  O   UNK N   1      30.428  13.593   5.301  0.00  0.00    -0.348 OA
HETATM   29  H   UNK N   1      30.106  12.713   5.316  0.00  0.00     0.219 HD
ENDBRANCH  21  28
ENDBRANCH  20  21
ENDBRANCH  10  11
ENDBRANCH   9  10
BRANCH   9  30
HETATM   30  O   UNK N   1      27.711  14.466   4.978  0.00  0.00    -0.392 OA
HETATM   31  H   UNK N   1      27.224  14.116   5.740  0.00  0.00     0.210 HD
ENDBRANCH   9  30
ENDBRANCH   1   9
BRANCH   1  32
HETATM   32  N   UNK N   1      25.260  15.013   4.103  0.00  0.00    -0.365 N 
HETATM   33  C   UNK N   1      24.342  14.549   3.320  0.00  0.00     0.135 C 
ATOM     34  HN  UNK N   1      25.273  14.690   5.071  1.00  0.00     0.161 HD
BRANCH  33  35
HETATM   35  C   UNK N   1      23.358  13.544   3.845  0.00  0.00     0.166 C 
BRANCH  35  36
HETATM   36  C   UNK N   1      23.800  12.172   3.310  0.00  0.00     0.117 C 
BRANCH  36  37
HETATM   37  C   UNK N   1      24.706  11.418   4.239  0.00  0.00     0.111 C 
HETATM   38  N   UNK N   1      24.426  10.221   4.602  0.00  0.00    -0.384 N 
HETATM   39  H   UNK N   1      25.073   9.534   4.880  0.00  0.00     0.157 HD
ATOM     40  HN  UNK N   1      23.440   9.956   4.604  1.00  0.00     0.157 HD
BRANCH  37  41
HETATM   41  O   UNK N   1      25.846  11.992   4.658  0.00  0.00    -0.350 OA
HETATM   42  H   UNK N   1      25.889  12.677   5.295  0.00  0.00     0.219 HD
ENDBRANCH  37  41
ENDBRANCH  36  37
ENDBRANCH  35  36
BRANCH  35  43
HETATM   43  N   UNK N   1      23.358  13.614   5.309  0.00  0.00    -0.343 N 
HETATM   44  C   UNK N   1      22.295  14.009   6.077  0.00  0.00     0.268 C 
HETATM   45  O   UNK N   1      21.308  14.508   5.565  0.00  0.00    -0.266 OA
HETATM   46  H   UNK N   1      24.185  13.358   5.776  0.00  0.00     0.163 HD
BRANCH  44  47
HETATM   47  C   UNK N   1      22.277  13.712   7.524  0.00  0.00     0.101 A 
HETATM   48  C   UNK N   1      21.039  13.695   8.188  0.00  0.00     0.036 A 
HETATM   49  C   UNK N   1      20.963  13.244   9.503  0.00  0.00     0.016 A 
HETATM   50  C   UNK N   1      22.118  12.830  10.153  0.00  0.00    -0.009 A 
HETATM   51  C   UNK N   1      22.056  12.331  11.456  0.00  0.00     0.013 A 
HETATM   52  C   UNK N   1      23.359  12.909   9.482  0.00  0.00     0.043 A 
HETATM   53  C   UNK N   1      23.226  11.913  12.097  0.00  0.00     0.001 A 
HETATM   54  C   UNK N   1      24.460  12.011  11.444  0.00  0.00     0.002 A 
HETATM   55  C   UNK N   1      24.527  12.508  10.137  0.00  0.00     0.030 A 
HETATM   56  N   UNK N   1      23.404  13.329   8.184  0.00  0.00    -0.351 N 
ATOM     57  HN  UNK N   1      24.301  13.356   7.699  1.00  0.00     0.166 HD
ENDBRANCH  44  47
ENDBRANCH  35  43
ENDBRANCH  33  35
BRANCH  33  58
HETATM   58  O   UNK N   1      24.222  15.003   2.050  0.00  0.00    -0.348 OA
HETATM   59  H   UNK N   1      23.642  15.353   1.404  0.00  0.00     0.219 HD
ENDBRANCH  33  58
ENDBRANCH   1  32
TORSDOF 17
ENDMDL
MODEL 9
REMARK VINA RESULT:      -8.1      1.632      5.466
REMARK  17 active torsions:
REMARK  status: ('A' for Active; 'I' for Inactive)
REMARK    1  A    between atoms: C_24  and  C_19 
REMARK    2  A    between atoms: C_30  and  C_19 
REMARK    3  A    between atoms: C_31  and  C_21 
REMARK    4  A    between atoms: C_34  and  C_21 
REMARK    5  A    between atoms: C_33  and  C_23 
REMARK    6  A    between atoms: N_48  and  C_23 
REMARK    7  A    between atoms: C_35  and  C_29 
REMARK    8  A    between atoms: C_33  and  C_30 
REMARK    9  A    between atoms: C_30  and  N_43 
REMARK   10  A    between atoms: C_36  and  C_31 
REMARK   11  A    between atoms: C_31  and  N_45 
REMARK   12  A    between atoms: C_32  and  C_37 
REMARK   13  A    between atoms: C_33  and  O_49 
REMARK   14  A    between atoms: O_50  and  C_34 
REMARK       I    between atoms: N_45  and  C_35 
REMARK   15  A    between atoms: C_36  and  O_52 
REMARK   16  A    between atoms: O_53  and  C_37 
REMARK   17  A    between atoms: N_46  and  C_38 
ROOT
HETATM    1  C   UNK N   1      19.730  14.145   5.036  0.00  0.00     0.118 C 
ENDROOT
BRANCH   1   2
HETATM    2  C   UNK N   1      19.333  14.445   3.575  0.00  0.00     0.066 C 
BRANCH   2   3
HETATM    3  C   UNK N   1      20.251  14.162   2.427  0.00  0.00    -0.056 A 
HETATM    4  C   UNK N   1      20.140  12.954   1.724  0.00  0.00     0.007 A 
HETATM    5  C   UNK N   1      21.096  12.601   0.768  0.00  0.00     0.001 A 
HETATM    6  C   UNK N   1      22.186  13.441   0.531  0.00  0.00     0.000 A 
HETATM    7  C   UNK N   1      22.317  14.633   1.248  0.00  0.00     0.001 A 
HETATM    8  C   UNK N   1      21.359  14.986   2.206  0.00  0.00     0.007 A 
ENDBRANCH   2   3
ENDBRANCH   1   2
BRANCH   1   9
HETATM    9  C   UNK N   1      20.840  13.083   5.224  0.00  0.00     0.158 C 
BRANCH   9  10
HETATM   10  C   UNK N   1      22.257  13.582   5.509  0.00  0.00     0.151 C 
BRANCH  10  11
HETATM   11  N   UNK N   1      22.652  13.081   6.826  0.00  0.00    -0.398 N 
HETATM   12  C   UNK N   1      21.972  13.834   7.867  0.00  0.00     0.122 C 
HETATM   13  C   UNK N   1      21.777  12.865   9.007  0.00  0.00     0.007 C 
HETATM   14  C   UNK N   1      20.919  13.463  10.113  0.00  0.00     0.006 C 
HETATM   15  C   UNK N   1      23.161  12.464   9.555  0.00  0.00    -0.006 C 
HETATM   16  C   UNK N   1      20.712  12.408  11.200  0.00  0.00     0.000 C 
HETATM   17  C   UNK N   1      22.057  11.939  11.758  0.00  0.00     0.000 C 
HETATM   18  C   UNK N   1      22.969  11.411  10.646  0.00  0.00     0.005 C 
HETATM   19  C   UNK N   1      24.044  11.890   8.441  0.00  0.00     0.038 C 
HETATM   20  C   UNK N   1      24.067  12.769   7.174  0.00  0.00     0.154 C 
BRANCH  20  21
HETATM   21  C   UNK N   1      24.748  11.921   6.101  0.00  0.00     0.135 C 
HETATM   22  N   UNK N   1      25.630  12.369   5.257  0.00  0.00    -0.365 N 
ATOM     23  HN  UNK N   1      25.947  11.703   4.552  1.00  0.00     0.162 HD
BRANCH  22  24
HETATM   24  C   UNK N   1      26.223  13.693   5.185  0.00  0.00     0.021 C 
HETATM   25  C   UNK N   1      25.496  14.488   4.128  0.00  0.00     0.037 C 
HETATM   26  C   UNK N   1      27.680  13.581   4.770  0.00  0.00     0.037 C 
HETATM   27  C   UNK N   1      26.073  14.485   6.471  0.00  0.00     0.037 C 
ENDBRANCH  22  24
BRANCH  21  28
HETATM   28  O   UNK N   1      24.397  10.620   6.015  0.00  0.00    -0.348 OA
HETATM   29  H   UNK N   1      24.406   9.757   5.649  0.00  0.00     0.219 HD
ENDBRANCH  21  28
ENDBRANCH  20  21
ENDBRANCH  10  11
ENDBRANCH   9  10
BRANCH   9  30
HETATM   30  O   UNK N   1      20.458  12.069   6.104  0.00  0.00    -0.392 OA
HETATM   31  H   UNK N   1      19.719  11.549   6.456  0.00  0.00     0.210 HD
ENDBRANCH   9  30
ENDBRANCH   1   9
BRANCH   1  32
HETATM   32  N   UNK N   1      20.261  15.405   5.528  0.00  0.00    -0.365 N 
HETATM   33  C   UNK N   1      19.660  16.149   6.398  0.00  0.00     0.135 C 
ATOM     34  HN  UNK N   1      21.160  15.722   5.165  1.00  0.00     0.161 HD
BRANCH  33  35
HETATM   35  C   UNK N   1      20.311  17.420   6.861  0.00  0.00     0.166 C 
BRANCH  35  36
HETATM   36  C   UNK N   1      20.448  17.317   8.389  0.00  0.00     0.117 C 
BRANCH  36  37
HETATM   37  C   UNK N   1      19.510  18.212   9.146  0.00  0.00     0.111 C 
HETATM   38  N   UNK N   1      18.254  17.962   9.188  0.00  0.00    -0.384 N 
HETATM   39  H   UNK N   1      17.635  18.230   9.904  0.00  0.00     0.157 HD
ATOM     40  HN  UNK N   1      17.860  17.438   8.407  1.00  0.00     0.157 HD
BRANCH  37  41
HETATM   41  O   UNK N   1      20.005  19.262   9.824  0.00  0.00    -0.350 OA
HETATM   42  H   UNK N   1      19.487  19.850  10.338  0.00  0.00     0.219 HD
ENDBRANCH  37  41
ENDBRANCH  36  37
ENDBRANCH  35  36
BRANCH  35  43
HETATM   43  N   UNK N   1      21.602  17.558   6.179  0.00  0.00    -0.343 N 
HETATM   44  C   UNK N   1      21.790  18.165   4.967  0.00  0.00     0.268 C 
HETATM   45  O   UNK N   1      20.838  18.487   4.277  0.00  0.00    -0.266 OA
HETATM   46  H   UNK N   1      22.394  17.184   6.628  0.00  0.00     0.163 HD
BRANCH  44  47
HETATM   47  C   UNK N   1      23.148  18.559   4.539  0.00  0.00     0.101 A 
HETATM   48  C   UNK N   1      23.278  19.571   3.573  0.00  0.00     0.036 A 
HETATM   49  C   UNK N   1      24.535  20.093   3.280  0.00  0.00     0.016 A 
HETATM   50  C   UNK N   1      25.654  19.594   3.935  0.00  0.00    -0.009 A 
HETATM   51  C   UNK N   1      26.917  20.136   3.689  0.00  0.00     0.013 A 
HETATM   52  C   UNK N   1      25.503  18.539   4.863  0.00  0.00     0.043 A 
HETATM   53  C   UNK N   1      28.034  19.629   4.359  0.00  0.00     0.001 A 
HETATM   54  C   UNK N   1      27.892  18.568   5.261  0.00  0.00     0.002 A 
HETATM   55  C   UNK N   1      26.628  18.024   5.514  0.00  0.00     0.030 A 
HETATM   56  N   UNK N   1      24.257  18.063   5.153  0.00  0.00    -0.351 N 
ATOM     57  HN  UNK N   1      24.155  17.320   5.844  1.00  0.00     0.166 HD
ENDBRANCH  44  47
ENDBRANCH  35  43
ENDBRANCH  33  35
BRANCH  33  58
HETATM   58  O   UNK N   1      18.428  15.825   6.853  0.00  0.00    -0.348 OA
HETATM   59  H   UNK N   1      17.620  15.391   6.661  0.00  0.00     0.219 HD
ENDBRANCH  33  58
ENDBRANCH   1  32
TORSDOF 17
ENDMDL
