MODEL 1
REMARK VINA RESULT:      -7.0      0.000      0.000
REMARK  8 active torsions:
REMARK  status: ('A' for Active; 'I' for Inactive)
REMARK    1  A    between atoms: C_1  and  N_3 
REMARK    2  A    between atoms: C_6  and  C_11 
REMARK    3  A    between atoms: N_7  and  C_12 
REMARK    4  A    between atoms: C_10  and  O_13 
REMARK    5  A    between atoms: C_11  and  O_14 
REMARK    6  A    between atoms: C_18  and  C_21 
REMARK    7  A    between atoms: C_20  and  O_22 
REMARK    8  A    between atoms: C_21  and  O_23 
ROOT
HETATM    1  N   UNK N   1      32.929  15.690   8.321  0.00  0.00    -0.300 N 
ATOM      2  HN  UNK N   1      33.483  15.122   7.680  1.00  0.00     0.187 HD
HETATM    3  N   UNK N   1      33.313  15.854   9.497  0.00  0.00    -0.300 N 
ATOM      4  HN  UNK N   1      32.779  16.468  10.112  1.00  0.00     0.187 HD
ENDROOT
BRANCH   1   5
HETATM    5  C   UNK N   1      31.729  16.289   7.873  0.00  0.00     0.049 A 
HETATM    6  C   UNK N   1      30.909  16.977   8.772  0.00  0.00     0.052 A 
HETATM    7  C   UNK N   1      29.709  17.558   8.360  0.00  0.00     0.072 A 
HETATM    8  C   UNK N   1      29.327  17.443   7.004  0.00  0.00     0.082 A 
HETATM    9  C   UNK N   1      30.148  16.752   6.103  0.00  0.00     0.040 A 
HETATM   10  C   UNK N   1      31.345  16.174   6.536  0.00  0.00     0.034 A 
BRANCH   7  11
HETATM   11  C   UNK N   1      28.887  18.270   9.369  0.00  0.00     0.179 C 
HETATM   12  O   UNK N   1      29.431  18.902  10.262  0.00  0.00    -0.646 OA
BRANCH  11  13
HETATM   13  O   UNK N   1      27.543  18.229   9.319  0.00  0.00    -0.773 OA
HETATM   14  H   UNK N   1      27.109  18.055   8.507  0.00  0.00     0.167 HD
ENDBRANCH  11  13
ENDBRANCH   7  11
BRANCH   8  15
HETATM   15  O   UNK N   1      28.180  17.985   6.558  0.00  0.00    -0.360 OA
HETATM   16  H   UNK N   1      27.608  17.488   6.007  0.00  0.00     0.217 HD
ENDBRANCH   8  15
ENDBRANCH   1   5
BRANCH   3  17
HETATM   17  C   UNK N   1      34.465  15.210   9.996  0.00  0.00     0.049 A 
HETATM   18  C   UNK N   1      34.604  14.939  11.362  0.00  0.00     0.052 A 
HETATM   19  C   UNK N   1      35.768  14.341  11.860  0.00  0.00     0.072 A 
HETATM   20  C   UNK N   1      36.809  14.016  10.961  0.00  0.00     0.082 A 
HETATM   21  C   UNK N   1      36.664  14.286   9.596  0.00  0.00     0.040 A 
HETATM   22  C   UNK N   1      35.498  14.883   9.116  0.00  0.00     0.034 A 
BRANCH  19  23
HETATM   23  C   UNK N   1      35.864  14.081  13.317  0.00  0.00     0.179 C 
HETATM   24  O   UNK N   1      34.964  13.491  13.894  0.00  0.00    -0.646 OA
BRANCH  23  25
HETATM   25  O   UNK N   1      36.936  14.493  14.022  0.00  0.00    -0.773 OA
HETATM   26  H   UNK N   1      37.563  13.869  14.333  0.00  0.00     0.167 HD
ENDBRANCH  23  25
ENDBRANCH  19  23
BRANCH  20  27
HETATM   27  O   UNK N   1      37.948  13.449  11.393  0.00  0.00    -0.360 OA
HETATM   28  H   UNK N   1      38.399  12.828  10.855  0.00  0.00     0.217 HD
ENDBRANCH  20  27
ENDBRANCH   3  17
TORSDOF 8
ENDMDL
MODEL 2
REMARK VINA RESULT:      -6.9     11.980     13.992
REMARK  8 active torsions:
REMARK  status: ('A' for Active; 'I' for Inactive)
REMARK    1  A    between atoms: C_1  and  N_3 
REMARK    2  A    between atoms: C_6  and  C_11 
REMARK    3  A    between atoms: N_7  and  C_12 
REMARK    4  A    between atoms: C_10  and  O_13 
REMARK    5  A    between atoms: C_11  and  O_14 
REMARK    6  A    between atoms: C_18  and  C_21 
REMARK    7  A    between atoms: C_20  and  O_22 
REMARK    8  A    between atoms: C_21  and  O_23 
ROOT
HETATM    1  N   UNK N   1      22.205  17.180   6.385  0.00  0.00    -0.300 N 
ATOM      2  HN  UNK N   1      23.216  17.252   6.507  1.00  0.00     0.187 HD
HETATM    3  N   UNK N   1      21.649  17.778   5.441  0.00  0.00    -0.300 N 
ATOM      4  HN  UNK N   1      20.647  17.655   5.298  1.00  0.00     0.187 HD
ENDROOT
BRANCH   1   5
HETATM    5  C   UNK N   1      21.441  16.403   7.286  0.00  0.00     0.049 A 
HETATM    6  C   UNK N   1      20.249  16.910   7.814  0.00  0.00     0.052 A 
HETATM    7  C   UNK N   1      19.488  16.172   8.721  0.00  0.00     0.072 A 
HETATM    8  C   UNK N   1      19.941  14.889   9.107  0.00  0.00     0.082 A 
HETATM    9  C   UNK N   1      21.135  14.382   8.579  0.00  0.00     0.040 A 
HETATM   10  C   UNK N   1      21.886  15.138   7.673  0.00  0.00     0.034 A 
BRANCH   7  11
HETATM   11  C   UNK N   1      18.236  16.773   9.243  0.00  0.00     0.179 C 
HETATM   12  O   UNK N   1      17.215  16.104   9.296  0.00  0.00    -0.646 OA
BRANCH  11  13
HETATM   13  O   UNK N   1      18.205  18.052   9.661  0.00  0.00    -0.773 OA
HETATM   14  H   UNK N   1      18.900  18.637   9.432  0.00  0.00     0.167 HD
ENDBRANCH  11  13
ENDBRANCH   7  11
BRANCH   8  15
HETATM   15  O   UNK N   1      19.242  14.140   9.978  0.00  0.00    -0.360 OA
HETATM   16  H   UNK N   1      19.254  13.206   9.908  0.00  0.00     0.217 HD
ENDBRANCH   8  15
ENDBRANCH   1   5
BRANCH   3  17
HETATM   17  C   UNK N   1      22.372  18.620   4.570  0.00  0.00     0.049 A 
HETATM   18  C   UNK N   1      21.722  19.346   3.566  0.00  0.00     0.052 A 
HETATM   19  C   UNK N   1      22.447  20.146   2.674  0.00  0.00     0.072 A 
HETATM   20  C   UNK N   1      23.853  20.208   2.800  0.00  0.00     0.082 A 
HETATM   21  C   UNK N   1      24.499  19.484   3.807  0.00  0.00     0.040 A 
HETATM   22  C   UNK N   1      23.761  18.691   4.687  0.00  0.00     0.034 A 
BRANCH  19  23
HETATM   23  C   UNK N   1      21.708  20.888   1.625  0.00  0.00     0.179 C 
HETATM   24  O   UNK N   1      21.912  20.646   0.445  0.00  0.00    -0.646 OA
BRANCH  23  25
HETATM   25  O   UNK N   1      20.810  21.838   1.953  0.00  0.00    -0.773 OA
HETATM   26  H   UNK N   1      20.655  22.560   1.376  0.00  0.00     0.167 HD
ENDBRANCH  23  25
ENDBRANCH  19  23
BRANCH  20  27
HETATM   27  O   UNK N   1      24.593  20.955   1.962  0.00  0.00    -0.360 OA
HETATM   28  H   UNK N   1      25.057  20.551   1.255  0.00  0.00     0.217 HD
ENDBRANCH  20  27
ENDBRANCH   3  17
TORSDOF 8
ENDMDL
MODEL 3
REMARK VINA RESULT:      -6.7      0.743      7.903
REMARK  8 active torsions:
REMARK  status: ('A' for Active; 'I' for Inactive)
REMARK    1  A    between atoms: C_1  and  N_3 
REMARK    2  A    between atoms: C_6  and  C_11 
REMARK    3  A    between atoms: N_7  and  C_12 
REMARK    4  A    between atoms: C_10  and  O_13 
REMARK    5  A    between atoms: C_11  and  O_14 
REMARK    6  A    between atoms: C_18  and  C_21 
REMARK    7  A    between atoms: C_20  and  O_22 
REMARK    8  A    between atoms: C_21  and  O_23 
ROOT
HETATM    1  N   UNK N   1      33.250  15.096   8.913  0.00  0.00    -0.300 N 
ATOM      2  HN  UNK N   1      32.670  14.407   8.434  1.00  0.00     0.187 HD
HETATM    3  N   UNK N   1      32.891  16.291   8.952  0.00  0.00    -0.300 N 
ATOM      4  HN  UNK N   1      33.451  16.960   9.479  1.00  0.00     0.187 HD
ENDROOT
BRANCH   1   5
HETATM    5  C   UNK N   1      34.456  14.693   9.531  0.00  0.00     0.049 A 
HETATM    6  C   UNK N   1      34.537  14.610  10.924  0.00  0.00     0.052 A 
HETATM    7  C   UNK N   1      35.723  14.237  11.560  0.00  0.00     0.072 A 
HETATM    8  C   UNK N   1      36.856  13.940  10.768  0.00  0.00     0.082 A 
HETATM    9  C   UNK N   1      36.775  14.024   9.372  0.00  0.00     0.040 A 
HETATM   10  C   UNK N   1      35.579  14.403   8.754  0.00  0.00     0.034 A 
BRANCH   7  11
HETATM   11  C   UNK N   1      35.738  14.173  13.042  0.00  0.00     0.179 C 
HETATM   12  O   UNK N   1      34.851  13.577  13.635  0.00  0.00    -0.646 OA
BRANCH  11  13
HETATM   13  O   UNK N   1      36.717  14.765  13.749  0.00  0.00    -0.773 OA
HETATM   14  H   UNK N   1      36.773  14.633  14.675  0.00  0.00     0.167 HD
ENDBRANCH  11  13
ENDBRANCH   7  11
BRANCH   8  15
HETATM   15  O   UNK N   1      38.020  13.576  11.334  0.00  0.00    -0.360 OA
HETATM   16  H   UNK N   1      38.198  12.671  11.500  0.00  0.00     0.217 HD
ENDBRANCH   8  15
ENDBRANCH   1   5
BRANCH   3  17
HETATM   17  C   UNK N   1      31.732  16.738   8.283  0.00  0.00     0.049 A 
HETATM   18  C   UNK N   1      30.557  17.018   8.988  0.00  0.00     0.052 A 
HETATM   19  C   UNK N   1      29.395  17.418   8.317  0.00  0.00     0.072 A 
HETATM   20  C   UNK N   1      29.424  17.534   6.908  0.00  0.00     0.082 A 
HETATM   21  C   UNK N   1      30.603  17.258   6.208  0.00  0.00     0.040 A 
HETATM   22  C   UNK N   1      31.751  16.858   6.892  0.00  0.00     0.034 A 
BRANCH  19  23
HETATM   23  C   UNK N   1      28.175  17.696   9.113  0.00  0.00     0.179 C 
HETATM   24  O   UNK N   1      27.761  16.865   9.908  0.00  0.00    -0.646 OA
BRANCH  23  25
HETATM   25  O   UNK N   1      27.506  18.857   8.970  0.00  0.00    -0.773 OA
HETATM   26  H   UNK N   1      26.650  18.956   9.339  0.00  0.00     0.167 HD
ENDBRANCH  23  25
ENDBRANCH  19  23
BRANCH  20  27
HETATM   27  O   UNK N   1      28.332  17.907   6.219  0.00  0.00    -0.360 OA
HETATM   28  H   UNK N   1      28.203  17.605   5.341  0.00  0.00     0.217 HD
ENDBRANCH  20  27
ENDBRANCH   3  17
TORSDOF 8
ENDMDL
MODEL 4
REMARK VINA RESULT:      -6.6      4.593     10.399
REMARK  8 active torsions:
REMARK  status: ('A' for Active; 'I' for Inactive)
REMARK    1  A    between atoms: C_1  and  N_3 
REMARK    2  A    between atoms: C_6  and  C_11 
REMARK    3  A    between atoms: N_7  and  C_12 
REMARK    4  A    between atoms: C_10  and  O_13 
REMARK    5  A    between atoms: C_11  and  O_14 
REMARK    6  A    between atoms: C_18  and  C_21 
REMARK    7  A    between atoms: C_20  and  O_22 
REMARK    8  A    between atoms: C_21  and  O_23 
ROOT
HETATM    1  N   UNK N   1      29.090  17.380   5.500  0.00  0.00    -0.300 N 
ATOM      2  HN  UNK N   1      28.522  16.620   5.874  1.00  0.00     0.187 HD
HETATM    3  N   UNK N   1      28.544  18.315   4.878  0.00  0.00    -0.300 N 
ATOM      4  HN  UNK N   1      29.114  19.097   4.557  1.00  0.00     0.187 HD
ENDROOT
BRANCH   1   5
HETATM    5  C   UNK N   1      30.491  17.372   5.688  0.00  0.00     0.049 A 
HETATM    6  C   UNK N   1      31.026  17.238   6.973  0.00  0.00     0.052 A 
HETATM    7  C   UNK N   1      32.405  17.250   7.189  0.00  0.00     0.072 A 
HETATM    8  C   UNK N   1      33.267  17.400   6.079  0.00  0.00     0.082 A 
HETATM    9  C   UNK N   1      32.731  17.536   4.791  0.00  0.00     0.040 A 
HETATM   10  C   UNK N   1      31.346  17.525   4.596  0.00  0.00     0.034 A 
BRANCH   7  11
HETATM   11  C   UNK N   1      32.902  17.106   8.579  0.00  0.00     0.179 C 
HETATM   12  O   UNK N   1      33.821  17.807   8.974  0.00  0.00    -0.646 OA
BRANCH  11  13
HETATM   13  O   UNK N   1      32.355  16.207   9.419  0.00  0.00    -0.773 OA
HETATM   14  H   UNK N   1      31.425  16.101   9.451  0.00  0.00     0.167 HD
ENDBRANCH  11  13
ENDBRANCH   7  11
BRANCH   8  15
HETATM   15  O   UNK N   1      34.602  17.417   6.235  0.00  0.00    -0.360 OA
HETATM   16  H   UNK N   1      34.974  17.375   7.094  0.00  0.00     0.217 HD
ENDBRANCH   8  15
ENDBRANCH   1   5
BRANCH   3  17
HETATM   17  C   UNK N   1      27.159  18.316   4.609  0.00  0.00     0.049 A 
HETATM   18  C   UNK N   1      26.571  19.342   3.861  0.00  0.00     0.052 A 
HETATM   19  C   UNK N   1      25.190  19.364   3.634  0.00  0.00     0.072 A 
HETATM   20  C   UNK N   1      24.391  18.331   4.176  0.00  0.00     0.082 A 
HETATM   21  C   UNK N   1      24.983  17.305   4.919  0.00  0.00     0.040 A 
HETATM   22  C   UNK N   1      26.361  17.299   5.137  0.00  0.00     0.034 A 
BRANCH  19  23
HETATM   23  C   UNK N   1      24.619  20.479   2.840  0.00  0.00     0.179 C 
HETATM   24  O   UNK N   1      25.277  20.996   1.950  0.00  0.00    -0.646 OA
BRANCH  23  25
HETATM   25  O   UNK N   1      23.377  20.938   3.088  0.00  0.00    -0.773 OA
HETATM   26  H   UNK N   1      22.859  21.297   2.394  0.00  0.00     0.167 HD
ENDBRANCH  23  25
ENDBRANCH  19  23
BRANCH  20  27
HETATM   27  O   UNK N   1      23.060  18.314   3.991  0.00  0.00    -0.360 OA
HETATM   28  H   UNK N   1      22.507  18.875   4.499  0.00  0.00     0.217 HD
ENDBRANCH  20  27
ENDBRANCH   3  17
TORSDOF 8
ENDMDL
MODEL 5
REMARK VINA RESULT:      -6.6      4.542      8.913
REMARK  8 active torsions:
REMARK  status: ('A' for Active; 'I' for Inactive)
REMARK    1  A    between atoms: C_1  and  N_3 
REMARK    2  A    between atoms: C_6  and  C_11 
REMARK    3  A    between atoms: N_7  and  C_12 
REMARK    4  A    between atoms: C_10  and  O_13 
REMARK    5  A    between atoms: C_11  and  O_14 
REMARK    6  A    between atoms: C_18  and  C_21 
REMARK    7  A    between atoms: C_20  and  O_22 
REMARK    8  A    between atoms: C_21  and  O_23 
ROOT
HETATM    1  N   UNK N   1      34.692  12.325  13.912  0.00  0.00    -0.300 N 
ATOM      2  HN  UNK N   1      34.061  11.819  13.290  1.00  0.00     0.187 HD
HETATM    3  N   UNK N   1      35.343  13.298  13.478  0.00  0.00    -0.300 N 
ATOM      4  HN  UNK N   1      35.928  13.830  14.122  1.00  0.00     0.187 HD
ENDROOT
BRANCH   1   5
HETATM    5  C   UNK N   1      34.824  11.924  15.261  0.00  0.00     0.049 A 
HETATM    6  C   UNK N   1      34.962  12.884  16.269  0.00  0.00     0.052 A 
HETATM    7  C   UNK N   1      35.116  12.513  17.606  0.00  0.00     0.072 A 
HETATM    8  C   UNK N   1      35.130  11.138  17.934  0.00  0.00     0.082 A 
HETATM    9  C   UNK N   1      34.993  10.177  16.925  0.00  0.00     0.040 A 
HETATM   10  C   UNK N   1      34.843  10.568  15.591  0.00  0.00     0.034 A 
BRANCH   7  11
HETATM   11  C   UNK N   1      35.261  13.585  18.621  0.00  0.00     0.179 C 
HETATM   12  O   UNK N   1      34.900  13.387  19.771  0.00  0.00    -0.646 OA
BRANCH  11  13
HETATM   13  O   UNK N   1      35.786  14.780  18.295  0.00  0.00    -0.773 OA
HETATM   14  H   UNK N   1      36.715  14.879  18.218  0.00  0.00     0.167 HD
ENDBRANCH  11  13
ENDBRANCH   7  11
BRANCH   8  15
HETATM   15  O   UNK N   1      35.276  10.732  19.208  0.00  0.00    -0.360 OA
HETATM   16  H   UNK N   1      35.957  11.094  19.741  0.00  0.00     0.217 HD
ENDBRANCH   8  15
ENDBRANCH   1   5
BRANCH   3  17
HETATM   17  C   UNK N   1      35.290  13.678  12.120  0.00  0.00     0.049 A 
HETATM   18  C   UNK N   1      35.189  15.024  11.753  0.00  0.00     0.052 A 
HETATM   19  C   UNK N   1      35.091  15.395  10.406  0.00  0.00     0.072 A 
HETATM   20  C   UNK N   1      35.094  14.385   9.416  0.00  0.00     0.082 A 
HETATM   21  C   UNK N   1      35.201  13.041   9.788  0.00  0.00     0.040 A 
HETATM   22  C   UNK N   1      35.296  12.689  11.135  0.00  0.00     0.034 A 
BRANCH  19  23
HETATM   23  C   UNK N   1      34.978  16.835  10.073  0.00  0.00     0.179 C 
HETATM   24  O   UNK N   1      35.896  17.598  10.336  0.00  0.00    -0.646 OA
BRANCH  23  25
HETATM   25  O   UNK N   1      33.869  17.323   9.483  0.00  0.00    -0.773 OA
HETATM   26  H   UNK N   1      33.072  16.831   9.498  0.00  0.00     0.167 HD
ENDBRANCH  23  25
ENDBRANCH  19  23
BRANCH  20  27
HETATM   27  O   UNK N   1      34.995  14.692   8.111  0.00  0.00    -0.360 OA
HETATM   28  H   UNK N   1      34.759  15.560   7.848  0.00  0.00     0.217 HD
ENDBRANCH  20  27
ENDBRANCH   3  17
TORSDOF 8
ENDMDL
MODEL 6
REMARK VINA RESULT:      -6.6      4.606      6.713
REMARK  8 active torsions:
REMARK  status: ('A' for Active; 'I' for Inactive)
REMARK    1  A    between atoms: C_1  and  N_3 
REMARK    2  A    between atoms: C_6  and  C_11 
REMARK    3  A    between atoms: N_7  and  C_12 
REMARK    4  A    between atoms: C_10  and  O_13 
REMARK    5  A    between atoms: C_11  and  O_14 
REMARK    6  A    between atoms: C_18  and  C_21 
REMARK    7  A    between atoms: C_20  and  O_22 
REMARK    8  A    between atoms: C_21  and  O_23 
ROOT
HETATM    1  N   UNK N   1      28.542  18.274   4.770  0.00  0.00    -0.300 N 
ATOM      2  HN  UNK N   1      29.126  18.949   4.276  1.00  0.00     0.187 HD
HETATM    3  N   UNK N   1      29.066  17.459   5.557  0.00  0.00    -0.300 N 
ATOM      4  HN  UNK N   1      28.467  16.825   6.087  1.00  0.00     0.187 HD
ENDROOT
BRANCH   1   5
HETATM    5  C   UNK N   1      27.144  18.266   4.562  0.00  0.00     0.049 A 
HETATM    6  C   UNK N   1      26.537  19.291   3.830  0.00  0.00     0.052 A 
HETATM    7  C   UNK N   1      25.156  19.317   3.629  0.00  0.00     0.072 A 
HETATM    8  C   UNK N   1      24.367  18.283   4.181  0.00  0.00     0.082 A 
HETATM    9  C   UNK N   1      24.975  17.256   4.915  0.00  0.00     0.040 A 
HETATM   10  C   UNK N   1      26.359  17.249   5.109  0.00  0.00     0.034 A 
BRANCH   7  11
HETATM   11  C   UNK N   1      24.580  20.437   2.844  0.00  0.00     0.179 C 
HETATM   12  O   UNK N   1      25.234  20.957   1.953  0.00  0.00    -0.646 OA
BRANCH  11  13
HETATM   13  O   UNK N   1      23.340  20.895   3.100  0.00  0.00    -0.773 OA
HETATM   14  H   UNK N   1      22.943  20.731   3.933  0.00  0.00     0.167 HD
ENDBRANCH  11  13
ENDBRANCH   7  11
BRANCH   8  15
HETATM   15  O   UNK N   1      23.032  18.265   4.014  0.00  0.00    -0.360 OA
HETATM   16  H   UNK N   1      22.616  17.510   3.647  0.00  0.00     0.217 HD
ENDBRANCH   8  15
ENDBRANCH   1   5
BRANCH   3  17
HETATM   17  C   UNK N   1      30.464  17.392   5.732  0.00  0.00     0.049 A 
HETATM   18  C   UNK N   1      31.025  17.264   7.007  0.00  0.00     0.052 A 
HETATM   19  C   UNK N   1      32.415  17.243   7.181  0.00  0.00     0.072 A 
HETATM   20  C   UNK N   1      33.248  17.357   6.045  0.00  0.00     0.082 A 
HETATM   21  C   UNK N   1      32.683  17.480   4.772  0.00  0.00     0.040 A 
HETATM   22  C   UNK N   1      31.296  17.501   4.617  0.00  0.00     0.034 A 
BRANCH  19  23
HETATM   23  C   UNK N   1      32.956  17.112   8.556  0.00  0.00     0.179 C 
HETATM   24  O   UNK N   1      33.874  17.830   8.922  0.00  0.00    -0.646 OA
BRANCH  23  25
HETATM   25  O   UNK N   1      32.451  16.204   9.414  0.00  0.00    -0.773 OA
HETATM   26  H   UNK N   1      32.033  16.484  10.204  0.00  0.00     0.167 HD
ENDBRANCH  23  25
ENDBRANCH  19  23
BRANCH  20  27
HETATM   27  O   UNK N   1      34.587  17.350   6.163  0.00  0.00    -0.360 OA
HETATM   28  H   UNK N   1      34.985  17.225   7.002  0.00  0.00     0.217 HD
ENDBRANCH  20  27
ENDBRANCH   3  17
TORSDOF 8
ENDMDL
MODEL 7
REMARK VINA RESULT:      -6.6      4.511      6.669
REMARK  8 active torsions:
REMARK  status: ('A' for Active; 'I' for Inactive)
REMARK    1  A    between atoms: C_1  and  N_3 
REMARK    2  A    between atoms: C_6  and  C_11 
REMARK    3  A    between atoms: N_7  and  C_12 
REMARK    4  A    between atoms: C_10  and  O_13 
REMARK    5  A    between atoms: C_11  and  O_14 
REMARK    6  A    between atoms: C_18  and  C_21 
REMARK    7  A    between atoms: C_20  and  O_22 
REMARK    8  A    between atoms: C_21  and  O_23 
ROOT
HETATM    1  N   UNK N   1      35.544  13.299  13.484  0.00  0.00    -0.300 N 
ATOM      2  HN  UNK N   1      36.322  13.686  14.018  1.00  0.00     0.187 HD
HETATM    3  N   UNK N   1      34.728  12.536  14.040  0.00  0.00    -0.300 N 
ATOM      4  HN  UNK N   1      33.923  12.199  13.511  1.00  0.00     0.187 HD
ENDROOT
BRANCH   1   5
HETATM    5  C   UNK N   1      35.393  13.630  12.118  0.00  0.00     0.049 A 
HETATM    6  C   UNK N   1      35.204  14.962  11.735  0.00  0.00     0.052 A 
HETATM    7  C   UNK N   1      35.030  15.312  10.395  0.00  0.00     0.072 A 
HETATM    8  C   UNK N   1      35.048  14.293   9.416  0.00  0.00     0.082 A 
HETATM    9  C   UNK N   1      35.236  12.959   9.800  0.00  0.00     0.040 A 
HETATM   10  C   UNK N   1      35.405  12.627  11.147  0.00  0.00     0.034 A 
BRANCH   7  11
HETATM   11  C   UNK N   1      34.831  16.744  10.061  0.00  0.00     0.179 C 
HETATM   12  O   UNK N   1      35.687  17.563  10.359  0.00  0.00    -0.646 OA
BRANCH  11  13
HETATM   13  O   UNK N   1      33.716  17.159   9.433  0.00  0.00    -0.773 OA
HETATM   14  H   UNK N   1      33.103  17.710   9.880  0.00  0.00     0.167 HD
ENDBRANCH  11  13
ENDBRANCH   7  11
BRANCH   8  15
HETATM   15  O   UNK N   1      34.885  14.580   8.113  0.00  0.00    -0.360 OA
HETATM   16  H   UNK N   1      34.097  14.329   7.671  0.00  0.00     0.217 HD
ENDBRANCH   8  15
ENDBRANCH   1   5
BRANCH   3  17
HETATM   17  C   UNK N   1      34.891  12.127  15.381  0.00  0.00     0.049 A 
HETATM   18  C   UNK N   1      34.926  13.063  16.420  0.00  0.00     0.052 A 
HETATM   19  C   UNK N   1      35.133  12.659  17.744  0.00  0.00     0.072 A 
HETATM   20  C   UNK N   1      35.311  11.283  18.019  0.00  0.00     0.082 A 
HETATM   21  C   UNK N   1      35.270  10.351  16.978  0.00  0.00     0.040 A 
HETATM   22  C   UNK N   1      35.064  10.771  15.664  0.00  0.00     0.034 A 
BRANCH  19  23
HETATM   23  C   UNK N   1      35.169  13.694  18.806  0.00  0.00     0.179 C 
HETATM   24  O   UNK N   1      35.414  14.856  18.519  0.00  0.00    -0.646 OA
BRANCH  23  25
HETATM   25  O   UNK N   1      34.937  13.371  20.093  0.00  0.00    -0.773 OA
HETATM   26  H   UNK N   1      34.448  12.601  20.305  0.00  0.00     0.167 HD
ENDBRANCH  23  25
ENDBRANCH  19  23
BRANCH  20  27
HETATM   27  O   UNK N   1      35.521  10.848  19.273  0.00  0.00    -0.360 OA
HETATM   28  H   UNK N   1      35.981  10.045  19.422  0.00  0.00     0.217 HD
ENDBRANCH  20  27
ENDBRANCH   3  17
TORSDOF 8
ENDMDL
MODEL 8
REMARK VINA RESULT:      -6.5      5.474      8.216
REMARK  8 active torsions:
REMARK  status: ('A' for Active; 'I' for Inactive)
REMARK    1  A    between atoms: C_1  and  N_3 
REMARK    2  A    between atoms: C_6  and  C_11 
REMARK    3  A    between atoms: N_7  and  C_12 
REMARK    4  A    between atoms: C_10  and  O_13 
REMARK    5  A    between atoms: C_11  and  O_14 
REMARK    6  A    between atoms: C_18  and  C_21 
REMARK    7  A    between atoms: C_20  and  O_22 
REMARK    8  A    between atoms: C_21  and  O_23 
ROOT
HETATM    1  N   UNK N   1      25.822  17.424   5.466  0.00  0.00    -0.300 N 
ATOM      2  HN  UNK N   1      26.021  16.426   5.534  1.00  0.00     0.187 HD
HETATM    3  N   UNK N   1      26.682  18.255   5.824  0.00  0.00    -0.300 N 
ATOM      4  HN  UNK N   1      26.493  19.249   5.700  1.00  0.00     0.187 HD
ENDROOT
BRANCH   1   5
HETATM    5  C   UNK N   1      24.575  17.861   4.965  0.00  0.00     0.049 A 
HETATM    6  C   UNK N   1      24.503  18.997   4.154  0.00  0.00     0.052 A 
HETATM    7  C   UNK N   1      23.280  19.462   3.665  0.00  0.00     0.072 A 
HETATM    8  C   UNK N   1      22.100  18.761   4.002  0.00  0.00     0.082 A 
HETATM    9  C   UNK N   1      22.173  17.623   4.816  0.00  0.00     0.040 A 
HETATM   10  C   UNK N   1      23.406  17.175   5.299  0.00  0.00     0.034 A 
BRANCH   7  11
HETATM   11  C   UNK N   1      23.279  20.677   2.813  0.00  0.00     0.179 C 
HETATM   12  O   UNK N   1      24.237  20.919   2.096  0.00  0.00    -0.646 OA
BRANCH  11  13
HETATM   13  O   UNK N   1      22.232  21.523   2.818  0.00  0.00    -0.773 OA
HETATM   14  H   UNK N   1      21.497  21.362   2.260  0.00  0.00     0.167 HD
ENDBRANCH  11  13
ENDBRANCH   7  11
BRANCH   8  15
HETATM   15  O   UNK N   1      20.900  19.170   3.555  0.00  0.00    -0.360 OA
HETATM   16  H   UNK N   1      20.122  18.721   3.824  0.00  0.00     0.217 HD
ENDBRANCH   8  15
ENDBRANCH   1   5
BRANCH   3  17
HETATM   17  C   UNK N   1      27.907  17.852   6.397  0.00  0.00     0.049 A 
HETATM   18  C   UNK N   1      28.137  17.981   7.771  0.00  0.00     0.052 A 
HETATM   19  C   UNK N   1      29.370  17.623   8.330  0.00  0.00     0.072 A 
HETATM   20  C   UNK N   1      30.387  17.129   7.482  0.00  0.00     0.082 A 
HETATM   21  C   UNK N   1      30.152  16.997   6.110  0.00  0.00     0.040 A 
HETATM   22  C   UNK N   1      28.918  17.361   5.569  0.00  0.00     0.034 A 
BRANCH  19  23
HETATM   23  C   UNK N   1      29.561  17.787   9.791  0.00  0.00     0.179 C 
HETATM   24  O   UNK N   1      29.623  18.906  10.278  0.00  0.00    -0.646 OA
BRANCH  23  25
HETATM   25  O   UNK N   1      29.674  16.714  10.598  0.00  0.00    -0.773 OA
HETATM   26  H   UNK N   1      30.356  16.675  11.239  0.00  0.00     0.167 HD
ENDBRANCH  23  25
ENDBRANCH  19  23
BRANCH  20  27
HETATM   27  O   UNK N   1      31.590  16.780   7.971  0.00  0.00    -0.360 OA
HETATM   28  H   UNK N   1      31.682  15.998   8.479  0.00  0.00     0.217 HD
ENDBRANCH  20  27
ENDBRANCH   3  17
TORSDOF 8
ENDMDL
MODEL 9
REMARK VINA RESULT:      -6.5      5.329     11.176
REMARK  8 active torsions:
REMARK  status: ('A' for Active; 'I' for Inactive)
REMARK    1  A    between atoms: C_1  and  N_3 
REMARK    2  A    between atoms: C_6  and  C_11 
REMARK    3  A    between atoms: N_7  and  C_12 
REMARK    4  A    between atoms: C_10  and  O_13 
REMARK    5  A    between atoms: C_11  and  O_14 
REMARK    6  A    between atoms: C_18  and  C_21 
REMARK    7  A    between atoms: C_20  and  O_22 
REMARK    8  A    between atoms: C_21  and  O_23 
ROOT
HETATM    1  N   UNK N   1      27.553  18.885   5.433  0.00  0.00    -0.300 N 
ATOM      2  HN  UNK N   1      27.669  19.882   5.256  1.00  0.00     0.187 HD
HETATM    3  N   UNK N   1      26.544  18.289   5.003  0.00  0.00    -0.300 N 
ATOM      4  HN  UNK N   1      26.466  17.282   5.139  1.00  0.00     0.187 HD
ENDROOT
BRANCH   1   5
HETATM    5  C   UNK N   1      28.537  18.181   6.165  0.00  0.00     0.049 A 
HETATM    6  C   UNK N   1      28.601  18.305   7.556  0.00  0.00     0.052 A 
HETATM    7  C   UNK N   1      29.577  17.639   8.299  0.00  0.00     0.072 A 
HETATM    8  C   UNK N   1      30.512  16.825   7.621  0.00  0.00     0.082 A 
HETATM    9  C   UNK N   1      30.449  16.701   6.227  0.00  0.00     0.040 A 
HETATM   10  C   UNK N   1      29.466  17.379   5.500  0.00  0.00     0.034 A 
BRANCH   7  11
HETATM   11  C   UNK N   1      29.587  17.820   9.772  0.00  0.00     0.179 C 
HETATM   12  O   UNK N   1      29.660  18.942  10.247  0.00  0.00    -0.646 OA
BRANCH  11  13
HETATM   13  O   UNK N   1      29.518  16.760  10.599  0.00  0.00    -0.773 OA
HETATM   14  H   UNK N   1      29.699  16.866  11.512  0.00  0.00     0.167 HD
ENDBRANCH  11  13
ENDBRANCH   7  11
BRANCH   8  15
HETATM   15  O   UNK N   1      31.470  16.163   8.292  0.00  0.00    -0.360 OA
HETATM   16  H   UNK N   1      31.392  15.240   8.434  0.00  0.00     0.217 HD
ENDBRANCH   8  15
ENDBRANCH   1   5
BRANCH   3  17
HETATM   17  C   UNK N   1      25.508  18.976   4.334  0.00  0.00     0.049 A 
HETATM   18  C   UNK N   1      24.166  18.654   4.561  0.00  0.00     0.052 A 
HETATM   19  C   UNK N   1      23.143  19.307   3.862  0.00  0.00     0.072 A 
HETATM   20  C   UNK N   1      23.487  20.299   2.916  0.00  0.00     0.082 A 
HETATM   21  C   UNK N   1      24.829  20.621   2.695  0.00  0.00     0.040 A 
HETATM   22  C   UNK N   1      25.836  19.960   3.399  0.00  0.00     0.034 A 
BRANCH  19  23
HETATM   23  C   UNK N   1      21.738  18.921   4.137  0.00  0.00     0.179 C 
HETATM   24  O   UNK N   1      21.432  17.741   4.217  0.00  0.00    -0.646 OA
BRANCH  23  25
HETATM   25  O   UNK N   1      20.783  19.858   4.297  0.00  0.00    -0.773 OA
HETATM   26  H   UNK N   1      20.853  20.682   3.856  0.00  0.00     0.167 HD
ENDBRANCH  23  25
ENDBRANCH  19  23
BRANCH  20  27
HETATM   27  O   UNK N   1      22.540  20.947   2.215  0.00  0.00    -0.360 OA
HETATM   28  H   UNK N   1      22.783  21.567   1.556  0.00  0.00     0.217 HD
ENDBRANCH  20  27
ENDBRANCH   3  17
TORSDOF 8
ENDMDL
