MODEL 1
REMARK VINA RESULT:      -6.0      0.000      0.000
REMARK  4 active torsions:
REMARK  status: ('A' for Active; 'I' for Inactive)
REMARK    1  A    between atoms: O_5  and  C_20 
REMARK    2  A    between atoms: N_8  and  C_18 
REMARK    3  A    between atoms: C_13  and  C_18 
REMARK    4  A    between atoms: C_15  and  C_20 
ROOT
HETATM    1  S   UNK N   1      26.773  27.209  -6.076  0.00  0.00     0.174 S 
HETATM    2  O   UNK N   1      27.433  28.447  -6.702  0.00  0.00    -0.225 OA
HETATM    3  O   UNK N   1      25.274  27.546  -6.016  0.00  0.00    -0.225 OA
HETATM    4  O   UNK N   1      25.378  23.373  -5.717  0.00  0.00    -0.280 OA
HETATM    5  N   UNK N   1      27.143  24.747  -5.973  0.00  0.00    -0.218 NA
HETATM    6  C   UNK N   1      27.449  26.701  -4.475  0.00  0.00     0.106 C 
HETATM    7  C   UNK N   1      27.051  25.708  -7.030  0.00  0.00     0.198 A 
HETATM    8  C   UNK N   1      27.239  25.183  -4.587  0.00  0.00     0.189 C 
HETATM    9  C   UNK N   1      25.796  24.879  -7.594  0.00  0.00     0.132 A 
HETATM   10  C   UNK N   1      26.128  24.045  -6.408  0.00  0.00     0.204 A 
HETATM   11  C   UNK N   1      28.949  26.981  -4.447  0.00  0.00     0.036 C 
ENDROOT
BRANCH   6  12
HETATM   12  C   UNK N   1      26.668  27.270  -3.279  0.00  0.00     0.177 C 
BRANCH  12  13
HETATM   13  N   UNK N   1      26.726  28.725  -3.189  0.00  0.00    -0.286 N 
HETATM   14  N   UNK N   1      25.918  29.532  -3.852  0.00  0.00    -0.241 N 
HETATM   15  N   UNK N   1      26.199  30.791  -3.560  0.00  0.00    -0.296 N 
ATOM     16  HN  UNK N   1      25.187  29.229  -4.494  1.00  0.00     0.208 HD
HETATM   17  C   UNK N   1      27.223  30.789  -2.680  0.00  0.00     0.127 A 
ATOM     18  HN  UNK N   1      25.726  31.614  -3.932  1.00  0.00     0.187 HD
HETATM   19  C   UNK N   1      27.562  29.467  -2.443  0.00  0.00     0.130 A 
ENDBRANCH  12  13
ENDBRANCH   6  12
BRANCH   8  20
HETATM   20  C   UNK N   1      27.635  24.190  -3.528  0.00  0.00     0.160 C 
HETATM   21  O   UNK N   1      26.843  23.886  -2.651  0.00  0.00    -0.649 OA
BRANCH  20  22
HETATM   22  O   UNK N   1      28.845  23.605  -3.565  0.00  0.00    -0.775 OA
HETATM   23  H   UNK N   1      29.486  23.859  -4.202  0.00  0.00     0.167 HD
ENDBRANCH  20  22
ENDBRANCH   8  20
TORSDOF 4
ENDMDL
MODEL 2
REMARK VINA RESULT:      -5.9     17.397     19.584
REMARK  4 active torsions:
REMARK  status: ('A' for Active; 'I' for Inactive)
REMARK    1  A    between atoms: O_5  and  C_20 
REMARK    2  A    between atoms: N_8  and  C_18 
REMARK    3  A    between atoms: C_13  and  C_18 
REMARK    4  A    between atoms: C_15  and  C_20 
ROOT
HETATM    1  S   UNK N   1      33.430  14.256   7.537  0.00  0.00     0.174 S 
HETATM    2  O   UNK N   1      32.655  13.017   8.010  0.00  0.00    -0.225 OA
HETATM    3  O   UNK N   1      34.288  13.763   6.360  0.00  0.00    -0.225 OA
HETATM    4  O   UNK N   1      34.149  17.913   5.832  0.00  0.00    -0.280 OA
HETATM    5  N   UNK N   1      33.125  16.728   7.450  0.00  0.00    -0.218 NA
HETATM    6  C   UNK N   1      34.399  15.095   8.816  0.00  0.00     0.106 C 
HETATM    7  C   UNK N   1      32.353  15.602   7.020  0.00  0.00     0.198 A 
HETATM    8  C   UNK N   1      34.290  16.540   8.304  0.00  0.00     0.189 C 
HETATM    9  C   UNK N   1      32.458  16.177   5.524  0.00  0.00     0.132 A 
HETATM   10  C   UNK N   1      33.226  17.227   6.245  0.00  0.00     0.204 A 
HETATM   11  C   UNK N   1      33.666  14.999  10.152  0.00  0.00     0.036 C 
ENDROOT
BRANCH   6  12
HETATM   12  C   UNK N   1      35.869  14.644   8.858  0.00  0.00     0.177 C 
BRANCH  12  13
HETATM   13  N   UNK N   1      36.286  14.149  10.166  0.00  0.00    -0.286 N 
HETATM   14  N   UNK N   1      36.745  14.925  11.129  0.00  0.00    -0.241 N 
HETATM   15  N   UNK N   1      37.027  14.198  12.197  0.00  0.00    -0.296 N 
ATOM     16  HN  UNK N   1      36.864  15.935  11.060  1.00  0.00     0.208 HD
HETATM   17  C   UNK N   1      36.739  12.911  11.906  0.00  0.00     0.127 A 
ATOM     18  HN  UNK N   1      37.395  14.547  13.082  1.00  0.00     0.187 HD
HETATM   19  C   UNK N   1      36.266  12.879  10.604  0.00  0.00     0.130 A 
ENDBRANCH  12  13
ENDBRANCH   6  12
BRANCH   8  20
HETATM   20  C   UNK N   1      34.904  17.732   8.985  0.00  0.00     0.160 C 
HETATM   21  O   UNK N   1      35.387  17.616  10.100  0.00  0.00    -0.649 OA
BRANCH  20  22
HETATM   22  O   UNK N   1      34.957  18.920   8.356  0.00  0.00    -0.775 OA
HETATM   23  H   UNK N   1      35.590  19.567   8.600  0.00  0.00     0.167 HD
ENDBRANCH  20  22
ENDBRANCH   8  20
TORSDOF 4
ENDMDL
MODEL 3
REMARK VINA RESULT:      -5.9     15.599     17.564
REMARK  4 active torsions:
REMARK  status: ('A' for Active; 'I' for Inactive)
REMARK    1  A    between atoms: O_5  and  C_20 
REMARK    2  A    between atoms: N_8  and  C_18 
REMARK    3  A    between atoms: C_13  and  C_18 
REMARK    4  A    between atoms: C_15  and  C_20 
ROOT
HETATM    1  S   UNK N   1      33.485  17.314   6.757  0.00  0.00     0.174 S 
HETATM    2  O   UNK N   1      34.644  18.273   7.069  0.00  0.00    -0.225 OA
HETATM    3  O   UNK N   1      32.285  17.876   7.537  0.00  0.00    -0.225 OA
HETATM    4  O   UNK N   1      30.536  15.421   4.632  0.00  0.00    -0.280 OA
HETATM    5  N   UNK N   1      32.733  15.836   4.897  0.00  0.00    -0.218 NA
HETATM    6  C   UNK N   1      33.809  15.569   7.117  0.00  0.00     0.106 C 
HETATM    7  C   UNK N   1      33.111  17.213   4.999  0.00  0.00     0.198 A 
HETATM    8  C   UNK N   1      32.959  14.925   6.010  0.00  0.00     0.189 C 
HETATM    9  C   UNK N   1      31.642  17.594   4.474  0.00  0.00     0.132 A 
HETATM   10  C   UNK N   1      31.530  16.111   4.462  0.00  0.00     0.204 A 
HETATM   11  C   UNK N   1      35.278  15.259   6.839  0.00  0.00     0.036 C 
ENDROOT
BRANCH   6  12
HETATM   12  C   UNK N   1      33.313  15.133   8.505  0.00  0.00     0.177 C 
BRANCH  12  13
HETATM   13  N   UNK N   1      34.135  15.641   9.599  0.00  0.00    -0.286 N 
HETATM   14  N   UNK N   1      34.267  16.923   9.881  0.00  0.00    -0.241 N 
HETATM   15  N   UNK N   1      35.059  17.076  10.929  0.00  0.00    -0.296 N 
ATOM     16  HN  UNK N   1      33.823  17.684   9.367  1.00  0.00     0.208 HD
HETATM   17  C   UNK N   1      35.449  15.847  11.331  0.00  0.00     0.127 A 
ATOM     18  HN  UNK N   1      35.326  17.962  11.357  1.00  0.00     0.187 HD
HETATM   19  C   UNK N   1      34.859  14.927  10.479  0.00  0.00     0.130 A 
ENDBRANCH  12  13
ENDBRANCH   6  12
BRANCH   8  20
HETATM   20  C   UNK N   1      32.839  13.443   5.785  0.00  0.00     0.160 C 
HETATM   21  O   UNK N   1      33.836  12.777   5.558  0.00  0.00    -0.649 OA
BRANCH  20  22
HETATM   22  O   UNK N   1      31.640  12.839   5.871  0.00  0.00    -0.775 OA
HETATM   23  H   UNK N   1      31.338  12.266   5.193  0.00  0.00     0.167 HD
ENDBRANCH  20  22
ENDBRANCH   8  20
TORSDOF 4
ENDMDL
MODEL 4
REMARK VINA RESULT:      -5.9     15.648     17.689
REMARK  4 active torsions:
REMARK  status: ('A' for Active; 'I' for Inactive)
REMARK    1  A    between atoms: O_5  and  C_20 
REMARK    2  A    between atoms: N_8  and  C_18 
REMARK    3  A    between atoms: C_13  and  C_18 
REMARK    4  A    between atoms: C_15  and  C_20 
ROOT
HETATM    1  S   UNK N   1      21.419  14.699   6.512  0.00  0.00     0.174 S 
HETATM    2  O   UNK N   1      22.647  14.828   5.598  0.00  0.00    -0.225 OA
HETATM    3  O   UNK N   1      20.768  13.364   6.115  0.00  0.00    -0.225 OA
HETATM    4  O   UNK N   1      19.217  14.146   9.924  0.00  0.00    -0.280 OA
HETATM    5  N   UNK N   1      20.712  15.398   8.798  0.00  0.00    -0.218 NA
HETATM    6  C   UNK N   1      20.266  16.094   6.458  0.00  0.00     0.106 C 
HETATM    7  C   UNK N   1      21.844  14.705   8.262  0.00  0.00     0.198 A 
HETATM    8  C   UNK N   1      19.765  16.060   7.911  0.00  0.00     0.189 C 
HETATM    9  C   UNK N   1      21.440  13.453   9.183  0.00  0.00     0.132 A 
HETATM   10  C   UNK N   1      20.357  14.399   9.565  0.00  0.00     0.204 A 
HETATM   11  C   UNK N   1      21.047  17.389   6.247  0.00  0.00     0.036 C 
ENDROOT
BRANCH   6  12
HETATM   12  C   UNK N   1      19.102  15.881   5.477  0.00  0.00     0.177 C 
BRANCH  12  13
HETATM   13  N   UNK N   1      19.457  16.155   4.089  0.00  0.00    -0.286 N 
HETATM   14  N   UNK N   1      19.214  17.302   3.484  0.00  0.00    -0.241 N 
HETATM   15  N   UNK N   1      19.660  17.259   2.240  0.00  0.00    -0.296 N 
ATOM     16  HN  UNK N   1      18.752  18.103   3.913  1.00  0.00     0.208 HD
HETATM   17  C   UNK N   1      20.205  16.040   2.041  0.00  0.00     0.127 A 
ATOM     18  HN  UNK N   1      19.603  18.012   1.554  1.00  0.00     0.187 HD
HETATM   19  C   UNK N   1      20.074  15.331   3.224  0.00  0.00     0.130 A 
ENDBRANCH  12  13
ENDBRANCH   6  12
BRANCH   8  20
HETATM   20  C   UNK N   1      18.765  17.023   8.488  0.00  0.00     0.160 C 
HETATM   21  O   UNK N   1      17.581  16.728   8.520  0.00  0.00    -0.649 OA
BRANCH  20  22
HETATM   22  O   UNK N   1      19.174  18.196   9.005  0.00  0.00    -0.775 OA
HETATM   23  H   UNK N   1      20.078  18.444   8.985  0.00  0.00     0.167 HD
ENDBRANCH  20  22
ENDBRANCH   8  20
TORSDOF 4
ENDMDL
MODEL 5
REMARK VINA RESULT:      -5.5     14.979     17.052
REMARK  4 active torsions:
REMARK  status: ('A' for Active; 'I' for Inactive)
REMARK    1  A    between atoms: O_5  and  C_20 
REMARK    2  A    between atoms: N_8  and  C_18 
REMARK    3  A    between atoms: C_13  and  C_18 
REMARK    4  A    between atoms: C_15  and  C_20 
ROOT
HETATM    1  S   UNK N   1      34.061  16.063   5.637  0.00  0.00     0.174 S 
HETATM    2  O   UNK N   1      35.480  15.632   6.040  0.00  0.00    -0.225 OA
HETATM    3  O   UNK N   1      34.054  17.593   5.787  0.00  0.00    -0.225 OA
HETATM    4  O   UNK N   1      30.809  16.815   3.261  0.00  0.00    -0.280 OA
HETATM    5  N   UNK N   1      32.240  15.301   4.116  0.00  0.00    -0.218 NA
HETATM    6  C   UNK N   1      32.721  15.256   6.550  0.00  0.00     0.106 C 
HETATM    7  C   UNK N   1      33.634  15.585   3.955  0.00  0.00     0.198 A 
HETATM    8  C   UNK N   1      31.652  15.225   5.446  0.00  0.00     0.189 C 
HETATM    9  C   UNK N   1      33.221  16.711   2.888  0.00  0.00     0.132 A 
HETATM   10  C   UNK N   1      31.869  16.207   3.248  0.00  0.00     0.204 A 
HETATM   11  C   UNK N   1      33.122  13.819   6.874  0.00  0.00     0.036 C 
ENDROOT
BRANCH   6  12
HETATM   12  C   UNK N   1      32.232  16.072   7.757  0.00  0.00     0.177 C 
BRANCH  12  13
HETATM   13  N   UNK N   1      32.992  15.816   8.976  0.00  0.00    -0.286 N 
HETATM   14  N   UNK N   1      32.554  15.060   9.966  0.00  0.00    -0.241 N 
HETATM   15  N   UNK N   1      33.463  15.002  10.924  0.00  0.00    -0.296 N 
ATOM     16  HN  UNK N   1      31.650  14.590   9.987  1.00  0.00     0.208 HD
HETATM   17  C   UNK N   1      34.519  15.748  10.535  0.00  0.00     0.127 A 
ATOM     18  HN  UNK N   1      33.382  14.485  11.800  1.00  0.00     0.187 HD
HETATM   19  C   UNK N   1      34.217  16.271   9.288  0.00  0.00     0.130 A 
ENDBRANCH  12  13
ENDBRANCH   6  12
BRANCH   8  20
HETATM   20  C   UNK N   1      30.277  14.638   5.612  0.00  0.00     0.160 C 
HETATM   21  O   UNK N   1      29.361  15.334   6.020  0.00  0.00    -0.649 OA
BRANCH  20  22
HETATM   22  O   UNK N   1      30.042  13.357   5.275  0.00  0.00    -0.775 OA
HETATM   23  H   UNK N   1      29.166  13.032   5.196  0.00  0.00     0.167 HD
ENDBRANCH  20  22
ENDBRANCH   8  20
TORSDOF 4
ENDMDL
MODEL 6
REMARK VINA RESULT:      -5.5     20.281     22.208
REMARK  4 active torsions:
REMARK  status: ('A' for Active; 'I' for Inactive)
REMARK    1  A    between atoms: O_5  and  C_20 
REMARK    2  A    between atoms: N_8  and  C_18 
REMARK    3  A    between atoms: C_13  and  C_18 
REMARK    4  A    between atoms: C_15  and  C_20 
ROOT
HETATM    1  S   UNK N   1      35.738  15.095  10.387  0.00  0.00     0.174 S 
HETATM    2  O   UNK N   1      37.034  15.879  10.643  0.00  0.00    -0.225 OA
HETATM    3  O   UNK N   1      34.616  15.996  10.930  0.00  0.00    -0.225 OA
HETATM    4  O   UNK N   1      32.635  13.376   8.336  0.00  0.00    -0.280 OA
HETATM    5  N   UNK N   1      34.847  13.444   8.747  0.00  0.00    -0.218 NA
HETATM    6  C   UNK N   1      35.699  13.421  11.077  0.00  0.00     0.106 C 
HETATM    7  C   UNK N   1      35.472  14.728   8.645  0.00  0.00     0.198 A 
HETATM    8  C   UNK N   1      34.819  12.736  10.019  0.00  0.00     0.189 C 
HETATM    9  C   UNK N   1      34.142  15.252   7.915  0.00  0.00     0.132 A 
HETATM   10  C   UNK N   1      33.751  13.836   8.150  0.00  0.00     0.204 A 
HETATM   11  C   UNK N   1      37.097  12.813  11.010  0.00  0.00     0.036 C 
ENDROOT
BRANCH   6  12
HETATM   12  C   UNK N   1      35.036  13.352  12.463  0.00  0.00     0.177 C 
BRANCH  12  13
HETATM   13  N   UNK N   1      35.882  13.863  13.536  0.00  0.00    -0.286 N 
HETATM   14  N   UNK N   1      36.440  15.058  13.522  0.00  0.00    -0.241 N 
HETATM   15  N   UNK N   1      37.135  15.245  14.631  0.00  0.00    -0.296 N 
ATOM     16  HN  UNK N   1      36.349  15.737  12.767  1.00  0.00     0.208 HD
HETATM   17  C   UNK N   1      37.018  14.129  15.381  0.00  0.00     0.127 A 
ATOM     18  HN  UNK N   1      37.663  16.083  14.876  1.00  0.00     0.187 HD
HETATM   19  C   UNK N   1      36.217  13.242  14.680  0.00  0.00     0.130 A 
ENDBRANCH  12  13
ENDBRANCH   6  12
BRANCH   8  20
HETATM   20  C   UNK N   1      34.435  11.283  10.046  0.00  0.00     0.160 C 
HETATM   21  O   UNK N   1      35.085  10.468   9.411  0.00  0.00    -0.649 OA
BRANCH  20  22
HETATM   22  O   UNK N   1      33.400  10.868  10.798  0.00  0.00    -0.775 OA
HETATM   23  H   UNK N   1      32.910  11.473  11.321  0.00  0.00     0.167 HD
ENDBRANCH  20  22
ENDBRANCH   8  20
TORSDOF 4
ENDMDL
MODEL 7
REMARK VINA RESULT:      -5.3     22.892     24.847
REMARK  4 active torsions:
REMARK  status: ('A' for Active; 'I' for Inactive)
REMARK    1  A    between atoms: O_5  and  C_20 
REMARK    2  A    between atoms: N_8  and  C_18 
REMARK    3  A    between atoms: C_13  and  C_18 
REMARK    4  A    between atoms: C_15  and  C_20 
ROOT
HETATM    1  S   UNK N   1      35.343  10.386  12.885  0.00  0.00     0.174 S 
HETATM    2  O   UNK N   1      35.879   9.096  12.246  0.00  0.00    -0.225 OA
HETATM    3  O   UNK N   1      33.891  10.499  12.394  0.00  0.00    -0.225 OA
HETATM    4  O   UNK N   1      34.004  12.969  15.770  0.00  0.00    -0.280 OA
HETATM    5  N   UNK N   1      35.698  11.732  14.952  0.00  0.00    -0.218 NA
HETATM    6  C   UNK N   1      36.321  11.874  12.555  0.00  0.00     0.106 C 
HETATM    7  C   UNK N   1      35.406  10.356  14.684  0.00  0.00     0.198 A 
HETATM    8  C   UNK N   1      36.075  12.631  13.870  0.00  0.00     0.189 C 
HETATM    9  C   UNK N   1      34.055  10.539  15.531  0.00  0.00     0.132 A 
HETATM   10  C   UNK N   1      34.608  11.914  15.653  0.00  0.00     0.204 A 
HETATM   11  C   UNK N   1      37.799  11.503  12.480  0.00  0.00     0.036 C 
ENDROOT
BRANCH   6  12
HETATM   12  C   UNK N   1      35.803  12.687  11.357  0.00  0.00     0.177 C 
BRANCH  12  13
HETATM   13  N   UNK N   1      36.868  13.238  10.526  0.00  0.00    -0.286 N 
HETATM   14  N   UNK N   1      37.541  14.331  10.830  0.00  0.00    -0.241 N 
HETATM   15  N   UNK N   1      38.449  14.575   9.900  0.00  0.00    -0.296 N 
ATOM     16  HN  UNK N   1      37.384  14.904  11.659  1.00  0.00     0.208 HD
HETATM   17  C   UNK N   1      38.353  13.603   8.967  0.00  0.00     0.127 A 
ATOM     18  HN  UNK N   1      39.106  15.355   9.890  1.00  0.00     0.187 HD
HETATM   19  C   UNK N   1      37.340  12.747   9.367  0.00  0.00     0.130 A 
ENDBRANCH  12  13
ENDBRANCH   6  12
BRANCH   8  20
HETATM   20  C   UNK N   1      36.662  13.975  14.200  0.00  0.00     0.160 C 
HETATM   21  O   UNK N   1      36.323  14.962  13.567  0.00  0.00    -0.649 OA
BRANCH  20  22
HETATM   22  O   UNK N   1      37.534  14.103  15.217  0.00  0.00    -0.775 OA
HETATM   23  H   UNK N   1      38.325  13.600  15.242  0.00  0.00     0.167 HD
ENDBRANCH  20  22
ENDBRANCH   8  20
TORSDOF 4
ENDMDL
MODEL 8
REMARK VINA RESULT:      -5.3     15.273     17.317
REMARK  4 active torsions:
REMARK  status: ('A' for Active; 'I' for Inactive)
REMARK    1  A    between atoms: O_5  and  C_20 
REMARK    2  A    between atoms: N_8  and  C_18 
REMARK    3  A    between atoms: C_13  and  C_18 
REMARK    4  A    between atoms: C_15  and  C_20 
ROOT
HETATM    1  S   UNK N   1      32.924  14.669   5.921  0.00  0.00     0.174 S 
HETATM    2  O   UNK N   1      32.388  14.481   4.494  0.00  0.00    -0.225 OA
HETATM    3  O   UNK N   1      32.197  13.607   6.762  0.00  0.00    -0.225 OA
HETATM    4  O   UNK N   1      35.537  14.607   9.077  0.00  0.00    -0.280 OA
HETATM    5  N   UNK N   1      35.017  15.424   7.044  0.00  0.00    -0.218 NA
HETATM    6  C   UNK N   1      32.756  16.342   6.594  0.00  0.00     0.106 C 
HETATM    7  C   UNK N   1      34.709  14.459   6.033  0.00  0.00     0.198 A 
HETATM    8  C   UNK N   1      34.010  16.380   7.483  0.00  0.00     0.189 C 
HETATM    9  C   UNK N   1      35.318  13.334   7.003  0.00  0.00     0.132 A 
HETATM   10  C   UNK N   1      35.526  14.534   7.857  0.00  0.00     0.204 A 
HETATM   11  C   UNK N   1      32.930  17.360   5.470  0.00  0.00     0.036 C 
ENDROOT
BRANCH   6  12
HETATM   12  C   UNK N   1      31.486  16.531   7.439  0.00  0.00     0.177 C 
BRANCH  12  13
HETATM   13  N   UNK N   1      30.262  16.557   6.646  0.00  0.00    -0.286 N 
HETATM   14  N   UNK N   1      29.834  15.537   5.926  0.00  0.00    -0.241 N 
HETATM   15  N   UNK N   1      28.695  15.851   5.331  0.00  0.00    -0.296 N 
ATOM     16  HN  UNK N   1      30.311  14.640   5.841  1.00  0.00     0.208 HD
HETATM   17  C   UNK N   1      28.384  17.118   5.682  0.00  0.00     0.127 A 
ATOM     18  HN  UNK N   1      28.150  15.245   4.719  1.00  0.00     0.187 HD
HETATM   19  C   UNK N   1      29.387  17.571   6.523  0.00  0.00     0.130 A 
ENDBRANCH  12  13
ENDBRANCH   6  12
BRANCH   8  20
HETATM   20  C   UNK N   1      34.428  17.562   8.312  0.00  0.00     0.160 C 
HETATM   21  O   UNK N   1      34.799  18.590   7.767  0.00  0.00    -0.649 OA
BRANCH  20  22
HETATM   22  O   UNK N   1      34.360  17.508   9.654  0.00  0.00    -0.775 OA
HETATM   23  H   UNK N   1      34.058  18.242  10.153  0.00  0.00     0.167 HD
ENDBRANCH  20  22
ENDBRANCH   8  20
TORSDOF 4
ENDMDL
MODEL 9
REMARK VINA RESULT:      -5.3     12.533     14.355
REMARK  4 active torsions:
REMARK  status: ('A' for Active; 'I' for Inactive)
REMARK    1  A    between atoms: O_5  and  C_20 
REMARK    2  A    between atoms: N_8  and  C_18 
REMARK    3  A    between atoms: C_13  and  C_18 
REMARK    4  A    between atoms: C_15  and  C_20 
ROOT
HETATM    1  S   UNK N   1      21.426  17.292   5.678  0.00  0.00     0.174 S 
HETATM    2  O   UNK N   1      21.604  18.346   6.781  0.00  0.00    -0.225 OA
HETATM    3  O   UNK N   1      22.447  16.192   6.012  0.00  0.00    -0.225 OA
HETATM    4  O   UNK N   1      19.708  14.286   3.485  0.00  0.00    -0.280 OA
HETATM    5  N   UNK N   1      19.614  16.416   4.208  0.00  0.00    -0.218 NA
HETATM    6  C   UNK N   1      21.581  17.912   3.984  0.00  0.00     0.106 C 
HETATM    7  C   UNK N   1      19.759  16.615   5.618  0.00  0.00     0.198 A 
HETATM    8  C   UNK N   1      20.593  16.967   3.281  0.00  0.00     0.189 C 
HETATM    9  C   UNK N   1      19.533  15.036   5.804  0.00  0.00     0.132 A 
HETATM   10  C   UNK N   1      19.421  15.127   4.323  0.00  0.00     0.204 A 
HETATM   11  C   UNK N   1      21.025  19.332   3.912  0.00  0.00     0.036 C 
ENDROOT
BRANCH   6  12
HETATM   12  C   UNK N   1      22.996  17.748   3.405  0.00  0.00     0.177 C 
BRANCH  12  13
HETATM   13  N   UNK N   1      23.983  18.620   4.031  0.00  0.00    -0.286 N 
HETATM   14  N   UNK N   1      24.431  18.454   5.261  0.00  0.00    -0.241 N 
HETATM   15  N   UNK N   1      25.324  19.386   5.546  0.00  0.00    -0.296 N 
ATOM     16  HN  UNK N   1      24.133  17.715   5.898  1.00  0.00     0.208 HD
HETATM   17  C   UNK N   1      25.451  20.179   4.460  0.00  0.00     0.127 A 
ATOM     18  HN  UNK N   1      25.828  19.488   6.427  1.00  0.00     0.187 HD
HETATM   19  C   UNK N   1      24.591  19.690   3.490  0.00  0.00     0.130 A 
ENDBRANCH  12  13
ENDBRANCH   6  12
BRANCH   8  20
HETATM   20  C   UNK N   1      20.274  17.011   1.812  0.00  0.00     0.160 C 
HETATM   21  O   UNK N   1      20.901  16.314   1.031  0.00  0.00    -0.649 OA
BRANCH  20  22
HETATM   22  O   UNK N   1      19.274  17.787   1.358  0.00  0.00    -0.775 OA
HETATM   23  H   UNK N   1      18.394  17.668   1.660  0.00  0.00     0.167 HD
ENDBRANCH  20  22
ENDBRANCH   8  20
TORSDOF 4
ENDMDL
