REMARK  4 active torsions:
REMARK  status: ('A' for Active; 'I' for Inactive)
REMARK    1  A    between atoms: N_8  and  N_3 
REMARK    2  A    between atoms: C_14  and  N_4 
REMARK    3  A    between atoms: C_17  and  C_6 
REMARK    4  A    between atoms: C_13  and  C_12 
ROOT
HETATM    1  C   UNK N   1       5.581  -8.361   0.000  0.00  0.00     0.086 A 
HETATM    2  O   UNK N   1       6.683  -9.053   0.000  0.00  0.00    -0.309 OA
HETATM    3  C   UNK N   1       5.876  -7.005  -0.000  0.00  0.00     0.041 A 
HETATM    4  C   UNK N   1       7.702  -8.250   0.000  0.00  0.00     0.093 A 
HETATM    5  C   UNK N   1       7.271  -6.933  -0.000  0.00  0.00     0.041 A 
ENDROOT
BRANCH   4   6
HETATM    6  C   UNK N   1       9.054  -8.798   0.000  0.00  0.00     0.144 C 
HETATM    7  N   UNK N   1      10.132  -8.103  -0.000  0.00  0.00    -0.303 N 
ATOM      8  HN  UNK N   1      10.079  -7.085  -0.000  1.00  0.00     0.186 HD
BRANCH   7   9
HETATM    9  N   UNK N   1      11.367  -8.729  -0.000  0.00  0.00    -0.234 N 
HETATM   10  C   UNK N   1      11.589 -10.067   0.000  0.00  0.00     0.344 A 
HETATM   11  N   UNK N   1      12.885 -10.372  -0.000  0.00  0.00    -0.276 N 
HETATM   12  O   UNK N   1      10.711 -10.917   0.000  0.00  0.00    -0.245 OA
HETATM   13  C   UNK N   1      13.552  -9.206  -0.000  0.00  0.00     0.245 A 
HETATM   14  H   UNK N   1      13.277 -11.275   0.000  0.00  0.00     0.173 HD
HETATM   15  O   UNK N   1      14.770  -9.143  -0.000  0.00  0.00    -0.271 OA
HETATM   16  C   UNK N   1      12.624  -8.011  -0.000  0.00  0.00     0.257 A 
ENDBRANCH   7   9
ENDBRANCH   4   6
BRANCH   1  17
HETATM   17  C   UNK N   1       4.277  -9.033   0.000  0.00  0.00    -0.002 A 
HETATM   18  C   UNK N   1       4.276 -10.432   0.000  0.00  0.00     0.017 A 
HETATM   19  C   UNK N   1       3.084 -11.143   0.000  0.00  0.00     0.037 A 
HETATM   20  C   UNK N   1       1.861 -10.465  -0.000  0.00  0.00     0.102 A 
HETATM   21  C   UNK N   1       1.853  -9.057  -0.000  0.00  0.00     0.037 A 
HETATM   22  C   UNK N   1       3.060  -8.340  -0.000  0.00  0.00     0.017 A 
BRANCH  20  23
HETATM   23  N   UNK N   1       0.645 -11.203  -0.000  0.00  0.00    -0.116 N 
HETATM   24  O   UNK N   1      -0.511 -10.575  -0.000  0.00  0.00    -0.532 OA
HETATM   25  O   UNK N   1       0.665 -12.397   0.000  0.00  0.00    -0.532 OA
ENDBRANCH  20  23
ENDBRANCH   1  17
TORSDOF 4
