REMARK  5 active torsions:
REMARK  status: ('A' for Active; 'I' for Inactive)
REMARK    1  A    between atoms: C_6  and  N_26 
REMARK    2  A    between atoms: C_7  and  O_11 
REMARK    3  A    between atoms: C_8  and  O_12 
REMARK    4  A    between atoms: C_9  and  O_13 
REMARK    5  A    between atoms: C_17  and  O_24 
REMARK       I    between atoms: N_26  and  C_27 
ROOT
HETATM    1  C   UNK N   1      -1.296   2.716  -0.411  0.00  0.00     0.042 C 
HETATM    2  C   UNK N   1      -0.072   1.929  -0.270  0.00  0.00    -0.041 A 
HETATM    3  C   UNK N   1      -0.060   0.513  -0.118  0.00  0.00     0.017 A 
HETATM    4  C   UNK N   1      -2.029   2.550   0.871  0.00  0.00     0.034 C 
HETATM    5  C   UNK N   1      -2.693   0.114   0.241  0.00  0.00    -0.020 A 
HETATM    6  C   UNK N   1      -3.093   1.528   0.632  0.00  0.00     0.119 C 
HETATM    7  C   UNK N   1       1.248  -0.109  -0.012  0.00  0.00     0.116 A 
HETATM    8  C   UNK N   1       2.441   0.683  -0.068  0.00  0.00     0.136 A 
HETATM    9  C   UNK N   1       2.348   2.067  -0.176  0.00  0.00     0.104 A 
HETATM   10  C   UNK N   1       1.103   2.667  -0.282  0.00  0.00     0.047 A 
HETATM   11  C   UNK N   1      -1.354  -0.352  -0.063  0.00  0.00    -0.014 A 
HETATM   12  C   UNK N   1      -1.129  -1.707  -0.325  0.00  0.00     0.016 A 
HETATM   13  C   UNK N   1      -1.885  -2.863  -0.357  0.00  0.00     0.042 A 
HETATM   14  C   UNK N   1      -3.239  -3.069  -0.144  0.00  0.00     0.118 A 
HETATM   15  C   UNK N   1      -4.141  -2.051   0.141  0.00  0.00     0.205 A 
HETATM   16  C   UNK N   1      -3.824  -0.710   0.295  0.00  0.00     0.068 A 
HETATM   17  O   UNK N   1      -5.312  -2.354   0.290  0.00  0.00    -0.285 OA
ENDROOT
BRANCH   6  18
HETATM   18  N   UNK N   1      -4.089   2.069  -0.271  0.00  0.00    -0.353 N 
HETATM   19  C   UNK N   1      -5.354   2.332   0.137  0.00  0.00     0.214 C 
HETATM   20  C   UNK N   1      -6.327   2.927  -0.820  0.00  0.00     0.117 C 
HETATM   21  O   UNK N   1      -5.703   2.091   1.283  0.00  0.00    -0.274 OA
HETATM   22  H   UNK N   1      -3.840   2.249  -1.206  0.00  0.00     0.163 HD
ENDBRANCH   6  18
BRANCH  14  23
HETATM   23  O   UNK N   1      -3.729  -4.337  -0.206  0.00  0.00    -0.352 OA
HETATM   24  C   UNK N   1      -2.945  -5.459  -0.374  0.00  0.00     0.210 C 
ENDBRANCH  14  23
BRANCH   7  25
HETATM   25  O   UNK N   1       1.338  -1.446   0.181  0.00  0.00    -0.352 OA
HETATM   26  C   UNK N   1       1.951  -1.990   1.288  0.00  0.00     0.210 C 
ENDBRANCH   7  25
BRANCH   9  27
HETATM   27  O   UNK N   1       3.483   2.810  -0.188  0.00  0.00    -0.353 OA
HETATM   28  C   UNK N   1       3.490   4.187  -0.237  0.00  0.00     0.210 C 
ENDBRANCH   9  27
BRANCH   8  29
HETATM   29  O   UNK N   1       3.696   0.156  -0.030  0.00  0.00    -0.351 OA
HETATM   30  C   UNK N   1       4.046  -1.108  -0.446  0.00  0.00     0.210 C 
ENDBRANCH   8  29
TORSDOF 5
