MODEL 1
REMARK VINA RESULT:      -5.8      0.000      0.000
REMARK  8 active torsions:
REMARK  status: ('A' for Active; 'I' for Inactive)
REMARK       I    between atoms: N_2  and  C_1 
REMARK    1  A    between atoms: C_5  and  N_2 
REMARK    2  A    between atoms: N_4  and  C_9 
REMARK    3  A    between atoms: C_16  and  N_4 
REMARK    4  A    between atoms: O_6  and  C_8 
REMARK    5  A    between atoms: C_10  and  O_6 
REMARK    6  A    between atoms: C_7  and  C_10 
REMARK    7  A    between atoms: C_9  and  C_7 
REMARK    8  A    between atoms: O_15  and  C_7 
ROOT
HETATM    1  C   UNK N   1      25.891  19.111   4.065  0.00  0.00     0.034 A 
HETATM    2  C   UNK N   1      23.550  20.216   2.966  0.00  0.00     0.069 A 
HETATM    3  C   UNK N   1      24.632  18.612   4.434  0.00  0.00     0.032 A 
HETATM    4  C   UNK N   1      25.960  20.161   3.141  0.00  0.00     0.032 A 
HETATM    5  C   UNK N   1      23.463  19.163   3.893  0.00  0.00     0.039 A 
HETATM    6  C   UNK N   1      24.802  20.705   2.596  0.00  0.00     0.039 A 
ENDROOT
BRANCH   2   7
HETATM    7  O   UNK N   1      22.461  20.779   2.405  0.00  0.00    -0.349 OA
BRANCH   7   8
HETATM    8  C   UNK N   1      21.171  20.657   2.863  0.00  0.00     0.209 C 
BRANCH   8   9
HETATM    9  C   UNK N   1      20.374  19.899   1.812  0.00  0.00     0.159 C 
BRANCH   9  10
HETATM   10  C   UNK N   1      20.402  18.405   2.096  0.00  0.00     0.147 C 
BRANCH  10  11
HETATM   11  N   UNK N   1      19.313  17.750   1.389  0.00  0.00    -0.415 N 
HETATM   12  H   UNK N   1      18.318  17.930   1.514  0.00  0.00     0.153 HD
BRANCH  11  13
HETATM   13  C   UNK N   1      19.907  16.791   0.471  0.00  0.00     0.068 C 
HETATM   14  C   UNK N   1      18.805  16.016  -0.216  0.00  0.00     0.031 C 
HETATM   15  C   UNK N   1      20.801  15.823   1.228  0.00  0.00     0.031 C 
ENDBRANCH  11  13
ENDBRANCH  10  11
ENDBRANCH   9  10
BRANCH   9  16
HETATM   16  O   UNK N   1      20.888  20.152   0.540  0.00  0.00    -0.392 OA
HETATM   17  H   UNK N   1      20.564  19.692  -0.249  0.00  0.00     0.210 HD
ENDBRANCH   9  16
ENDBRANCH   8   9
ENDBRANCH   7   8
ENDBRANCH   2   7
BRANCH   1  18
HETATM   18  N   UNK N   1      27.060  18.524   4.631  0.00  0.00    -0.328 N 
HETATM   19  C   UNK N   1      27.786  18.981   5.694  0.00  0.00     0.218 C 
HETATM   20  O   UNK N   1      28.778  18.367   6.039  0.00  0.00    -0.274 OA
HETATM   21  C   UNK N   1      27.405  20.205   6.468  0.00  0.00     0.117 C 
HETATM   22  H   UNK N   1      27.383  17.695   4.207  0.00  0.00     0.169 HD
ENDBRANCH   1  18
TORSDOF 8
ENDMDL
MODEL 2
REMARK VINA RESULT:      -5.7      5.950      8.862
REMARK  8 active torsions:
REMARK  status: ('A' for Active; 'I' for Inactive)
REMARK       I    between atoms: N_2  and  C_1 
REMARK    1  A    between atoms: C_5  and  N_2 
REMARK    2  A    between atoms: N_4  and  C_9 
REMARK    3  A    between atoms: C_16  and  N_4 
REMARK    4  A    between atoms: O_6  and  C_8 
REMARK    5  A    between atoms: C_10  and  O_6 
REMARK    6  A    between atoms: C_7  and  C_10 
REMARK    7  A    between atoms: C_9  and  C_7 
REMARK    8  A    between atoms: O_15  and  C_7 
ROOT
HETATM    1  C   UNK N   1      32.967  17.664   8.023  0.00  0.00     0.034 A 
HETATM    2  C   UNK N   1      30.751  17.187   6.356  0.00  0.00     0.069 A 
HETATM    3  C   UNK N   1      33.154  17.371   6.663  0.00  0.00     0.032 A 
HETATM    4  C   UNK N   1      31.662  17.718   8.531  0.00  0.00     0.032 A 
HETATM    5  C   UNK N   1      32.054  17.127   5.830  0.00  0.00     0.039 A 
HETATM    6  C   UNK N   1      30.568  17.484   7.705  0.00  0.00     0.039 A 
ENDROOT
BRANCH   2   7
HETATM    7  O   UNK N   1      29.656  16.971   5.602  0.00  0.00    -0.349 OA
BRANCH   7   8
HETATM    8  C   UNK N   1      28.734  15.970   5.796  0.00  0.00     0.209 C 
BRANCH   8   9
HETATM    9  C   UNK N   1      27.368  16.620   5.960  0.00  0.00     0.159 C 
BRANCH   9  10
HETATM   10  C   UNK N   1      27.302  17.926   5.184  0.00  0.00     0.147 C 
BRANCH  10  11
HETATM   11  N   UNK N   1      27.529  19.045   6.084  0.00  0.00    -0.415 N 
HETATM   12  H   UNK N   1      28.126  19.044   6.910  0.00  0.00     0.153 HD
BRANCH  11  13
HETATM   13  C   UNK N   1      26.747  20.166   5.587  0.00  0.00     0.068 C 
HETATM   14  C   UNK N   1      26.919  20.265   4.088  0.00  0.00     0.031 C 
HETATM   15  C   UNK N   1      27.218  21.461   6.229  0.00  0.00     0.031 C 
ENDBRANCH  11  13
ENDBRANCH  10  11
ENDBRANCH   9  10
BRANCH   9  16
HETATM   16  O   UNK N   1      27.104  16.854   7.310  0.00  0.00    -0.392 OA
HETATM   17  H   UNK N   1      26.774  16.159   7.901  0.00  0.00     0.210 HD
ENDBRANCH   9  16
ENDBRANCH   8   9
ENDBRANCH   7   8
ENDBRANCH   2   7
BRANCH   1  18
HETATM   18  N   UNK N   1      34.107  17.912   8.841  0.00  0.00    -0.328 N 
HETATM   19  C   UNK N   1      34.773  17.017   9.627  0.00  0.00     0.218 C 
HETATM   20  O   UNK N   1      35.723  17.399  10.284  0.00  0.00    -0.274 OA
HETATM   21  C   UNK N   1      34.393  15.570   9.709  0.00  0.00     0.117 C 
HETATM   22  H   UNK N   1      34.454  18.834   8.840  0.00  0.00     0.169 HD
ENDBRANCH   1  18
TORSDOF 8
ENDMDL
MODEL 3
REMARK VINA RESULT:      -5.7      6.762     10.298
REMARK  8 active torsions:
REMARK  status: ('A' for Active; 'I' for Inactive)
REMARK       I    between atoms: N_2  and  C_1 
REMARK    1  A    between atoms: C_5  and  N_2 
REMARK    2  A    between atoms: N_4  and  C_9 
REMARK    3  A    between atoms: C_16  and  N_4 
REMARK    4  A    between atoms: O_6  and  C_8 
REMARK    5  A    between atoms: C_10  and  O_6 
REMARK    6  A    between atoms: C_7  and  C_10 
REMARK    7  A    between atoms: C_9  and  C_7 
REMARK    8  A    between atoms: O_15  and  C_7 
ROOT
HETATM    1  C   UNK N   1      34.278  16.007   8.746  0.00  0.00     0.034 A 
HETATM    2  C   UNK N   1      31.869  17.384   8.288  0.00  0.00     0.069 A 
HETATM    3  C   UNK N   1      33.049  15.341   8.868  0.00  0.00     0.032 A 
HETATM    4  C   UNK N   1      34.283  17.362   8.390  0.00  0.00     0.032 A 
HETATM    5  C   UNK N   1      31.845  16.025   8.646  0.00  0.00     0.039 A 
HETATM    6  C   UNK N   1      33.091  18.041   8.161  0.00  0.00     0.039 A 
ENDROOT
BRANCH   2   7
HETATM    7  O   UNK N   1      30.745  18.090   8.053  0.00  0.00    -0.349 OA
BRANCH   7   8
HETATM    8  C   UNK N   1      29.802  18.432   8.994  0.00  0.00     0.209 C 
BRANCH   8   9
HETATM    9  C   UNK N   1      28.474  17.829   8.563  0.00  0.00     0.159 C 
BRANCH   9  10
HETATM   10  C   UNK N   1      28.174  18.179   7.114  0.00  0.00     0.147 C 
BRANCH  10  11
HETATM   11  N   UNK N   1      27.215  19.270   7.059  0.00  0.00    -0.415 N 
HETATM   12  H   UNK N   1      26.309  19.301   7.525  0.00  0.00     0.153 HD
BRANCH  11  13
HETATM   13  C   UNK N   1      27.786  20.309   6.217  0.00  0.00     0.068 C 
HETATM   14  C   UNK N   1      26.887  21.524   6.251  0.00  0.00     0.031 C 
HETATM   15  C   UNK N   1      27.907  19.817   4.785  0.00  0.00     0.031 C 
ENDBRANCH  11  13
ENDBRANCH  10  11
ENDBRANCH   9  10
BRANCH   9  16
HETATM   16  O   UNK N   1      27.445  18.289   9.386  0.00  0.00    -0.392 OA
HETATM   17  H   UNK N   1      27.238  19.232   9.477  0.00  0.00     0.210 HD
ENDBRANCH   9  16
ENDBRANCH   8   9
ENDBRANCH   7   8
ENDBRANCH   2   7
BRANCH   1  18
HETATM   18  N   UNK N   1      35.483  15.282   8.973  0.00  0.00    -0.328 N 
HETATM   19  C   UNK N   1      36.198  15.204  10.134  0.00  0.00     0.218 C 
HETATM   20  O   UNK N   1      37.225  14.552  10.154  0.00  0.00    -0.274 OA
HETATM   21  C   UNK N   1      35.764  15.879  11.399  0.00  0.00     0.117 C 
HETATM   22  H   UNK N   1      35.843  14.779   8.206  0.00  0.00     0.169 HD
ENDBRANCH   1  18
TORSDOF 8
ENDMDL
MODEL 4
REMARK VINA RESULT:      -5.7     11.002     12.505
REMARK  8 active torsions:
REMARK  status: ('A' for Active; 'I' for Inactive)
REMARK       I    between atoms: N_2  and  C_1 
REMARK    1  A    between atoms: C_5  and  N_2 
REMARK    2  A    between atoms: N_4  and  C_9 
REMARK    3  A    between atoms: C_16  and  N_4 
REMARK    4  A    between atoms: O_6  and  C_8 
REMARK    5  A    between atoms: C_10  and  O_6 
REMARK    6  A    between atoms: C_7  and  C_10 
REMARK    7  A    between atoms: C_9  and  C_7 
REMARK    8  A    between atoms: O_15  and  C_7 
ROOT
HETATM    1  C   UNK N   1      25.846  27.696  -3.900  0.00  0.00     0.034 A 
HETATM    2  C   UNK N   1      25.603  25.166  -5.106  0.00  0.00     0.069 A 
HETATM    3  C   UNK N   1      25.141  27.551  -5.105  0.00  0.00     0.032 A 
HETATM    4  C   UNK N   1      26.421  26.562  -3.311  0.00  0.00     0.032 A 
HETATM    5  C   UNK N   1      25.021  26.294  -5.712  0.00  0.00     0.039 A 
HETATM    6  C   UNK N   1      26.297  25.312  -3.907  0.00  0.00     0.039 A 
ENDROOT
BRANCH   2   7
HETATM    7  O   UNK N   1      25.512  23.931  -5.637  0.00  0.00    -0.349 OA
BRANCH   7   8
HETATM    8  C   UNK N   1      26.523  23.263  -6.288  0.00  0.00     0.209 C 
BRANCH   8   9
HETATM    9  C   UNK N   1      25.888  22.380  -7.351  0.00  0.00     0.159 C 
BRANCH   9  10
HETATM   10  C   UNK N   1      25.861  23.097  -8.693  0.00  0.00     0.147 C 
BRANCH  10  11
HETATM   11  N   UNK N   1      24.945  24.224  -8.631  0.00  0.00    -0.415 N 
HETATM   12  H   UNK N   1      24.098  24.283  -8.066  0.00  0.00     0.153 HD
BRANCH  11  13
HETATM   13  C   UNK N   1      25.461  25.251  -9.520  0.00  0.00     0.068 C 
HETATM   14  C   UNK N   1      25.765  24.634 -10.867  0.00  0.00     0.031 C 
HETATM   15  C   UNK N   1      26.734  25.852  -8.948  0.00  0.00     0.031 C 
ENDBRANCH  11  13
ENDBRANCH  10  11
ENDBRANCH   9  10
BRANCH   9  16
HETATM   16  O   UNK N   1      24.592  22.026  -6.975  0.00  0.00    -0.392 OA
HETATM   17  H   UNK N   1      24.241  22.212  -6.090  0.00  0.00     0.210 HD
ENDBRANCH   9  16
ENDBRANCH   8   9
ENDBRANCH   7   8
ENDBRANCH   2   7
BRANCH   1  18
HETATM   18  N   UNK N   1      25.945  28.988  -3.307  0.00  0.00    -0.328 N 
HETATM   19  C   UNK N   1      26.742  30.024  -3.704  0.00  0.00     0.218 C 
HETATM   20  O   UNK N   1      26.720  31.062  -3.070  0.00  0.00    -0.274 OA
HETATM   21  C   UNK N   1      27.638  29.943  -4.901  0.00  0.00     0.117 C 
HETATM   22  H   UNK N   1      25.374  29.153  -2.522  0.00  0.00     0.169 HD
ENDBRANCH   1  18
TORSDOF 8
ENDMDL
MODEL 5
REMARK VINA RESULT:      -5.6     12.028     16.689
REMARK  8 active torsions:
REMARK  status: ('A' for Active; 'I' for Inactive)
REMARK       I    between atoms: N_2  and  C_1 
REMARK    1  A    between atoms: C_5  and  N_2 
REMARK    2  A    between atoms: N_4  and  C_9 
REMARK    3  A    between atoms: C_16  and  N_4 
REMARK    4  A    between atoms: O_6  and  C_8 
REMARK    5  A    between atoms: C_10  and  O_6 
REMARK    6  A    between atoms: C_7  and  C_10 
REMARK    7  A    between atoms: C_9  and  C_7 
REMARK    8  A    between atoms: O_15  and  C_7 
ROOT
HETATM    1  C   UNK N   1      35.396  12.850  15.994  0.00  0.00     0.034 A 
HETATM    2  C   UNK N   1      35.893  13.858  13.415  0.00  0.00     0.069 A 
HETATM    3  C   UNK N   1      34.673  12.365  14.893  0.00  0.00     0.032 A 
HETATM    4  C   UNK N   1      36.368  13.838  15.785  0.00  0.00     0.032 A 
HETATM    5  C   UNK N   1      34.913  12.867  13.607  0.00  0.00     0.039 A 
HETATM    6  C   UNK N   1      36.614  14.333  14.508  0.00  0.00     0.039 A 
ENDROOT
BRANCH   2   7
HETATM    7  O   UNK N   1      36.174  14.371  12.201  0.00  0.00    -0.349 OA
BRANCH   7   8
HETATM    8  C   UNK N   1      35.699  15.563  11.706  0.00  0.00     0.209 C 
BRANCH   8   9
HETATM    9  C   UNK N   1      34.673  15.245  10.630  0.00  0.00     0.159 C 
BRANCH   9  10
HETATM   10  C   UNK N   1      34.566  16.393   9.638  0.00  0.00     0.147 C 
BRANCH  10  11
HETATM   11  N   UNK N   1      33.178  16.576   9.245  0.00  0.00    -0.415 N 
HETATM   12  H   UNK N   1      32.392  15.984   9.512  0.00  0.00     0.153 HD
BRANCH  11  13
HETATM   13  C   UNK N   1      33.118  17.759   8.402  0.00  0.00     0.068 C 
HETATM   14  C   UNK N   1      32.509  17.387   7.069  0.00  0.00     0.031 C 
HETATM   15  C   UNK N   1      34.515  18.313   8.175  0.00  0.00     0.031 C 
ENDBRANCH  11  13
ENDBRANCH  10  11
ENDBRANCH   9  10
BRANCH   9  16
HETATM   16  O   UNK N   1      33.427  14.998  11.208  0.00  0.00    -0.392 OA
HETATM   17  H   UNK N   1      32.697  15.634  11.155  0.00  0.00     0.210 HD
ENDBRANCH   9  16
ENDBRANCH   8   9
ENDBRANCH   7   8
ENDBRANCH   2   7
BRANCH   1  18
HETATM   18  N   UNK N   1      35.131  12.314  17.287  0.00  0.00    -0.328 N 
HETATM   19  C   UNK N   1      35.572  11.127  17.799  0.00  0.00     0.218 C 
HETATM   20  O   UNK N   1      35.234  10.806  18.923  0.00  0.00    -0.274 OA
HETATM   21  C   UNK N   1      36.471  10.201  17.039  0.00  0.00     0.117 C 
HETATM   22  H   UNK N   1      34.565  12.861  17.880  0.00  0.00     0.169 HD
ENDBRANCH   1  18
TORSDOF 8
ENDMDL
MODEL 6
REMARK VINA RESULT:      -5.5     10.746     12.960
REMARK  8 active torsions:
REMARK  status: ('A' for Active; 'I' for Inactive)
REMARK       I    between atoms: N_2  and  C_1 
REMARK    1  A    between atoms: C_5  and  N_2 
REMARK    2  A    between atoms: N_4  and  C_9 
REMARK    3  A    between atoms: C_16  and  N_4 
REMARK    4  A    between atoms: O_6  and  C_8 
REMARK    5  A    between atoms: C_10  and  O_6 
REMARK    6  A    between atoms: C_7  and  C_10 
REMARK    7  A    between atoms: C_9  and  C_7 
REMARK    8  A    between atoms: O_15  and  C_7 
ROOT
HETATM    1  C   UNK N   1      25.585  25.087  -5.315  0.00  0.00     0.034 A 
HETATM    2  C   UNK N   1      25.937  27.412  -3.771  0.00  0.00     0.069 A 
HETATM    3  C   UNK N   1      26.255  25.023  -4.083  0.00  0.00     0.032 A 
HETATM    4  C   UNK N   1      25.094  26.323  -5.757  0.00  0.00     0.032 A 
HETATM    5  C   UNK N   1      26.438  26.180  -3.313  0.00  0.00     0.039 A 
HETATM    6  C   UNK N   1      25.267  27.471  -4.991  0.00  0.00     0.039 A 
ENDROOT
BRANCH   2   7
HETATM    7  O   UNK N   1      26.074  28.554  -3.069  0.00  0.00    -0.349 OA
BRANCH   7   8
HETATM    8  C   UNK N   1      26.664  29.709  -3.526  0.00  0.00     0.209 C 
BRANCH   8   9
HETATM    9  C   UNK N   1      27.885  29.981  -2.661  0.00  0.00     0.159 C 
BRANCH   9  10
HETATM   10  C   UNK N   1      29.121  29.329  -3.261  0.00  0.00     0.147 C 
BRANCH  10  11
HETATM   11  N   UNK N   1      28.921  29.113  -4.685  0.00  0.00    -0.415 N 
HETATM   12  H   UNK N   1      28.350  29.683  -5.307  0.00  0.00     0.153 HD
BRANCH  11  13
HETATM   13  C   UNK N   1      29.687  27.934  -5.057  0.00  0.00     0.068 C 
HETATM   14  C   UNK N   1      28.900  27.130  -6.068  0.00  0.00     0.031 C 
HETATM   15  C   UNK N   1      29.953  27.073  -3.833  0.00  0.00     0.031 C 
ENDBRANCH  11  13
ENDBRANCH  10  11
ENDBRANCH   9  10
BRANCH   9  16
HETATM   16  O   UNK N   1      27.677  29.503  -1.367  0.00  0.00    -0.392 OA
HETATM   17  H   UNK N   1      27.789  30.065  -0.584  0.00  0.00     0.210 HD
ENDBRANCH   9  16
ENDBRANCH   8   9
ENDBRANCH   7   8
ENDBRANCH   2   7
BRANCH   1  18
HETATM   18  N   UNK N   1      25.413  23.891  -6.071  0.00  0.00    -0.328 N 
HETATM   19  C   UNK N   1      26.355  23.233  -6.808  0.00  0.00     0.218 C 
HETATM   20  O   UNK N   1      26.035  22.228  -7.415  0.00  0.00    -0.274 OA
HETATM   21  C   UNK N   1      27.780  23.687  -6.891  0.00  0.00     0.117 C 
HETATM   22  H   UNK N   1      24.511  23.495  -6.062  0.00  0.00     0.169 HD
ENDBRANCH   1  18
TORSDOF 8
ENDMDL
MODEL 7
REMARK VINA RESULT:      -5.5      8.880     14.802
REMARK  8 active torsions:
REMARK  status: ('A' for Active; 'I' for Inactive)
REMARK       I    between atoms: N_2  and  C_1 
REMARK    1  A    between atoms: C_5  and  N_2 
REMARK    2  A    between atoms: N_4  and  C_9 
REMARK    3  A    between atoms: C_16  and  N_4 
REMARK    4  A    between atoms: O_6  and  C_8 
REMARK    5  A    between atoms: C_10  and  O_6 
REMARK    6  A    between atoms: C_7  and  C_10 
REMARK    7  A    between atoms: C_9  and  C_7 
REMARK    8  A    between atoms: O_15  and  C_7 
ROOT
HETATM    1  C   UNK N   1      31.577  17.174   8.109  0.00  0.00     0.034 A 
HETATM    2  C   UNK N   1      34.133  16.376   8.970  0.00  0.00     0.069 A 
HETATM    3  C   UNK N   1      32.668  18.047   7.987  0.00  0.00     0.032 A 
HETATM    4  C   UNK N   1      31.783  15.902   8.661  0.00  0.00     0.032 A 
HETATM    5  C   UNK N   1      33.943  17.656   8.420  0.00  0.00     0.039 A 
HETATM    6  C   UNK N   1      33.048  15.509   9.084  0.00  0.00     0.039 A 
ENDROOT
BRANCH   2   7
HETATM    7  O   UNK N   1      35.336  15.942   9.393  0.00  0.00    -0.349 OA
BRANCH   7   8
HETATM    8  C   UNK N   1      35.824  14.664   9.248  0.00  0.00     0.209 C 
BRANCH   8   9
HETATM    9  C   UNK N   1      36.928  14.467  10.274  0.00  0.00     0.159 C 
BRANCH   9  10
HETATM   10  C   UNK N   1      36.407  13.697  11.478  0.00  0.00     0.147 C 
BRANCH  10  11
HETATM   11  N   UNK N   1      36.744  14.408  12.700  0.00  0.00    -0.415 N 
HETATM   12  H   UNK N   1      37.472  15.113  12.807  0.00  0.00     0.153 HD
BRANCH  11  13
HETATM   13  C   UNK N   1      35.850  13.928  13.742  0.00  0.00     0.068 C 
HETATM   14  C   UNK N   1      36.656  13.622  14.985  0.00  0.00     0.031 C 
HETATM   15  C   UNK N   1      35.140  12.664  13.284  0.00  0.00     0.031 C 
ENDBRANCH  11  13
ENDBRANCH  10  11
ENDBRANCH   9  10
BRANCH   9  16
HETATM   16  O   UNK N   1      37.434  15.702  10.682  0.00  0.00    -0.392 OA
HETATM   17  H   UNK N   1      37.322  16.507  10.154  0.00  0.00     0.210 HD
ENDBRANCH   9  16
ENDBRANCH   8   9
ENDBRANCH   7   8
ENDBRANCH   2   7
BRANCH   1  18
HETATM   18  N   UNK N   1      30.295  17.601   7.655  0.00  0.00    -0.328 N 
HETATM   19  C   UNK N   1      29.312  18.198   8.390  0.00  0.00     0.218 C 
HETATM   20  O   UNK N   1      28.260  18.484   7.849  0.00  0.00    -0.274 OA
HETATM   21  C   UNK N   1      29.475  18.533   9.842  0.00  0.00     0.117 C 
HETATM   22  H   UNK N   1      30.095  17.448   6.702  0.00  0.00     0.169 HD
ENDBRANCH   1  18
TORSDOF 8
ENDMDL
MODEL 8
REMARK VINA RESULT:      -5.3      9.930     11.340
REMARK  8 active torsions:
REMARK  status: ('A' for Active; 'I' for Inactive)
REMARK       I    between atoms: N_2  and  C_1 
REMARK    1  A    between atoms: C_5  and  N_2 
REMARK    2  A    between atoms: N_4  and  C_9 
REMARK    3  A    between atoms: C_16  and  N_4 
REMARK    4  A    between atoms: O_6  and  C_8 
REMARK    5  A    between atoms: C_10  and  O_6 
REMARK    6  A    between atoms: C_7  and  C_10 
REMARK    7  A    between atoms: C_9  and  C_7 
REMARK    8  A    between atoms: O_15  and  C_7 
ROOT
HETATM    1  C   UNK N   1      31.665  20.828  -3.959  0.00  0.00     0.034 A 
HETATM    2  C   UNK N   1      29.869  22.993  -3.959  0.00  0.00     0.069 A 
HETATM    3  C   UNK N   1      31.578  21.676  -2.844  0.00  0.00     0.032 A 
HETATM    4  C   UNK N   1      30.841  21.077  -5.065  0.00  0.00     0.032 A 
HETATM    5  C   UNK N   1      30.689  22.759  -2.841  0.00  0.00     0.039 A 
HETATM    6  C   UNK N   1      29.952  22.146  -5.062  0.00  0.00     0.039 A 
ENDROOT
BRANCH   2   7
HETATM    7  O   UNK N   1      28.988  24.012  -4.009  0.00  0.00    -0.349 OA
BRANCH   7   8
HETATM    8  C   UNK N   1      27.857  24.055  -4.791  0.00  0.00     0.209 C 
BRANCH   8   9
HETATM    9  C   UNK N   1      26.669  24.311  -3.876  0.00  0.00     0.159 C 
BRANCH   9  10
HETATM   10  C   UNK N   1      26.291  25.785  -3.892  0.00  0.00     0.147 C 
BRANCH  10  11
HETATM   11  N   UNK N   1      27.489  26.599  -4.013  0.00  0.00    -0.415 N 
HETATM   12  H   UNK N   1      28.436  26.321  -3.759  0.00  0.00     0.153 HD
BRANCH  11  13
HETATM   13  C   UNK N   1      27.086  27.884  -4.562  0.00  0.00     0.068 C 
HETATM   14  C   UNK N   1      25.844  28.363  -3.844  0.00  0.00     0.031 C 
HETATM   15  C   UNK N   1      26.784  27.749  -6.045  0.00  0.00     0.031 C 
ENDBRANCH  11  13
ENDBRANCH  10  11
ENDBRANCH   9  10
BRANCH   9  16
HETATM   16  O   UNK N   1      26.967  23.911  -2.573  0.00  0.00    -0.392 OA
HETATM   17  H   UNK N   1      26.445  24.203  -1.810  0.00  0.00     0.210 HD
ENDBRANCH   9  16
ENDBRANCH   8   9
ENDBRANCH   7   8
ENDBRANCH   2   7
BRANCH   1  18
HETATM   18  N   UNK N   1      32.577  19.733  -3.927  0.00  0.00    -0.328 N 
HETATM   19  C   UNK N   1      33.937  19.784  -4.035  0.00  0.00     0.218 C 
HETATM   20  O   UNK N   1      34.571  18.746  -4.008  0.00  0.00    -0.274 OA
HETATM   21  C   UNK N   1      34.691  21.071  -4.172  0.00  0.00     0.117 C 
HETATM   22  H   UNK N   1      32.181  18.838  -3.815  0.00  0.00     0.169 HD
ENDBRANCH   1  18
TORSDOF 8
ENDMDL
MODEL 9
REMARK VINA RESULT:      -5.3      5.853     11.209
REMARK  8 active torsions:
REMARK  status: ('A' for Active; 'I' for Inactive)
REMARK       I    between atoms: N_2  and  C_1 
REMARK    1  A    between atoms: C_5  and  N_2 
REMARK    2  A    between atoms: N_4  and  C_9 
REMARK    3  A    between atoms: C_16  and  N_4 
REMARK    4  A    between atoms: O_6  and  C_8 
REMARK    5  A    between atoms: C_10  and  O_6 
REMARK    6  A    between atoms: C_7  and  C_10 
REMARK    7  A    between atoms: C_9  and  C_7 
REMARK    8  A    between atoms: O_15  and  C_7 
ROOT
HETATM    1  C   UNK N   1      28.414  18.190   7.000  0.00  0.00     0.034 A 
HETATM    2  C   UNK N   1      30.961  17.616   8.048  0.00  0.00     0.069 A 
HETATM    3  C   UNK N   1      29.332  17.433   6.255  0.00  0.00     0.032 A 
HETATM    4  C   UNK N   1      28.787  18.649   8.270  0.00  0.00     0.032 A 
HETATM    5  C   UNK N   1      30.604  17.148   6.770  0.00  0.00     0.039 A 
HETATM    6  C   UNK N   1      30.046  18.362   8.788  0.00  0.00     0.039 A 
ENDROOT
BRANCH   2   7
HETATM    7  O   UNK N   1      32.165  17.366   8.599  0.00  0.00    -0.349 OA
BRANCH   7   8
HETATM    8  C   UNK N   1      33.346  17.980   8.255  0.00  0.00     0.209 C 
BRANCH   8   9
HETATM    9  C   UNK N   1      34.487  17.125   8.786  0.00  0.00     0.159 C 
BRANCH   9  10
HETATM   10  C   UNK N   1      34.345  15.688   8.306  0.00  0.00     0.147 C 
BRANCH  10  11
HETATM   11  N   UNK N   1      35.057  15.516   7.051  0.00  0.00    -0.415 N 
HETATM   12  H   UNK N   1      36.011  15.814   6.852  0.00  0.00     0.153 HD
BRANCH  11  13
HETATM   13  C   UNK N   1      34.156  14.840   6.131  0.00  0.00     0.068 C 
HETATM   14  C   UNK N   1      33.672  15.829   5.094  0.00  0.00     0.031 C 
HETATM   15  C   UNK N   1      32.960  14.280   6.882  0.00  0.00     0.031 C 
ENDBRANCH  11  13
ENDBRANCH  10  11
ENDBRANCH   9  10
BRANCH   9  16
HETATM   16  O   UNK N   1      34.510  17.161  10.180  0.00  0.00    -0.392 OA
HETATM   17  H   UNK N   1      34.893  17.904  10.672  0.00  0.00     0.210 HD
ENDBRANCH   9  16
ENDBRANCH   8   9
ENDBRANCH   7   8
ENDBRANCH   2   7
BRANCH   1  18
HETATM   18  N   UNK N   1      27.128  18.456   6.448  0.00  0.00    -0.328 N 
HETATM   19  C   UNK N   1      26.743  19.556   5.736  0.00  0.00     0.218 C 
HETATM   20  O   UNK N   1      25.591  19.638   5.352  0.00  0.00    -0.274 OA
HETATM   21  C   UNK N   1      27.684  20.670   5.394  0.00  0.00     0.117 C 
HETATM   22  H   UNK N   1      26.437  17.770   6.597  0.00  0.00     0.169 HD
ENDBRANCH   1  18
TORSDOF 8
ENDMDL
