MODEL 1
REMARK VINA RESULT:      -7.6      0.000      0.000
REMARK  6 active torsions:
REMARK  status: ('A' for Active; 'I' for Inactive)
REMARK    1  A    between atoms: C_1  and  C_5 
REMARK    2  A    between atoms: C_5  and  C_12 
REMARK    3  A    between atoms: C_11  and  C_15 
REMARK    4  A    between atoms: C_12  and  O_16 
REMARK    5  A    between atoms: C_14  and  O_19 
REMARK    6  A    between atoms: C_15  and  C_20 
ROOT
HETATM    1  C   UNK N   1      25.995  16.120   4.490  0.00  0.00     0.160 C 
HETATM    2  C   UNK N   1      27.496  16.213   4.835  0.00  0.00     0.004 C 
HETATM    3  C   UNK N   1      25.428  15.390   5.713  0.00  0.00     0.168 C 
HETATM    4  O   UNK N   1      25.304  17.335   4.523  0.00  0.00    -0.339 OA
HETATM    5  C   UNK N   1      27.471  16.593   6.301  0.00  0.00     0.004 C 
HETATM    6  C   UNK N   1      28.358  17.279   4.095  0.00  0.00     0.045 C 
HETATM    7  C   UNK N   1      28.087  14.799   4.626  0.00  0.00     0.019 C 
HETATM    8  C   UNK N   1      26.356  15.741   6.902  0.00  0.00     0.041 C 
HETATM    9  O   UNK N   1      24.155  15.932   5.927  0.00  0.00    -0.352 OA
HETATM   10  C   UNK N   1      24.029  16.862   4.884  0.00  0.00     0.262 C 
HETATM   11  C   UNK N   1      28.875  16.497   6.973  0.00  0.00    -0.001 C 
HETATM   12  C   UNK N   1      29.623  17.753   4.906  0.00  0.00     0.124 C 
HETATM   13  C   UNK N   1      30.045  16.661   5.928  0.00  0.00     0.035 C 
HETATM   14  C   UNK N   1      28.950  17.600   8.048  0.00  0.00     0.010 C 
HETATM   15  C   UNK N   1      31.430  16.706   6.651  0.00  0.00     0.004 C 
HETATM   16  C   UNK N   1      30.288  17.652   8.783  0.00  0.00     0.036 C 
HETATM   17  C   UNK N   1      31.447  17.664   7.832  0.00  0.00    -0.064 C 
HETATM   18  C   UNK N   1      32.587  16.915   5.690  0.00  0.00    -0.009 C 
HETATM   19  C   UNK N   1      31.676  15.321   7.256  0.00  0.00     0.025 C 
HETATM   20  C   UNK N   1      32.612  18.183   8.259  0.00  0.00     0.058 C 
HETATM   21  C   UNK N   1      33.736  17.475   6.091  0.00  0.00     0.052 C 
HETATM   22  C   UNK N   1      33.839  18.027   7.452  0.00  0.00     0.171 C 
HETATM   23  O   UNK N   1      34.920  18.372   7.896  0.00  0.00    -0.289 OA
ENDROOT
BRANCH   1  24
HETATM   24  C   UNK N   1      25.738  15.436   3.148  0.00  0.00     0.188 C 
HETATM   25  O   UNK N   1      25.981  16.018   2.101  0.00  0.00    -0.292 OA
BRANCH  24  26
HETATM   26  C   UNK N   1      25.198  14.044   3.109  0.00  0.00     0.245 C 
BRANCH  26  27
HETATM   27  O   UNK N   1      25.924  13.281   2.196  0.00  0.00    -0.393 OA
HETATM   28  H   UNK N   1      25.983  12.315   2.137  0.00  0.00     0.209 HD
ENDBRANCH  26  27
ENDBRANCH  24  26
ENDBRANCH   1  24
BRANCH  10  29
HETATM   29  C   UNK N   1      23.025  17.957   5.198  0.00  0.00     0.060 C 
BRANCH  29  30
HETATM   30  C   UNK N   1      22.778  18.806   3.951  0.00  0.00     0.000 C 
HETATM   31  C   UNK N   1      21.341  19.311   3.891  0.00  0.00     0.005 C 
ENDBRANCH  29  30
ENDBRANCH  10  29
BRANCH  12  32
HETATM   32  O   UNK N   1      30.641  18.040   3.997  0.00  0.00    -0.395 OA
HETATM   33  H   UNK N   1      31.582  17.889   4.177  0.00  0.00     0.210 HD
ENDBRANCH  12  32
TORSDOF 6
ENDMDL
MODEL 2
REMARK VINA RESULT:      -7.4     11.683     13.279
REMARK  6 active torsions:
REMARK  status: ('A' for Active; 'I' for Inactive)
REMARK    1  A    between atoms: C_1  and  C_5 
REMARK    2  A    between atoms: C_5  and  C_12 
REMARK    3  A    between atoms: C_11  and  C_15 
REMARK    4  A    between atoms: C_12  and  O_16 
REMARK    5  A    between atoms: C_14  and  O_19 
REMARK    6  A    between atoms: C_15  and  C_20 
ROOT
HETATM    1  C   UNK N   1      27.340  25.359  -5.046  0.00  0.00     0.160 C 
HETATM    2  C   UNK N   1      28.435  24.300  -5.298  0.00  0.00     0.004 C 
HETATM    3  C   UNK N   1      26.608  24.782  -3.828  0.00  0.00     0.168 C 
HETATM    4  O   UNK N   1      27.805  26.585  -4.559  0.00  0.00    -0.339 OA
HETATM    5  C   UNK N   1      28.919  23.992  -3.896  0.00  0.00     0.004 C 
HETATM    6  C   UNK N   1      29.681  24.713  -6.138  0.00  0.00     0.045 C 
HETATM    7  C   UNK N   1      27.732  23.079  -5.935  0.00  0.00     0.019 C 
HETATM    8  C   UNK N   1      27.649  23.938  -3.051  0.00  0.00     0.041 C 
HETATM    9  O   UNK N   1      26.220  25.884  -3.057  0.00  0.00    -0.352 OA
HETATM   10  C   UNK N   1      26.678  26.975  -3.812  0.00  0.00     0.262 C 
HETATM   11  C   UNK N   1      29.858  22.747  -3.843  0.00  0.00    -0.001 C 
HETATM   12  C   UNK N   1      30.974  23.875  -5.815  0.00  0.00     0.124 C 
HETATM   13  C   UNK N   1      30.584  22.493  -5.219  0.00  0.00     0.035 C 
HETATM   14  C   UNK N   1      30.889  22.993  -2.722  0.00  0.00     0.010 C 
HETATM   15  C   UNK N   1      31.623  21.333  -5.089  0.00  0.00     0.004 C 
HETATM   16  C   UNK N   1      31.904  21.863  -2.562  0.00  0.00     0.036 C 
HETATM   17  C   UNK N   1      32.524  21.481  -3.873  0.00  0.00    -0.064 C 
HETATM   18  C   UNK N   1      32.388  21.083  -6.377  0.00  0.00    -0.009 C 
HETATM   19  C   UNK N   1      30.838  20.040  -4.849  0.00  0.00     0.025 C 
HETATM   20  C   UNK N   1      33.731  20.887  -3.855  0.00  0.00     0.058 C 
HETATM   21  C   UNK N   1      33.610  20.536  -6.370  0.00  0.00     0.052 C 
HETATM   22  C   UNK N   1      34.290  20.295  -5.087  0.00  0.00     0.171 C 
HETATM   23  O   UNK N   1      35.315  19.637  -5.047  0.00  0.00    -0.289 OA
ENDROOT
BRANCH   1  24
HETATM   24  C   UNK N   1      26.465  25.608  -6.273  0.00  0.00     0.188 C 
HETATM   25  O   UNK N   1      25.323  25.175  -6.316  0.00  0.00    -0.292 OA
BRANCH  24  26
HETATM   26  C   UNK N   1      27.000  26.394  -7.425  0.00  0.00     0.245 C 
BRANCH  26  27
HETATM   27  O   UNK N   1      27.113  27.737  -7.068  0.00  0.00    -0.393 OA
HETATM   28  H   UNK N   1      26.494  28.459  -7.255  0.00  0.00     0.209 HD
ENDBRANCH  26  27
ENDBRANCH  24  26
ENDBRANCH   1  24
BRANCH  10  29
HETATM   29  C   UNK N   1      26.891  28.219  -2.969  0.00  0.00     0.060 C 
BRANCH  29  30
HETATM   30  C   UNK N   1      26.313  29.438  -3.687  0.00  0.00     0.000 C 
HETATM   31  C   UNK N   1      27.385  30.194  -4.462  0.00  0.00     0.005 C 
ENDBRANCH  29  30
ENDBRANCH  10  29
BRANCH  12  32
HETATM   32  O   UNK N   1      31.715  23.746  -6.990  0.00  0.00    -0.395 OA
HETATM   33  H   UNK N   1      32.575  23.300  -7.040  0.00  0.00     0.210 HD
ENDBRANCH  12  32
TORSDOF 6
ENDMDL
MODEL 3
REMARK VINA RESULT:      -7.3     13.064     15.259
REMARK  6 active torsions:
REMARK  status: ('A' for Active; 'I' for Inactive)
REMARK    1  A    between atoms: C_1  and  C_5 
REMARK    2  A    between atoms: C_5  and  C_12 
REMARK    3  A    between atoms: C_11  and  C_15 
REMARK    4  A    between atoms: C_12  and  O_16 
REMARK    5  A    between atoms: C_14  and  O_19 
REMARK    6  A    between atoms: C_15  and  C_20 
ROOT
HETATM    1  C   UNK N   1      27.099  22.383  -8.049  0.00  0.00     0.160 C 
HETATM    2  C   UNK N   1      26.922  23.721  -7.299  0.00  0.00     0.004 C 
HETATM    3  C   UNK N   1      28.212  22.719  -9.048  0.00  0.00     0.168 C 
HETATM    4  O   UNK N   1      27.676  21.356  -7.296  0.00  0.00    -0.339 OA
HETATM    5  C   UNK N   1      28.353  24.167  -7.086  0.00  0.00     0.004 C 
HETATM    6  C   UNK N   1      26.231  23.698  -5.903  0.00  0.00     0.045 C 
HETATM    7  C   UNK N   1      26.170  24.671  -8.260  0.00  0.00     0.019 C 
HETATM    8  C   UNK N   1      29.060  23.841  -8.399  0.00  0.00     0.041 C 
HETATM    9  O   UNK N   1      28.980  21.555  -9.173  0.00  0.00    -0.352 OA
HETATM   10  C   UNK N   1      28.318  20.649  -8.330  0.00  0.00     0.262 C 
HETATM   11  C   UNK N   1      28.457  25.636  -6.573  0.00  0.00    -0.001 C 
HETATM   12  C   UNK N   1      26.654  24.888  -4.962  0.00  0.00     0.124 C 
HETATM   13  C   UNK N   1      27.154  26.091  -5.809  0.00  0.00     0.035 C 
HETATM   14  C   UNK N   1      29.686  25.717  -5.644  0.00  0.00     0.010 C 
HETATM   15  C   UNK N   1      27.347  27.510  -5.184  0.00  0.00     0.004 C 
HETATM   16  C   UNK N   1      29.907  27.100  -5.036  0.00  0.00     0.036 C 
HETATM   17  C   UNK N   1      28.654  27.645  -4.419  0.00  0.00    -0.064 C 
HETATM   18  C   UNK N   1      26.136  27.972  -4.392  0.00  0.00    -0.009 C 
HETATM   19  C   UNK N   1      27.456  28.508  -6.340  0.00  0.00     0.025 C 
HETATM   20  C   UNK N   1      28.774  28.575  -3.454  0.00  0.00     0.058 C 
HETATM   21  C   UNK N   1      26.249  28.861  -3.397  0.00  0.00     0.052 C 
HETATM   22  C   UNK N   1      27.585  29.301  -2.964  0.00  0.00     0.171 C 
HETATM   23  O   UNK N   1      27.706  30.237  -2.193  0.00  0.00    -0.289 OA
ENDROOT
BRANCH   1  24
HETATM   24  C   UNK N   1      25.798  21.877  -8.670  0.00  0.00     0.188 C 
HETATM   25  O   UNK N   1      25.637  21.911  -9.881  0.00  0.00    -0.292 OA
BRANCH  24  26
HETATM   26  C   UNK N   1      24.718  21.326  -7.798  0.00  0.00     0.245 C 
BRANCH  26  27
HETATM   27  O   UNK N   1      23.531  22.021  -8.021  0.00  0.00    -0.393 OA
HETATM   28  H   UNK N   1      23.138  22.278  -8.870  0.00  0.00     0.209 HD
ENDBRANCH  26  27
ENDBRANCH  24  26
ENDBRANCH   1  24
BRANCH  10  29
HETATM   29  C   UNK N   1      29.224  19.530  -7.850  0.00  0.00     0.060 C 
BRANCH  29  30
HETATM   30  C   UNK N   1      30.609  20.089  -7.526  0.00  0.00     0.000 C 
HETATM   31  C   UNK N   1      30.749  20.420  -6.045  0.00  0.00     0.005 C 
ENDBRANCH  29  30
ENDBRANCH  10  29
BRANCH  12  32
HETATM   32  O   UNK N   1      25.557  25.227  -4.169  0.00  0.00    -0.395 OA
HETATM   33  H   UNK N   1      24.931  24.579  -3.810  0.00  0.00     0.210 HD
ENDBRANCH  12  32
TORSDOF 6
ENDMDL
MODEL 4
REMARK VINA RESULT:      -7.3      4.598     10.121
REMARK  6 active torsions:
REMARK  status: ('A' for Active; 'I' for Inactive)
REMARK    1  A    between atoms: C_1  and  C_5 
REMARK    2  A    between atoms: C_5  and  C_12 
REMARK    3  A    between atoms: C_11  and  C_15 
REMARK    4  A    between atoms: C_12  and  O_16 
REMARK    5  A    between atoms: C_14  and  O_19 
REMARK    6  A    between atoms: C_15  and  C_20 
ROOT
HETATM    1  C   UNK N   1      35.756  14.161  10.000  0.00  0.00     0.160 C 
HETATM    2  C   UNK N   1      34.853  14.517   8.799  0.00  0.00     0.004 C 
HETATM    3  C   UNK N   1      36.146  15.546  10.531  0.00  0.00     0.168 C 
HETATM    4  O   UNK N   1      35.091  13.600  11.094  0.00  0.00    -0.339 OA
HETATM    5  C   UNK N   1      34.010  15.648   9.350  0.00  0.00     0.004 C 
HETATM    6  C   UNK N   1      33.875  13.428   8.265  0.00  0.00     0.045 C 
HETATM    7  C   UNK N   1      35.789  15.006   7.670  0.00  0.00     0.019 C 
HETATM    8  C   UNK N   1      34.986  16.501  10.156  0.00  0.00     0.041 C 
HETATM    9  O   UNK N   1      36.223  15.415  11.922  0.00  0.00    -0.352 OA
HETATM   10  C   UNK N   1      35.928  14.058  12.129  0.00  0.00     0.262 C 
HETATM   11  C   UNK N   1      33.180  16.374   8.247  0.00  0.00    -0.001 C 
HETATM   12  C   UNK N   1      32.602  14.012   7.544  0.00  0.00     0.124 C 
HETATM   13  C   UNK N   1      32.896  15.441   7.008  0.00  0.00     0.035 C 
HETATM   14  C   UNK N   1      31.857  16.837   8.891  0.00  0.00     0.010 C 
HETATM   15  C   UNK N   1      31.944  16.147   5.990  0.00  0.00     0.004 C 
HETATM   16  C   UNK N   1      30.916  17.548   7.921  0.00  0.00     0.036 C 
HETATM   17  C   UNK N   1      30.725  16.766   6.656  0.00  0.00    -0.064 C 
HETATM   18  C   UNK N   1      31.598  15.267   4.801  0.00  0.00    -0.009 C 
HETATM   19  C   UNK N   1      32.712  17.327   5.387  0.00  0.00     0.025 C 
HETATM   20  C   UNK N   1      29.606  16.982   5.940  0.00  0.00     0.058 C 
HETATM   21  C   UNK N   1      30.464  15.440   4.110  0.00  0.00     0.052 C 
HETATM   22  C   UNK N   1      29.463  16.408   4.587  0.00  0.00     0.171 C 
HETATM   23  O   UNK N   1      28.516  16.712   3.883  0.00  0.00    -0.289 OA
ENDROOT
BRANCH   1  24
HETATM   24  C   UNK N   1      36.927  13.261   9.611  0.00  0.00     0.188 C 
HETATM   25  O   UNK N   1      36.737  12.088   9.325  0.00  0.00    -0.292 OA
BRANCH  24  26
HETATM   26  C   UNK N   1      38.314  13.815   9.568  0.00  0.00     0.245 C 
BRANCH  26  27
HETATM   27  O   UNK N   1      39.009  13.436  10.716  0.00  0.00    -0.393 OA
HETATM   28  H   UNK N   1      39.600  13.976  11.263  0.00  0.00     0.209 HD
ENDBRANCH  26  27
ENDBRANCH  24  26
ENDBRANCH   1  24
BRANCH  10  29
HETATM   29  C   UNK N   1      35.400  13.782  13.524  0.00  0.00     0.060 C 
BRANCH  29  30
HETATM   30  C   UNK N   1      36.543  13.319  14.429  0.00  0.00     0.000 C 
HETATM   31  C   UNK N   1      36.963  14.411  15.405  0.00  0.00     0.005 C 
ENDBRANCH  29  30
ENDBRANCH  10  29
BRANCH  12  32
HETATM   32  O   UNK N   1      32.239  13.135   6.522  0.00  0.00    -0.395 OA
HETATM   33  H   UNK N   1      32.397  13.309   5.581  0.00  0.00     0.210 HD
ENDBRANCH  12  32
TORSDOF 6
ENDMDL
MODEL 5
REMARK VINA RESULT:      -7.2     11.706     13.313
REMARK  6 active torsions:
REMARK  status: ('A' for Active; 'I' for Inactive)
REMARK    1  A    between atoms: C_1  and  C_5 
REMARK    2  A    between atoms: C_5  and  C_12 
REMARK    3  A    between atoms: C_11  and  C_15 
REMARK    4  A    between atoms: C_12  and  O_16 
REMARK    5  A    between atoms: C_14  and  O_19 
REMARK    6  A    between atoms: C_15  and  C_20 
ROOT
HETATM    1  C   UNK N   1      28.253  24.791  -4.810  0.00  0.00     0.160 C 
HETATM    2  C   UNK N   1      29.294  23.673  -4.591  0.00  0.00     0.004 C 
HETATM    3  C   UNK N   1      28.850  25.950  -4.003  0.00  0.00     0.168 C 
HETATM    4  O   UNK N   1      28.216  25.319  -6.104  0.00  0.00    -0.339 OA
HETATM    5  C   UNK N   1      30.605  24.417  -4.733  0.00  0.00     0.004 C 
HETATM    6  C   UNK N   1      29.323  22.485  -5.599  0.00  0.00     0.045 C 
HETATM    7  C   UNK N   1      29.091  23.155  -3.148  0.00  0.00     0.019 C 
HETATM    8  C   UNK N   1      30.384  25.736  -3.999  0.00  0.00     0.041 C 
HETATM    9  O   UNK N   1      28.535  27.114  -4.713  0.00  0.00    -0.352 OA
HETATM   10  C   UNK N   1      27.797  26.629  -5.804  0.00  0.00     0.262 C 
HETATM   11  C   UNK N   1      31.834  23.561  -4.296  0.00  0.00    -0.001 C 
HETATM   12  C   UNK N   1      30.728  21.782  -5.717  0.00  0.00     0.124 C 
HETATM   13  C   UNK N   1      31.555  22.014  -4.421  0.00  0.00     0.035 C 
HETATM   14  C   UNK N   1      33.025  23.971  -5.186  0.00  0.00     0.010 C 
HETATM   15  C   UNK N   1      32.848  21.192  -4.116  0.00  0.00     0.004 C 
HETATM   16  C   UNK N   1      34.307  23.194  -4.894  0.00  0.00     0.036 C 
HETATM   17  C   UNK N   1      34.068  21.715  -4.859  0.00  0.00    -0.064 C 
HETATM   18  C   UNK N   1      32.643  19.695  -4.275  0.00  0.00    -0.009 C 
HETATM   19  C   UNK N   1      33.172  21.382  -2.632  0.00  0.00     0.025 C 
HETATM   20  C   UNK N   1      35.109  20.898  -5.098  0.00  0.00     0.058 C 
HETATM   21  C   UNK N   1      33.664  18.877  -4.561  0.00  0.00     0.052 C 
HETATM   22  C   UNK N   1      34.987  19.445  -4.865  0.00  0.00     0.171 C 
HETATM   23  O   UNK N   1      35.964  18.721  -4.948  0.00  0.00    -0.289 OA
ENDROOT
BRANCH   1  24
HETATM   24  C   UNK N   1      26.842  24.373  -4.401  0.00  0.00     0.188 C 
HETATM   25  O   UNK N   1      26.403  24.673  -3.300  0.00  0.00    -0.292 OA
BRANCH  24  26
HETATM   26  C   UNK N   1      25.985  23.604  -5.352  0.00  0.00     0.245 C 
BRANCH  26  27
HETATM   27  O   UNK N   1      25.221  24.485  -6.117  0.00  0.00    -0.393 OA
HETATM   28  H   UNK N   1      24.292  24.397  -6.381  0.00  0.00     0.209 HD
ENDBRANCH  26  27
ENDBRANCH  24  26
ENDBRANCH   1  24
BRANCH  10  29
HETATM   29  C   UNK N   1      27.819  27.576  -6.990  0.00  0.00     0.060 C 
BRANCH  29  30
HETATM   30  C   UNK N   1      27.889  29.021  -6.498  0.00  0.00     0.000 C 
HETATM   31  C   UNK N   1      29.066  29.768  -7.115  0.00  0.00     0.005 C 
ENDBRANCH  29  30
ENDBRANCH  10  29
BRANCH  12  32
HETATM   32  O   UNK N   1      30.516  20.426  -5.966  0.00  0.00    -0.395 OA
HETATM   33  H   UNK N   1      31.006  19.918  -6.632  0.00  0.00     0.210 HD
ENDBRANCH  12  32
TORSDOF 6
ENDMDL
MODEL 6
REMARK VINA RESULT:      -7.1      2.343      8.706
REMARK  6 active torsions:
REMARK  status: ('A' for Active; 'I' for Inactive)
REMARK    1  A    between atoms: C_1  and  C_5 
REMARK    2  A    between atoms: C_5  and  C_12 
REMARK    3  A    between atoms: C_11  and  C_15 
REMARK    4  A    between atoms: C_12  and  O_16 
REMARK    5  A    between atoms: C_14  and  O_19 
REMARK    6  A    between atoms: C_15  and  C_20 
ROOT
HETATM    1  C   UNK N   1      33.932  16.028   7.024  0.00  0.00     0.160 C 
HETATM    2  C   UNK N   1      32.483  16.224   6.531  0.00  0.00     0.004 C 
HETATM    3  C   UNK N   1      33.859  14.654   7.701  0.00  0.00     0.168 C 
HETATM    4  O   UNK N   1      34.876  15.812   6.015  0.00  0.00    -0.339 OA
HETATM    5  C   UNK N   1      32.139  14.856   5.978  0.00  0.00     0.004 C 
HETATM    6  C   UNK N   1      32.224  17.260   5.397  0.00  0.00     0.045 C 
HETATM    7  C   UNK N   1      31.632  16.561   7.777  0.00  0.00     0.019 C 
HETATM    8  C   UNK N   1      32.730  13.872   6.985  0.00  0.00     0.041 C 
HETATM    9  O   UNK N   1      35.092  14.039   7.454  0.00  0.00    -0.352 OA
HETATM   10  C   UNK N   1      35.792  15.015   6.727  0.00  0.00     0.262 C 
HETATM   11  C   UNK N   1      30.623  14.704   5.646  0.00  0.00    -0.001 C 
HETATM   12  C   UNK N   1      30.943  16.953   4.532  0.00  0.00     0.124 C 
HETATM   13  C   UNK N   1      29.938  16.092   5.347  0.00  0.00     0.035 C 
HETATM   14  C   UNK N   1      30.507  13.768   4.425  0.00  0.00     0.010 C 
HETATM   15  C   UNK N   1      28.462  15.891   4.877  0.00  0.00     0.004 C 
HETATM   16  C   UNK N   1      29.071  13.540   3.958  0.00  0.00     0.036 C 
HETATM   17  C   UNK N   1      28.326  14.831   3.796  0.00  0.00    -0.064 C 
HETATM   18  C   UNK N   1      27.774  17.199   4.527  0.00  0.00    -0.009 C 
HETATM   19  C   UNK N   1      27.671  15.348   6.071  0.00  0.00     0.025 C 
HETATM   20  C   UNK N   1      27.271  14.853   2.962  0.00  0.00     0.058 C 
HETATM   21  C   UNK N   1      26.753  17.242   3.661  0.00  0.00     0.052 C 
HETATM   22  C   UNK N   1      26.372  16.025   2.926  0.00  0.00     0.171 C 
HETATM   23  O   UNK N   1      25.342  15.994   2.276  0.00  0.00    -0.289 OA
ENDROOT
BRANCH   1  24
HETATM   24  C   UNK N   1      34.411  17.169   7.920  0.00  0.00     0.188 C 
HETATM   25  O   UNK N   1      34.685  18.258   7.440  0.00  0.00    -0.292 OA
BRANCH  24  26
HETATM   26  C   UNK N   1      34.534  16.960   9.394  0.00  0.00     0.245 C 
BRANCH  26  27
HETATM   27  O   UNK N   1      35.497  17.824   9.914  0.00  0.00    -0.393 OA
HETATM   28  H   UNK N   1      35.364  18.590  10.494  0.00  0.00     0.209 HD
ENDBRANCH  26  27
ENDBRANCH  24  26
ENDBRANCH   1  24
BRANCH  10  29
HETATM   29  C   UNK N   1      36.898  14.423   5.872  0.00  0.00     0.060 C 
BRANCH  29  30
HETATM   30  C   UNK N   1      36.422  13.114   5.242  0.00  0.00     0.000 C 
HETATM   31  C   UNK N   1      36.036  13.303   3.780  0.00  0.00     0.005 C 
ENDBRANCH  29  30
ENDBRANCH  10  29
BRANCH  12  32
HETATM   32  O   UNK N   1      30.386  18.169   4.133  0.00  0.00    -0.395 OA
HETATM   33  H   UNK N   1      30.892  18.992   4.049  0.00  0.00     0.210 HD
ENDBRANCH  12  32
TORSDOF 6
ENDMDL
MODEL 7
REMARK VINA RESULT:      -7.0      1.959      3.363
REMARK  6 active torsions:
REMARK  status: ('A' for Active; 'I' for Inactive)
REMARK    1  A    between atoms: C_1  and  C_5 
REMARK    2  A    between atoms: C_5  and  C_12 
REMARK    3  A    between atoms: C_11  and  C_15 
REMARK    4  A    between atoms: C_12  and  O_16 
REMARK    5  A    between atoms: C_14  and  O_19 
REMARK    6  A    between atoms: C_15  and  C_20 
ROOT
HETATM    1  C   UNK N   1      26.490  18.046   4.694  0.00  0.00     0.160 C 
HETATM    2  C   UNK N   1      27.898  17.982   5.323  0.00  0.00     0.004 C 
HETATM    3  C   UNK N   1      26.719  17.395   3.326  0.00  0.00     0.168 C 
HETATM    4  O   UNK N   1      25.545  17.194   5.274  0.00  0.00    -0.339 OA
HETATM    5  C   UNK N   1      28.361  16.591   4.945  0.00  0.00     0.004 C 
HETATM    6  C   UNK N   1      28.020  18.106   6.872  0.00  0.00     0.045 C 
HETATM    7  C   UNK N   1      28.745  19.071   4.624  0.00  0.00     0.019 C 
HETATM    8  C   UNK N   1      27.900  16.409   3.501  0.00  0.00     0.041 C 
HETATM    9  O   UNK N   1      25.547  16.685   3.038  0.00  0.00    -0.352 OA
HETATM   10  C   UNK N   1      24.733  16.955   4.149  0.00  0.00     0.262 C 
HETATM   11  C   UNK N   1      29.875  16.359   5.239  0.00  0.00    -0.001 C 
HETATM   12  C   UNK N   1      29.300  17.409   7.469  0.00  0.00     0.124 C 
HETATM   13  C   UNK N   1      30.409  17.302   6.384  0.00  0.00     0.035 C 
HETATM   14  C   UNK N   1      30.050  14.878   5.631  0.00  0.00     0.010 C 
HETATM   15  C   UNK N   1      31.885  16.944   6.752  0.00  0.00     0.004 C 
HETATM   16  C   UNK N   1      31.488  14.498   5.977  0.00  0.00     0.036 C 
HETATM   17  C   UNK N   1      32.096  15.453   6.960  0.00  0.00    -0.064 C 
HETATM   18  C   UNK N   1      32.428  17.793   7.889  0.00  0.00    -0.009 C 
HETATM   19  C   UNK N   1      32.758  17.308   5.548  0.00  0.00     0.025 C 
HETATM   20  C   UNK N   1      33.120  15.018   7.716  0.00  0.00     0.058 C 
HETATM   21  C   UNK N   1      33.415  17.352   8.680  0.00  0.00     0.052 C 
HETATM   22  C   UNK N   1      33.895  15.968   8.540  0.00  0.00     0.171 C 
HETATM   23  O   UNK N   1      34.905  15.605   9.117  0.00  0.00    -0.289 OA
ENDROOT
BRANCH   1  24
HETATM   24  C   UNK N   1      25.924  19.465   4.653  0.00  0.00     0.188 C 
HETATM   25  O   UNK N   1      25.575  20.021   5.684  0.00  0.00    -0.292 OA
BRANCH  24  26
HETATM   26  C   UNK N   1      25.807  20.185   3.350  0.00  0.00     0.245 C 
BRANCH  26  27
HETATM   27  O   UNK N   1      24.482  20.563   3.138  0.00  0.00    -0.393 OA
HETATM   28  H   UNK N   1      23.797  20.741   3.801  0.00  0.00     0.209 HD
ENDBRANCH  26  27
ENDBRANCH  24  26
ENDBRANCH   1  24
BRANCH  10  29
HETATM   29  C   UNK N   1      23.669  15.895   4.364  0.00  0.00     0.060 C 
BRANCH  29  30
HETATM   30  C   UNK N   1      22.319  16.406   3.862  0.00  0.00     0.000 C 
HETATM   31  C   UNK N   1      22.270  17.929   3.835  0.00  0.00     0.005 C 
ENDBRANCH  29  30
ENDBRANCH  10  29
BRANCH  12  32
HETATM   32  O   UNK N   1      29.722  18.147   8.575  0.00  0.00    -0.395 OA
HETATM   33  H   UNK N   1      30.490  18.739   8.567  0.00  0.00     0.210 HD
ENDBRANCH  12  32
TORSDOF 6
ENDMDL
MODEL 8
REMARK VINA RESULT:      -7.0      4.844      8.457
REMARK  6 active torsions:
REMARK  status: ('A' for Active; 'I' for Inactive)
REMARK    1  A    between atoms: C_1  and  C_5 
REMARK    2  A    between atoms: C_5  and  C_12 
REMARK    3  A    between atoms: C_11  and  C_15 
REMARK    4  A    between atoms: C_12  and  O_16 
REMARK    5  A    between atoms: C_14  and  O_19 
REMARK    6  A    between atoms: C_15  and  C_20 
ROOT
HETATM    1  C   UNK N   1      33.117  16.287   7.550  0.00  0.00     0.160 C 
HETATM    2  C   UNK N   1      34.030  15.328   8.343  0.00  0.00     0.004 C 
HETATM    3  C   UNK N   1      32.745  15.441   6.327  0.00  0.00     0.168 C 
HETATM    4  O   UNK N   1      31.870  16.531   8.133  0.00  0.00    -0.339 OA
HETATM    5  C   UNK N   1      33.295  14.009   8.227  0.00  0.00     0.004 C 
HETATM    6  C   UNK N   1      34.251  15.604   9.860  0.00  0.00     0.045 C 
HETATM    7  C   UNK N   1      35.384  15.288   7.597  0.00  0.00     0.019 C 
HETATM    8  C   UNK N   1      32.808  13.962   6.782  0.00  0.00     0.041 C 
HETATM    9  O   UNK N   1      31.426  15.785   6.009  0.00  0.00    -0.352 OA
HETATM   10  C   UNK N   1      31.116  16.763   6.967  0.00  0.00     0.262 C 
HETATM   11  C   UNK N   1      34.144  12.799   8.727  0.00  0.00    -0.001 C 
HETATM   12  C   UNK N   1      34.607  14.319  10.698  0.00  0.00     0.124 C 
HETATM   13  C   UNK N   1      35.236  13.235   9.778  0.00  0.00     0.035 C 
HETATM   14  C   UNK N   1      33.172  11.776   9.348  0.00  0.00     0.010 C 
HETATM   15  C   UNK N   1      35.968  11.986  10.365  0.00  0.00     0.004 C 
HETATM   16  C   UNK N   1      33.862  10.536   9.912  0.00  0.00     0.036 C 
HETATM   17  C   UNK N   1      35.007  10.895  10.811  0.00  0.00    -0.064 C 
HETATM   18  C   UNK N   1      36.995  12.351  11.423  0.00  0.00    -0.009 C 
HETATM   19  C   UNK N   1      36.786  11.360   9.232  0.00  0.00     0.025 C 
HETATM   20  C   UNK N   1      35.392   9.998  11.737  0.00  0.00     0.058 C 
HETATM   21  C   UNK N   1      37.352  11.484  12.380  0.00  0.00     0.052 C 
HETATM   22  C   UNK N   1      36.640  10.201  12.499  0.00  0.00     0.171 C 
HETATM   23  O   UNK N   1      37.063   9.329  13.238  0.00  0.00    -0.289 OA
ENDROOT
BRANCH   1  24
HETATM   24  C   UNK N   1      33.792  17.622   7.237  0.00  0.00     0.188 C 
HETATM   25  O   UNK N   1      34.214  17.853   6.114  0.00  0.00    -0.292 OA
BRANCH  24  26
HETATM   26  C   UNK N   1      33.929  18.658   8.305  0.00  0.00     0.245 C 
BRANCH  26  27
HETATM   27  O   UNK N   1      35.260  19.061   8.402  0.00  0.00    -0.393 OA
HETATM   28  H   UNK N   1      36.024  18.727   7.907  0.00  0.00     0.209 HD
ENDBRANCH  26  27
ENDBRANCH  24  26
ENDBRANCH   1  24
BRANCH  10  29
HETATM   29  C   UNK N   1      29.623  16.892   7.207  0.00  0.00     0.060 C 
BRANCH  29  30
HETATM   30  C   UNK N   1      29.328  18.190   7.957  0.00  0.00     0.000 C 
HETATM   31  C   UNK N   1      28.794  17.920   9.359  0.00  0.00     0.005 C 
ENDBRANCH  29  30
ENDBRANCH  10  29
BRANCH  12  32
HETATM   32  O   UNK N   1      35.470  14.695  11.728  0.00  0.00    -0.395 OA
HETATM   33  H   UNK N   1      35.818  14.080  12.391  0.00  0.00     0.210 HD
ENDBRANCH  12  32
TORSDOF 6
ENDMDL
MODEL 9
REMARK VINA RESULT:      -6.9      5.997     10.663
REMARK  6 active torsions:
REMARK  status: ('A' for Active; 'I' for Inactive)
REMARK    1  A    between atoms: C_1  and  C_5 
REMARK    2  A    between atoms: C_5  and  C_12 
REMARK    3  A    between atoms: C_11  and  C_15 
REMARK    4  A    between atoms: C_12  and  O_16 
REMARK    5  A    between atoms: C_14  and  O_19 
REMARK    6  A    between atoms: C_15  and  C_20 
ROOT
HETATM    1  C   UNK N   1      35.547  12.490  11.596  0.00  0.00     0.160 C 
HETATM    2  C   UNK N   1      35.155  13.034  10.205  0.00  0.00     0.004 C 
HETATM    3  C   UNK N   1      36.816  13.291  11.909  0.00  0.00     0.168 C 
HETATM    4  O   UNK N   1      34.694  12.865  12.638  0.00  0.00    -0.339 OA
HETATM    5  C   UNK N   1      35.383  14.523  10.362  0.00  0.00     0.004 C 
HETATM    6  C   UNK N   1      33.687  12.838   9.723  0.00  0.00     0.045 C 
HETATM    7  C   UNK N   1      36.145  12.414   9.192  0.00  0.00     0.019 C 
HETATM    8  C   UNK N   1      36.685  14.635  11.151  0.00  0.00     0.041 C 
HETATM    9  O   UNK N   1      36.794  13.520  13.290  0.00  0.00    -0.352 OA
HETATM   10  C   UNK N   1      35.620  12.869  13.699  0.00  0.00     0.262 C 
HETATM   11  C   UNK N   1      35.309  15.291   9.006  0.00  0.00    -0.001 C 
HETATM   12  C   UNK N   1      33.206  13.920   8.683  0.00  0.00     0.124 C 
HETATM   13  C   UNK N   1      34.428  14.531   7.942  0.00  0.00     0.035 C 
HETATM   14  C   UNK N   1      34.725  16.689   9.296  0.00  0.00     0.010 C 
HETATM   15  C   UNK N   1      34.255  15.393   6.650  0.00  0.00     0.004 C 
HETATM   16  C   UNK N   1      34.564  17.558   8.051  0.00  0.00     0.036 C 
HETATM   17  C   UNK N   1      33.855  16.830   6.949  0.00  0.00    -0.064 C 
HETATM   18  C   UNK N   1      33.369  14.726   5.613  0.00  0.00    -0.009 C 
HETATM   19  C   UNK N   1      35.628  15.492   5.979  0.00  0.00     0.025 C 
HETATM   20  C   UNK N   1      33.219  17.558   6.014  0.00  0.00     0.058 C 
HETATM   21  C   UNK N   1      32.692  15.442   4.706  0.00  0.00     0.052 C 
HETATM   22  C   UNK N   1      32.692  16.912   4.795  0.00  0.00     0.171 C 
HETATM   23  O   UNK N   1      32.239  17.584   3.885  0.00  0.00    -0.289 OA
ENDROOT
BRANCH   1  24
HETATM   24  C   UNK N   1      35.715  10.972  11.610  0.00  0.00     0.188 C 
HETATM   25  O   UNK N   1      36.815  10.474  11.798  0.00  0.00    -0.292 OA
BRANCH  24  26
HETATM   26  C   UNK N   1      34.530  10.087  11.405  0.00  0.00     0.245 C 
BRANCH  26  27
HETATM   27  O   UNK N   1      33.517  10.441  12.295  0.00  0.00    -0.393 OA
HETATM   28  H   UNK N   1      33.507  10.344  13.260  0.00  0.00     0.209 HD
ENDBRANCH  26  27
ENDBRANCH  24  26
ENDBRANCH   1  24
BRANCH  10  29
HETATM   29  C   UNK N   1      35.071  13.421  15.002  0.00  0.00     0.060 C 
BRANCH  29  30
HETATM   30  C   UNK N   1      35.779  12.760  16.184  0.00  0.00     0.000 C 
HETATM   31  C   UNK N   1      34.948  12.849  17.458  0.00  0.00     0.005 C 
ENDBRANCH  29  30
ENDBRANCH  10  29
BRANCH  12  32
HETATM   32  O   UNK N   1      32.312  13.310   7.803  0.00  0.00    -0.395 OA
HETATM   33  H   UNK N   1      32.158  13.614   6.895  0.00  0.00     0.210 HD
ENDBRANCH  12  32
TORSDOF 6
ENDMDL
