MODEL 1
REMARK VINA RESULT:      -6.9      0.000      0.000
REMARK  12 active torsions:
REMARK  status: ('A' for Active; 'I' for Inactive)
REMARK    1  A    between atoms: O_13  and  C_1 
REMARK    2  A    between atoms: C_2  and  O_23 
REMARK    3  A    between atoms: C_4  and  O_32 
REMARK    4  A    between atoms: C_6  and  O_33 
REMARK    5  A    between atoms: C_7  and  O_13 
REMARK    6  A    between atoms: C_11  and  O_34 
REMARK    7  A    between atoms: C_14  and  O_35 
REMARK    8  A    between atoms: C_15  and  N_28 
REMARK    9  A    between atoms: C_16  and  O_36 
REMARK   10  A    between atoms: C_17  and  O_23 
REMARK   11  A    between atoms: C_21  and  C_44 
REMARK   12  A    between atoms: C_22  and  O_37 
ROOT
HETATM    1  C   UNK N   1      26.974  15.308   3.961  0.00  0.00     0.144 C 
HETATM    2  C   UNK N   1      24.905  13.938   4.098  0.00  0.00     0.265 C 
HETATM    3  C   UNK N   1      24.407  11.010   2.747  0.00  0.00     0.107 C 
HETATM    4  C   UNK N   1      26.064  14.496   4.890  0.00  0.00     0.111 C 
HETATM    5  C   UNK N   1      29.274  13.966   4.132  0.00  0.00     0.165 C 
HETATM    6  C   UNK N   1      28.052  14.427   3.295  0.00  0.00     0.043 C 
HETATM    7  C   UNK N   1      26.170   9.277   3.525  0.00  0.00     0.083 C 
HETATM    8  O   UNK N   1      25.161  13.319   2.916  0.00  0.00    -0.312 OA
HETATM    9  C   UNK N   1      25.893  10.624   2.843  0.00  0.00     0.165 C 
HETATM   10  C   UNK N   1      27.522   9.144   4.196  0.00  0.00     0.137 C 
HETATM   11  C   UNK N   1      29.652  12.459   3.976  0.00  0.00     0.084 C 
HETATM   12  C   UNK N   1      24.330  12.455   2.219  0.00  0.00     0.168 C 
HETATM   13  C   UNK N   1      28.705  10.016   3.861  0.00  0.00     0.054 C 
HETATM   14  C   UNK N   1      28.419  11.518   4.082  0.00  0.00     0.052 C 
HETATM   15  O   UNK N   1      23.760  14.058   4.506  0.00  0.00    -0.265 OA
HETATM   16  O   UNK N   1      27.669   8.271   5.035  0.00  0.00    -0.297 OA
HETATM   17  C   UNK N   1      23.766  10.906   4.126  0.00  0.00     0.051 C 
HETATM   18  C   UNK N   1      25.583  15.270   6.115  0.00  0.00     0.023 C 
HETATM   19  C   UNK N   1      28.501  14.991   1.962  0.00  0.00     0.015 C 
HETATM   20  C   UNK N   1      25.867   8.084   2.630  0.00  0.00     0.020 C 
HETATM   21  C   UNK N   1      30.219  12.355   2.568  0.00  0.00     0.049 C 
HETATM   22  C   UNK N   1      29.164   9.686   2.448  0.00  0.00     0.018 C 
ENDROOT
BRANCH   1  23
HETATM   23  O   UNK N   1      27.474  16.486   4.550  0.00  0.00    -0.355 OA
BRANCH  23  24
HETATM   24  C   UNK N   1      27.287  17.569   3.652  0.00  0.00     0.263 C 
HETATM   25  C   UNK N   1      27.999  18.834   4.165  0.00  0.00     0.101 C 
HETATM   26  C   UNK N   1      27.262  19.495   5.354  0.00  0.00     0.089 C 
HETATM   27  C   UNK N   1      27.436  18.593   6.570  0.00  0.00     0.049 C 
HETATM   28  C   UNK N   1      25.751  19.598   5.042  0.00  0.00     0.181 C 
HETATM   29  C   UNK N   1      25.259  18.228   4.563  0.00  0.00     0.152 C 
HETATM   30  O   UNK N   1      25.920  17.853   3.374  0.00  0.00    -0.354 OA
HETATM   31  C   UNK N   1      23.758  18.229   4.336  0.00  0.00     0.042 C 
BRANCH  26  32
HETATM   32  O   UNK N   1      27.813  20.748   5.730  0.00  0.00    -0.383 OA
HETATM   33  C   UNK N   1      27.115  21.313   6.812  0.00  0.00     0.202 C 
ENDBRANCH  26  32
BRANCH  28  34
HETATM   34  O   UNK N   1      25.497  20.550   4.048  0.00  0.00    -0.390 OA
HETATM   35  H   UNK N   1      24.794  20.922   3.495  0.00  0.00     0.210 HD
ENDBRANCH  28  34
ENDBRANCH  23  24
ENDBRANCH   1  23
BRANCH   5  36
HETATM   36  O   UNK N   1      29.342  14.477   5.441  0.00  0.00    -0.350 OA
BRANCH  36  37
HETATM   37  C   UNK N   1      30.437  15.387   5.554  0.00  0.00     0.291 C 
HETATM   38  C   UNK N   1      31.309  15.205   6.836  0.00  0.00     0.206 C 
HETATM   39  C   UNK N   1      32.397  16.294   6.912  0.00  0.00     0.257 C 
HETATM   40  C   UNK N   1      32.427  17.187   5.681  0.00  0.00     0.070 C 
HETATM   41  C   UNK N   1      32.333  16.302   4.429  0.00  0.00     0.122 C 
HETATM   42  O   UNK N   1      31.246  15.372   4.385  0.00  0.00    -0.354 OA
HETATM   43  C   UNK N   1      32.312  17.188   3.202  0.00  0.00     0.040 C 
BRANCH  38  44
HETATM   44  O   UNK N   1      31.975  13.979   6.828  0.00  0.00    -0.388 OA
HETATM   45  H   UNK N   1      32.356  13.235   6.336  0.00  0.00     0.210 HD
ENDBRANCH  38  44
BRANCH  39  46
HETATM   46  N   UNK N   1      32.400  17.071   8.157  0.00  0.00     0.087 N 
HETATM   47  C   UNK N   1      33.428  18.104   8.140  0.00  0.00     0.310 C 
HETATM   48  C   UNK N   1      31.108  17.718   8.317  0.00  0.00     0.310 C 
ENDBRANCH  39  46
ENDBRANCH  36  37
ENDBRANCH   5  36
BRANCH  11  49
HETATM   49  O   UNK N   1      30.696  12.071   4.859  0.00  0.00    -0.383 OA
HETATM   50  C   UNK N   1      31.896  11.852   4.154  0.00  0.00     0.202 C 
ENDBRANCH  11  49
BRANCH  12  51
HETATM   51  C   UNK N   1      22.965  13.027   1.791  0.00  0.00     0.031 C 
HETATM   52  C   UNK N   1      23.040  14.187   0.812  0.00  0.00     0.007 C 
ENDBRANCH  12  51
BRANCH   3  53
HETATM   53  O   UNK N   1      23.744  10.151   1.868  0.00  0.00    -0.385 OA
HETATM   54  H   UNK N   1      22.815   9.887   1.968  0.00  0.00     0.210 HD
ENDBRANCH   3  53
BRANCH   9  55
HETATM   55  O   UNK N   1      26.527  10.714   1.598  0.00  0.00    -0.392 OA
HETATM   56  H   UNK N   1      27.150  10.730   0.856  0.00  0.00     0.210 HD
ENDBRANCH   9  55
TORSDOF 12
ENDMDL
MODEL 2
REMARK VINA RESULT:      -6.6      2.464      5.008
REMARK  12 active torsions:
REMARK  status: ('A' for Active; 'I' for Inactive)
REMARK    1  A    between atoms: O_13  and  C_1 
REMARK    2  A    between atoms: C_2  and  O_23 
REMARK    3  A    between atoms: C_4  and  O_32 
REMARK    4  A    between atoms: C_6  and  O_33 
REMARK    5  A    between atoms: C_7  and  O_13 
REMARK    6  A    between atoms: C_11  and  O_34 
REMARK    7  A    between atoms: C_14  and  O_35 
REMARK    8  A    between atoms: C_15  and  N_28 
REMARK    9  A    between atoms: C_16  and  O_36 
REMARK   10  A    between atoms: C_17  and  O_23 
REMARK   11  A    between atoms: C_21  and  C_44 
REMARK   12  A    between atoms: C_22  and  O_37 
ROOT
HETATM    1  C   UNK N   1      25.319  15.458   3.745  0.00  0.00     0.144 C 
HETATM    2  C   UNK N   1      23.172  15.787   4.952  0.00  0.00     0.265 C 
HETATM    3  C   UNK N   1      20.201  14.907   3.932  0.00  0.00     0.107 C 
HETATM    4  C   UNK N   1      24.490  15.049   4.968  0.00  0.00     0.111 C 
HETATM    5  C   UNK N   1      25.590  13.134   2.461  0.00  0.00     0.165 C 
HETATM    6  C   UNK N   1      25.013  14.573   2.518  0.00  0.00     0.043 C 
HETATM    7  C   UNK N   1      20.069  12.368   3.424  0.00  0.00     0.083 C 
HETATM    8  O   UNK N   1      22.455  15.817   3.799  0.00  0.00    -0.312 OA
HETATM    9  C   UNK N   1      20.743  13.714   3.125  0.00  0.00     0.165 C 
HETATM   10  C   UNK N   1      20.919  11.137   3.180  0.00  0.00     0.137 C 
HETATM   11  C   UNK N   1      24.579  12.034   2.008  0.00  0.00     0.084 C 
HETATM   12  C   UNK N   1      21.109  16.118   3.650  0.00  0.00     0.168 C 
HETATM   13  C   UNK N   1      22.133  11.129   2.286  0.00  0.00     0.054 C 
HETATM   14  C   UNK N   1      23.211  12.140   2.739  0.00  0.00     0.052 C 
HETATM   15  O   UNK N   1      22.770  16.359   5.954  0.00  0.00    -0.265 OA
HETATM   16  O   UNK N   1      20.591  10.092   3.715  0.00  0.00    -0.297 OA
HETATM   17  C   UNK N   1      20.211  14.560   5.416  0.00  0.00     0.051 C 
HETATM   18  C   UNK N   1      25.219  15.232   6.297  0.00  0.00     0.023 C 
HETATM   19  C   UNK N   1      25.269  15.302   1.215  0.00  0.00     0.015 C 
HETATM   20  C   UNK N   1      18.694  12.238   2.785  0.00  0.00     0.020 C 
HETATM   21  C   UNK N   1      24.359  12.308   0.528  0.00  0.00     0.049 C 
HETATM   22  C   UNK N   1      21.677  11.331   0.849  0.00  0.00     0.018 C 
ENDROOT
BRANCH   1  23
HETATM   23  O   UNK N   1      26.692  15.608   4.020  0.00  0.00    -0.355 OA
BRANCH  23  24
HETATM   24  C   UNK N   1      27.211  16.668   3.230  0.00  0.00     0.263 C 
HETATM   25  C   UNK N   1      28.729  16.812   3.438  0.00  0.00     0.101 C 
HETATM   26  C   UNK N   1      29.088  17.450   4.801  0.00  0.00     0.089 C 
HETATM   27  C   UNK N   1      28.779  16.430   5.889  0.00  0.00     0.049 C 
HETATM   28  C   UNK N   1      28.208  18.698   5.043  0.00  0.00     0.181 C 
HETATM   29  C   UNK N   1      26.745  18.318   4.792  0.00  0.00     0.152 C 
HETATM   30  O   UNK N   1      26.562  17.916   3.451  0.00  0.00    -0.354 OA
HETATM   31  C   UNK N   1      25.811  19.470   5.112  0.00  0.00     0.042 C 
BRANCH  26  32
HETATM   32  O   UNK N   1      30.471  17.742   4.938  0.00  0.00    -0.383 OA
HETATM   33  C   UNK N   1      31.000  17.188   6.117  0.00  0.00     0.202 C 
ENDBRANCH  26  32
BRANCH  28  34
HETATM   34  O   UNK N   1      28.562  19.749   4.190  0.00  0.00    -0.390 OA
HETATM   35  H   UNK N   1      28.406  20.690   4.014  0.00  0.00     0.210 HD
ENDBRANCH  28  34
ENDBRANCH  23  24
ENDBRANCH   1  23
BRANCH   5  36
HETATM   36  O   UNK N   1      26.441  12.778   3.523  0.00  0.00    -0.350 OA
BRANCH  36  37
HETATM   37  C   UNK N   1      27.803  12.842   3.100  0.00  0.00     0.291 C 
HETATM   38  C   UNK N   1      28.850  12.822   4.259  0.00  0.00     0.206 C 
HETATM   39  C   UNK N   1      30.278  12.995   3.704  0.00  0.00     0.257 C 
HETATM   40  C   UNK N   1      30.322  13.021   2.183  0.00  0.00     0.070 C 
HETATM   41  C   UNK N   1      29.437  11.886   1.646  0.00  0.00     0.122 C 
HETATM   42  O   UNK N   1      28.095  11.836   2.138  0.00  0.00    -0.354 OA
HETATM   43  C   UNK N   1      29.439  11.937   0.134  0.00  0.00     0.040 C 
BRANCH  38  44
HETATM   44  O   UNK N   1      28.833  11.603   4.938  0.00  0.00    -0.388 OA
HETATM   45  H   UNK N   1      29.197  11.018   5.621  0.00  0.00     0.210 HD
ENDBRANCH  38  44
BRANCH  39  46
HETATM   46  N   UNK N   1      31.034  14.104   4.298  0.00  0.00     0.087 N 
HETATM   47  C   UNK N   1      31.938  13.635   5.340  0.00  0.00     0.310 C 
HETATM   48  C   UNK N   1      31.828  14.746   3.262  0.00  0.00     0.310 C 
ENDBRANCH  39  46
ENDBRANCH  36  37
ENDBRANCH   5  36
BRANCH  11  49
HETATM   49  O   UNK N   1      25.130  10.726   2.097  0.00  0.00    -0.383 OA
HETATM   50  C   UNK N   1      25.383  10.199   0.815  0.00  0.00     0.202 C 
ENDBRANCH  11  49
BRANCH  12  51
HETATM   51  C   UNK N   1      20.670  17.515   4.130  0.00  0.00     0.031 C 
HETATM   52  C   UNK N   1      21.317  18.674   3.390  0.00  0.00     0.007 C 
ENDBRANCH  12  51
BRANCH   3  53
HETATM   53  O   UNK N   1      18.893  15.196   3.538  0.00  0.00    -0.385 OA
HETATM   54  H   UNK N   1      18.317  15.827   3.999  0.00  0.00     0.210 HD
ENDBRANCH   3  53
BRANCH   9  55
HETATM   55  O   UNK N   1      20.762  13.991   1.753  0.00  0.00    -0.392 OA
HETATM   56  H   UNK N   1      20.913  14.005   0.796  0.00  0.00     0.210 HD
ENDBRANCH   9  55
TORSDOF 12
ENDMDL
MODEL 3
REMARK VINA RESULT:      -6.6      2.837      7.717
REMARK  12 active torsions:
REMARK  status: ('A' for Active; 'I' for Inactive)
REMARK    1  A    between atoms: O_13  and  C_1 
REMARK    2  A    between atoms: C_2  and  O_23 
REMARK    3  A    between atoms: C_4  and  O_32 
REMARK    4  A    between atoms: C_6  and  O_33 
REMARK    5  A    between atoms: C_7  and  O_13 
REMARK    6  A    between atoms: C_11  and  O_34 
REMARK    7  A    between atoms: C_14  and  O_35 
REMARK    8  A    between atoms: C_15  and  N_28 
REMARK    9  A    between atoms: C_16  and  O_36 
REMARK   10  A    between atoms: C_17  and  O_23 
REMARK   11  A    between atoms: C_21  and  C_44 
REMARK   12  A    between atoms: C_22  and  O_37 
ROOT
HETATM    1  C   UNK N   1      26.034  15.581   4.727  0.00  0.00     0.144 C 
HETATM    2  C   UNK N   1      27.854  17.232   5.100  0.00  0.00     0.265 C 
HETATM    3  C   UNK N   1      30.939  16.586   5.942  0.00  0.00     0.107 C 
HETATM    4  C   UNK N   1      26.945  16.620   4.061  0.00  0.00     0.111 C 
HETATM    5  C   UNK N   1      26.737  13.340   3.461  0.00  0.00     0.165 C 
HETATM    6  C   UNK N   1      26.685  14.182   4.762  0.00  0.00     0.043 C 
HETATM    7  C   UNK N   1      32.088  14.998   4.246  0.00  0.00     0.083 C 
HETATM    8  O   UNK N   1      28.510  16.410   5.959  0.00  0.00    -0.312 OA
HETATM    9  C   UNK N   1      30.931  15.222   5.230  0.00  0.00     0.165 C 
HETATM   10  C   UNK N   1      31.809  14.033   3.111  0.00  0.00     0.137 C 
HETATM   11  C   UNK N   1      28.111  12.657   3.169  0.00  0.00     0.084 C 
HETATM   12  C   UNK N   1      29.622  16.712   6.731  0.00  0.00     0.168 C 
HETATM   13  C   UNK N   1      30.711  13.001   3.148  0.00  0.00     0.054 C 
HETATM   14  C   UNK N   1      29.312  13.628   3.345  0.00  0.00     0.052 C 
HETATM   15  O   UNK N   1      27.980  18.446   5.176  0.00  0.00    -0.265 OA
HETATM   16  O   UNK N   1      32.525  14.078   2.124  0.00  0.00    -0.297 OA
HETATM   17  C   UNK N   1      31.053  17.697   4.905  0.00  0.00     0.051 C 
HETATM   18  C   UNK N   1      26.190  17.690   3.276  0.00  0.00     0.023 C 
HETATM   19  C   UNK N   1      26.171  13.346   5.917  0.00  0.00     0.015 C 
HETATM   20  C   UNK N   1      33.406  14.684   4.940  0.00  0.00     0.020 C 
HETATM   21  C   UNK N   1      28.218  11.561   4.218  0.00  0.00     0.049 C 
HETATM   22  C   UNK N   1      31.063  11.958   4.199  0.00  0.00     0.018 C 
ENDROOT
BRANCH   1  23
HETATM   23  O   UNK N   1      24.714  15.592   4.236  0.00  0.00    -0.355 OA
BRANCH  23  24
HETATM   24  C   UNK N   1      23.915  16.413   5.074  0.00  0.00     0.263 C 
HETATM   25  C   UNK N   1      23.324  15.595   6.237  0.00  0.00     0.101 C 
HETATM   26  C   UNK N   1      22.171  14.666   5.790  0.00  0.00     0.089 C 
HETATM   27  C   UNK N   1      22.775  13.537   4.966  0.00  0.00     0.049 C 
HETATM   28  C   UNK N   1      21.186  15.449   4.890  0.00  0.00     0.181 C 
HETATM   29  C   UNK N   1      21.991  16.170   3.803  0.00  0.00     0.152 C 
HETATM   30  O   UNK N   1      22.879  17.102   4.381  0.00  0.00    -0.354 OA
HETATM   31  C   UNK N   1      21.078  16.877   2.818  0.00  0.00     0.042 C 
BRANCH  26  32
HETATM   32  O   UNK N   1      21.508  14.032   6.873  0.00  0.00    -0.383 OA
HETATM   33  C   UNK N   1      20.764  12.919   6.442  0.00  0.00     0.202 C 
ENDBRANCH  26  32
BRANCH  28  34
HETATM   34  O   UNK N   1      20.459  16.392   5.625  0.00  0.00    -0.390 OA
HETATM   35  H   UNK N   1      19.948  17.212   5.541  0.00  0.00     0.210 HD
ENDBRANCH  28  34
ENDBRANCH  23  24
ENDBRANCH   1  23
BRANCH   5  36
HETATM   36  O   UNK N   1      26.091  13.904   2.346  0.00  0.00    -0.350 OA
BRANCH  36  37
HETATM   37  C   UNK N   1      24.997  13.077   1.945  0.00  0.00     0.291 C 
HETATM   38  C   UNK N   1      23.753  13.852   1.409  0.00  0.00     0.206 C 
HETATM   39  C   UNK N   1      22.598  12.879   1.100  0.00  0.00     0.257 C 
HETATM   40  C   UNK N   1      22.991  11.420   1.276  0.00  0.00     0.070 C 
HETATM   41  C   UNK N   1      24.361  11.197   0.619  0.00  0.00     0.122 C 
HETATM   42  O   UNK N   1      25.412  12.083   1.017  0.00  0.00    -0.354 OA
HETATM   43  C   UNK N   1      24.780   9.759   0.833  0.00  0.00     0.040 C 
BRANCH  38  44
HETATM   44  O   UNK N   1      24.042  14.516   0.216  0.00  0.00    -0.388 OA
HETATM   45  H   UNK N   1      24.283  14.486  -0.723  0.00  0.00     0.210 HD
ENDBRANCH  38  44
BRANCH  39  46
HETATM   46  N   UNK N   1      21.333  13.195   1.775  0.00  0.00     0.087 N 
HETATM   47  C   UNK N   1      20.384  13.819   0.863  0.00  0.00     0.310 C 
HETATM   48  C   UNK N   1      20.742  11.966   2.277  0.00  0.00     0.310 C 
ENDBRANCH  39  46
ENDBRANCH  36  37
ENDBRANCH   5  36
BRANCH  11  49
HETATM   49  O   UNK N   1      28.133  12.007   1.905  0.00  0.00    -0.383 OA
HETATM   50  C   UNK N   1      28.241  10.610   2.060  0.00  0.00     0.202 C 
ENDBRANCH  11  49
BRANCH  12  51
HETATM   51  C   UNK N   1      29.455  17.868   7.736  0.00  0.00     0.031 C 
HETATM   52  C   UNK N   1      28.358  17.662   8.767  0.00  0.00     0.007 C 
ENDBRANCH  12  51
BRANCH   3  53
HETATM   53  O   UNK N   1      32.023  16.663   6.818  0.00  0.00    -0.385 OA
HETATM   54  H   UNK N   1      32.000  16.349   7.736  0.00  0.00     0.210 HD
ENDBRANCH   3  53
BRANCH   9  55
HETATM   55  O   UNK N   1      30.818  14.168   6.145  0.00  0.00    -0.392 OA
HETATM   56  H   UNK N   1      30.858  13.575   6.911  0.00  0.00     0.210 HD
ENDBRANCH   9  55
TORSDOF 12
ENDMDL
MODEL 4
REMARK VINA RESULT:      -6.5      5.756     10.159
REMARK  12 active torsions:
REMARK  status: ('A' for Active; 'I' for Inactive)
REMARK    1  A    between atoms: O_13  and  C_1 
REMARK    2  A    between atoms: C_2  and  O_23 
REMARK    3  A    between atoms: C_4  and  O_32 
REMARK    4  A    between atoms: C_6  and  O_33 
REMARK    5  A    between atoms: C_7  and  O_13 
REMARK    6  A    between atoms: C_11  and  O_34 
REMARK    7  A    between atoms: C_14  and  O_35 
REMARK    8  A    between atoms: C_15  and  N_28 
REMARK    9  A    between atoms: C_16  and  O_36 
REMARK   10  A    between atoms: C_17  and  O_23 
REMARK   11  A    between atoms: C_21  and  C_44 
REMARK   12  A    between atoms: C_22  and  O_37 
ROOT
HETATM    1  C   UNK N   1      35.076  12.357   6.629  0.00  0.00     0.144 C 
HETATM    2  C   UNK N   1      35.554   9.922   6.763  0.00  0.00     0.265 C 
HETATM    3  C   UNK N   1      37.657   8.450   8.777  0.00  0.00     0.107 C 
HETATM    4  C   UNK N   1      34.506  10.983   7.003  0.00  0.00     0.111 C 
HETATM    5  C   UNK N   1      34.962  13.651   8.960  0.00  0.00     0.165 C 
HETATM    6  C   UNK N   1      35.801  13.023   7.818  0.00  0.00     0.043 C 
HETATM    7  C   UNK N   1      37.128   8.961  11.263  0.00  0.00     0.083 C 
HETATM    8  O   UNK N   1      36.812  10.131   7.230  0.00  0.00    -0.312 OA
HETATM    9  C   UNK N   1      37.474   9.514   9.874  0.00  0.00     0.165 C 
HETATM   10  C   UNK N   1      36.347   9.893  12.167  0.00  0.00     0.137 C 
HETATM   11  C   UNK N   1      35.446  13.307  10.404  0.00  0.00     0.084 C 
HETATM   12  C   UNK N   1      37.805   9.184   7.431  0.00  0.00     0.168 C 
HETATM   13  C   UNK N   1      36.298  11.388  11.976  0.00  0.00     0.054 C 
HETATM   14  C   UNK N   1      35.740  11.792  10.593  0.00  0.00     0.052 C 
HETATM   15  O   UNK N   1      35.277   8.905   6.144  0.00  0.00    -0.265 OA
HETATM   16  O   UNK N   1      35.746   9.413  13.113  0.00  0.00    -0.297 OA
HETATM   17  C   UNK N   1      36.442   7.530   8.758  0.00  0.00     0.051 C 
HETATM   18  C   UNK N   1      33.195  10.645   6.296  0.00  0.00     0.023 C 
HETATM   19  C   UNK N   1      36.879  13.983   7.358  0.00  0.00     0.015 C 
HETATM   20  C   UNK N   1      38.328   8.358  11.979  0.00  0.00     0.020 C 
HETATM   21  C   UNK N   1      36.750  14.075  10.558  0.00  0.00     0.049 C 
HETATM   22  C   UNK N   1      37.678  11.958  12.265  0.00  0.00     0.018 C 
ENDROOT
BRANCH   1  23
HETATM   23  O   UNK N   1      34.147  13.193   5.978  0.00  0.00    -0.355 OA
BRANCH  23  24
HETATM   24  C   UNK N   1      34.843  14.053   5.088  0.00  0.00     0.263 C 
HETATM   25  C   UNK N   1      34.165  15.433   5.018  0.00  0.00     0.101 C 
HETATM   26  C   UNK N   1      32.847  15.411   4.209  0.00  0.00     0.089 C 
HETATM   27  C   UNK N   1      31.808  14.658   5.029  0.00  0.00     0.049 C 
HETATM   28  C   UNK N   1      33.060  14.648   2.880  0.00  0.00     0.181 C 
HETATM   29  C   UNK N   1      33.734  13.307   3.193  0.00  0.00     0.152 C 
HETATM   30  O   UNK N   1      35.001  13.515   3.779  0.00  0.00    -0.354 OA
HETATM   31  C   UNK N   1      33.881  12.459   1.944  0.00  0.00     0.042 C 
BRANCH  26  32
HETATM   32  O   UNK N   1      32.297  16.702   3.995  0.00  0.00    -0.383 OA
HETATM   33  C   UNK N   1      33.029  17.693   4.674  0.00  0.00     0.202 C 
ENDBRANCH  26  32
BRANCH  28  34
HETATM   34  O   UNK N   1      33.868  15.373   1.998  0.00  0.00    -0.390 OA
HETATM   35  H   UNK N   1      34.282  16.239   1.861  0.00  0.00     0.210 HD
ENDBRANCH  28  34
ENDBRANCH  23  24
ENDBRANCH   1  23
BRANCH   5  36
HETATM   36  O   UNK N   1      33.568  13.638   8.768  0.00  0.00    -0.350 OA
BRANCH  36  37
HETATM   37  C   UNK N   1      33.084  14.972   8.611  0.00  0.00     0.291 C 
HETATM   38  C   UNK N   1      31.711  15.256   9.298  0.00  0.00     0.206 C 
HETATM   39  C   UNK N   1      31.232  16.688   8.985  0.00  0.00     0.257 C 
HETATM   40  C   UNK N   1      32.254  17.495   8.199  0.00  0.00     0.070 C 
HETATM   41  C   UNK N   1      33.639  17.284   8.830  0.00  0.00     0.122 C 
HETATM   42  O   UNK N   1      34.057  15.928   9.013  0.00  0.00    -0.354 OA
HETATM   43  C   UNK N   1      34.667  18.045   8.023  0.00  0.00     0.040 C 
BRANCH  38  44
HETATM   44  O   UNK N   1      31.810  15.165  10.687  0.00  0.00    -0.388 OA
HETATM   45  H   UNK N   1      31.384  15.150  11.559  0.00  0.00     0.210 HD
ENDBRANCH  38  44
BRANCH  39  46
HETATM   46  N   UNK N   1      29.891  16.769   8.394  0.00  0.00     0.087 N 
HETATM   47  C   UNK N   1      29.029  17.669   9.149  0.00  0.00     0.310 C 
HETATM   48  C   UNK N   1      30.001  17.277   7.036  0.00  0.00     0.310 C 
ENDBRANCH  39  46
ENDBRANCH  36  37
ENDBRANCH   5  36
BRANCH  11  49
HETATM   49  O   UNK N   1      34.566  13.807  11.402  0.00  0.00    -0.383 OA
HETATM   50  C   UNK N   1      35.162  14.866  12.115  0.00  0.00     0.202 C 
ENDBRANCH  11  49
BRANCH  12  51
HETATM   51  C   UNK N   1      38.244   8.388   6.186  0.00  0.00     0.031 C 
HETATM   52  C   UNK N   1      39.674   8.641   5.741  0.00  0.00     0.007 C 
ENDBRANCH  12  51
BRANCH   3  53
HETATM   53  O   UNK N   1      38.802   7.692   9.031  0.00  0.00    -0.385 OA
HETATM   54  H   UNK N   1      39.374   7.819   9.804  0.00  0.00     0.210 HD
ENDBRANCH   3  53
BRANCH   9  55
HETATM   55  O   UNK N   1      38.565  10.391   9.923  0.00  0.00    -0.392 OA
HETATM   56  H   UNK N   1      39.187  11.113  10.096  0.00  0.00     0.210 HD
ENDBRANCH   9  55
TORSDOF 12
ENDMDL
MODEL 5
REMARK VINA RESULT:      -6.4      3.033      8.564
REMARK  12 active torsions:
REMARK  status: ('A' for Active; 'I' for Inactive)
REMARK    1  A    between atoms: O_13  and  C_1 
REMARK    2  A    between atoms: C_2  and  O_23 
REMARK    3  A    between atoms: C_4  and  O_32 
REMARK    4  A    between atoms: C_6  and  O_33 
REMARK    5  A    between atoms: C_7  and  O_13 
REMARK    6  A    between atoms: C_11  and  O_34 
REMARK    7  A    between atoms: C_14  and  O_35 
REMARK    8  A    between atoms: C_15  and  N_28 
REMARK    9  A    between atoms: C_16  and  O_36 
REMARK   10  A    between atoms: C_17  and  O_23 
REMARK   11  A    between atoms: C_21  and  C_44 
REMARK   12  A    between atoms: C_22  and  O_37 
ROOT
HETATM    1  C   UNK N   1      25.748  13.491   3.015  0.00  0.00     0.144 C 
HETATM    2  C   UNK N   1      28.049  12.737   3.572  0.00  0.00     0.265 C 
HETATM    3  C   UNK N   1      30.764  14.546   3.525  0.00  0.00     0.107 C 
HETATM    4  C   UNK N   1      26.673  13.002   4.136  0.00  0.00     0.111 C 
HETATM    5  C   UNK N   1      25.079  15.927   3.876  0.00  0.00     0.165 C 
HETATM    6  C   UNK N   1      25.806  15.024   2.846  0.00  0.00     0.043 C 
HETATM    7  C   UNK N   1      30.565  16.621   5.065  0.00  0.00     0.083 C 
HETATM    8  O   UNK N   1      28.618  13.675   2.772  0.00  0.00    -0.312 OA
HETATM    9  C   UNK N   1      30.004  15.838   3.870  0.00  0.00     0.165 C 
HETATM   10  C   UNK N   1      29.568  17.479   5.817  0.00  0.00     0.137 C 
HETATM   11  C   UNK N   1      25.906  17.151   4.384  0.00  0.00     0.084 C 
HETATM   12  C   UNK N   1      29.959  13.802   2.443  0.00  0.00     0.168 C 
HETATM   13  C   UNK N   1      28.260  17.942   5.229  0.00  0.00     0.054 C 
HETATM   14  C   UNK N   1      27.357  16.767   4.789  0.00  0.00     0.052 C 
HETATM   15  O   UNK N   1      28.628  11.690   3.818  0.00  0.00    -0.265 OA
HETATM   16  O   UNK N   1      29.848  17.834   6.950  0.00  0.00    -0.297 OA
HETATM   17  C   UNK N   1      30.900  13.689   4.779  0.00  0.00     0.051 C 
HETATM   18  C   UNK N   1      26.136  11.792   4.896  0.00  0.00     0.023 C 
HETATM   19  C   UNK N   1      25.470  15.452   1.432  0.00  0.00     0.015 C 
HETATM   20  C   UNK N   1      31.831  17.397   4.726  0.00  0.00     0.020 C 
HETATM   21  C   UNK N   1      25.970  18.086   3.186  0.00  0.00     0.049 C 
HETATM   22  C   UNK N   1      28.555  18.932   4.113  0.00  0.00     0.018 C 
ENDROOT
BRANCH   1  23
HETATM   23  O   UNK N   1      24.441  12.969   3.095  0.00  0.00    -0.355 OA
BRANCH  23  24
HETATM   24  C   UNK N   1      24.080  12.429   1.833  0.00  0.00     0.263 C 
HETATM   25  C   UNK N   1      22.618  12.770   1.491  0.00  0.00     0.101 C 
HETATM   26  C   UNK N   1      21.603  11.937   2.309  0.00  0.00     0.089 C 
HETATM   27  C   UNK N   1      21.649  12.428   3.750  0.00  0.00     0.049 C 
HETATM   28  C   UNK N   1      22.016  10.446   2.293  0.00  0.00     0.181 C 
HETATM   29  C   UNK N   1      23.497  10.348   2.673  0.00  0.00     0.152 C 
HETATM   30  O   UNK N   1      24.296  11.026   1.727  0.00  0.00    -0.354 OA
HETATM   31  C   UNK N   1      23.946   8.902   2.778  0.00  0.00     0.042 C 
BRANCH  26  32
HETATM   32  O   UNK N   1      20.259  12.118   1.889  0.00  0.00    -0.383 OA
HETATM   33  C   UNK N   1      19.374  12.118   2.982  0.00  0.00     0.202 C 
ENDBRANCH  26  32
BRANCH  28  34
HETATM   34  O   UNK N   1      21.827   9.876   1.029  0.00  0.00    -0.390 OA
HETATM   35  H   UNK N   1      21.913  10.053   0.080  0.00  0.00     0.210 HD
ENDBRANCH  28  34
ENDBRANCH  23  24
ENDBRANCH   1  23
BRANCH   5  36
HETATM   36  O   UNK N   1      24.333  15.250   4.857  0.00  0.00    -0.350 OA
BRANCH  36  37
HETATM   37  C   UNK N   1      22.937  15.462   4.643  0.00  0.00     0.291 C 
HETATM   38  C   UNK N   1      22.168  16.048   5.868  0.00  0.00     0.206 C 
HETATM   39  C   UNK N   1      20.659  16.145   5.568  0.00  0.00     0.257 C 
HETATM   40  C   UNK N   1      20.316  15.765   4.135  0.00  0.00     0.070 C 
HETATM   41  C   UNK N   1      21.318  16.448   3.192  0.00  0.00     0.122 C 
HETATM   42  O   UNK N   1      22.705  16.245   3.479  0.00  0.00    -0.354 OA
HETATM   43  C   UNK N   1      21.012  16.035   1.769  0.00  0.00     0.040 C 
BRANCH  38  44
HETATM   44  O   UNK N   1      22.597  17.343   6.166  0.00  0.00    -0.388 OA
HETATM   45  H   UNK N   1      23.005  17.970   6.783  0.00  0.00     0.210 HD
ENDBRANCH  38  44
BRANCH  39  46
HETATM   46  N   UNK N   1      19.796  15.465   6.541  0.00  0.00     0.087 N 
HETATM   47  C   UNK N   1      20.433  14.267   7.073  0.00  0.00     0.310 C 
HETATM   48  C   UNK N   1      19.526  16.367   7.649  0.00  0.00     0.310 C 
ENDBRANCH  39  46
ENDBRANCH  36  37
ENDBRANCH   5  36
BRANCH  11  49
HETATM   49  O   UNK N   1      25.236  17.864   5.415  0.00  0.00    -0.383 OA
HETATM   50  C   UNK N   1      24.887  19.160   4.985  0.00  0.00     0.202 C 
ENDBRANCH  11  49
BRANCH  12  51
HETATM   51  C   UNK N   1      30.598  12.595   1.728  0.00  0.00     0.031 C 
HETATM   52  C   UNK N   1      29.918  12.192   0.430  0.00  0.00     0.007 C 
ENDBRANCH  12  51
BRANCH   3  53
HETATM   53  O   UNK N   1      32.037  14.852   3.040  0.00  0.00    -0.385 OA
HETATM   54  H   UNK N   1      32.206  15.505   2.342  0.00  0.00     0.210 HD
ENDBRANCH   3  53
BRANCH   9  55
HETATM   55  O   UNK N   1      29.847  16.655   2.744  0.00  0.00    -0.392 OA
HETATM   56  H   UNK N   1      29.581  17.320   2.090  0.00  0.00     0.210 HD
ENDBRANCH   9  55
TORSDOF 12
ENDMDL
MODEL 6
REMARK VINA RESULT:      -6.4      2.118      3.719
REMARK  12 active torsions:
REMARK  status: ('A' for Active; 'I' for Inactive)
REMARK    1  A    between atoms: O_13  and  C_1 
REMARK    2  A    between atoms: C_2  and  O_23 
REMARK    3  A    between atoms: C_4  and  O_32 
REMARK    4  A    between atoms: C_6  and  O_33 
REMARK    5  A    between atoms: C_7  and  O_13 
REMARK    6  A    between atoms: C_11  and  O_34 
REMARK    7  A    between atoms: C_14  and  O_35 
REMARK    8  A    between atoms: C_15  and  N_28 
REMARK    9  A    between atoms: C_16  and  O_36 
REMARK   10  A    between atoms: C_17  and  O_23 
REMARK   11  A    between atoms: C_21  and  C_44 
REMARK   12  A    between atoms: C_22  and  O_37 
ROOT
HETATM    1  C   UNK N   1      25.419  14.361   3.743  0.00  0.00     0.144 C 
HETATM    2  C   UNK N   1      24.919  11.958   3.356  0.00  0.00     0.265 C 
HETATM    3  C   UNK N   1      26.592   9.893   1.463  0.00  0.00     0.107 C 
HETATM    4  C   UNK N   1      25.368  12.968   4.384  0.00  0.00     0.111 C 
HETATM    5  C   UNK N   1      28.001  14.989   3.993  0.00  0.00     0.165 C 
HETATM    6  C   UNK N   1      26.788  14.645   3.090  0.00  0.00     0.043 C 
HETATM    7  C   UNK N   1      29.083   9.747   2.164  0.00  0.00     0.083 C 
HETATM    8  O   UNK N   1      25.506  11.968   2.131  0.00  0.00    -0.312 OA
HETATM    9  C   UNK N   1      27.921  10.633   1.694  0.00  0.00     0.165 C 
HETATM   10  C   UNK N   1      30.154  10.442   2.981  0.00  0.00     0.137 C 
HETATM   11  C   UNK N   1      29.326  14.246   3.632  0.00  0.00     0.084 C 
HETATM   12  C   UNK N   1      25.507  10.951   1.188  0.00  0.00     0.168 C 
HETATM   13  C   UNK N   1      30.371  11.934   2.967  0.00  0.00     0.054 C 
HETATM   14  C   UNK N   1      29.116  12.722   3.404  0.00  0.00     0.052 C 
HETATM   15  O   UNK N   1      24.032  11.159   3.618  0.00  0.00    -0.265 OA
HETATM   16  O   UNK N   1      30.894   9.759   3.669  0.00  0.00    -0.297 OA
HETATM   17  C   UNK N   1      26.246   9.076   2.703  0.00  0.00     0.051 C 
HETATM   18  C   UNK N   1      24.513  12.901   5.648  0.00  0.00     0.023 C 
HETATM   19  C   UNK N   1      26.676  15.636   1.949  0.00  0.00     0.015 C 
HETATM   20  C   UNK N   1      29.686   8.913   1.043  0.00  0.00     0.020 C 
HETATM   21  C   UNK N   1      29.766  14.875   2.320  0.00  0.00     0.049 C 
HETATM   22  C   UNK N   1      30.893  12.334   1.595  0.00  0.00     0.018 C 
ENDROOT
BRANCH   1  23
HETATM   23  O   UNK N   1      24.959  15.388   4.591  0.00  0.00    -0.355 OA
BRANCH  23  24
HETATM   24  C   UNK N   1      24.239  16.337   3.820  0.00  0.00     0.263 C 
HETATM   25  C   UNK N   1      23.587  17.397   4.727  0.00  0.00     0.101 C 
HETATM   26  C   UNK N   1      22.355  16.855   5.490  0.00  0.00     0.089 C 
HETATM   27  C   UNK N   1      22.854  15.883   6.551  0.00  0.00     0.049 C 
HETATM   28  C   UNK N   1      21.436  16.079   4.517  0.00  0.00     0.181 C 
HETATM   29  C   UNK N   1      22.293  15.078   3.733  0.00  0.00     0.152 C 
HETATM   30  O   UNK N   1      23.262  15.756   2.962  0.00  0.00    -0.354 OA
HETATM   31  C   UNK N   1      21.439  14.208   2.831  0.00  0.00     0.042 C 
BRANCH  26  32
HETATM   32  O   UNK N   1      21.647  17.860   6.199  0.00  0.00    -0.383 OA
HETATM   33  C   UNK N   1      20.758  17.301   7.135  0.00  0.00     0.202 C 
ENDBRANCH  26  32
BRANCH  28  34
HETATM   34  O   UNK N   1      20.798  16.940   3.618  0.00  0.00    -0.390 OA
HETATM   35  H   UNK N   1      20.389  17.816   3.544  0.00  0.00     0.210 HD
ENDBRANCH  28  34
ENDBRANCH  23  24
ENDBRANCH   1  23
BRANCH   5  36
HETATM   36  O   UNK N   1      27.722  15.100   5.368  0.00  0.00    -0.350 OA
BRANCH  36  37
HETATM   37  C   UNK N   1      27.834  16.463   5.780  0.00  0.00     0.291 C 
HETATM   38  C   UNK N   1      28.802  16.707   6.980  0.00  0.00     0.206 C 
HETATM   39  C   UNK N   1      28.774  18.187   7.409  0.00  0.00     0.257 C 
HETATM   40  C   UNK N   1      27.916  19.051   6.496  0.00  0.00     0.070 C 
HETATM   41  C   UNK N   1      28.238  18.695   5.037  0.00  0.00     0.122 C 
HETATM   42  O   UNK N   1      28.160  17.310   4.686  0.00  0.00    -0.354 OA
HETATM   43  C   UNK N   1      27.353  19.516   4.126  0.00  0.00     0.040 C 
BRANCH  38  44
HETATM   44  O   UNK N   1      30.123  16.419   6.633  0.00  0.00    -0.388 OA
HETATM   45  H   UNK N   1      31.046  16.702   6.540  0.00  0.00     0.210 HD
ENDBRANCH  38  44
BRANCH  39  46
HETATM   46  N   UNK N   1      28.466  18.407   8.827  0.00  0.00     0.087 N 
HETATM   47  C   UNK N   1      27.855  17.230   9.429  0.00  0.00     0.310 C 
HETATM   48  C   UNK N   1      29.699  18.696   9.542  0.00  0.00     0.310 C 
ENDBRANCH  39  46
ENDBRANCH  36  37
ENDBRANCH   5  36
BRANCH  11  49
HETATM   49  O   UNK N   1      30.363  14.505   4.570  0.00  0.00    -0.383 OA
HETATM   50  C   UNK N   1      31.425  15.204   3.964  0.00  0.00     0.202 C 
ENDBRANCH  11  49
BRANCH  12  51
HETATM   51  C   UNK N   1      24.125  10.496   0.682  0.00  0.00     0.031 C 
HETATM   52  C   UNK N   1      23.338  11.560  -0.064  0.00  0.00     0.007 C 
ENDBRANCH  12  51
BRANCH   3  53
HETATM   53  O   UNK N   1      26.705   9.036   0.367  0.00  0.00    -0.385 OA
HETATM   54  H   UNK N   1      26.959   8.102   0.435  0.00  0.00     0.210 HD
ENDBRANCH   3  53
BRANCH   9  55
HETATM   55  O   UNK N   1      28.277  11.406   0.583  0.00  0.00    -0.392 OA
HETATM   56  H   UNK N   1      28.301  11.939  -0.227  0.00  0.00     0.210 HD
ENDBRANCH   9  55
TORSDOF 12
ENDMDL
MODEL 7
REMARK VINA RESULT:      -6.3      2.947      8.831
REMARK  12 active torsions:
REMARK  status: ('A' for Active; 'I' for Inactive)
REMARK    1  A    between atoms: O_13  and  C_1 
REMARK    2  A    between atoms: C_2  and  O_23 
REMARK    3  A    between atoms: C_4  and  O_32 
REMARK    4  A    between atoms: C_6  and  O_33 
REMARK    5  A    between atoms: C_7  and  O_13 
REMARK    6  A    between atoms: C_11  and  O_34 
REMARK    7  A    between atoms: C_14  and  O_35 
REMARK    8  A    between atoms: C_15  and  N_28 
REMARK    9  A    between atoms: C_16  and  O_36 
REMARK   10  A    between atoms: C_17  and  O_23 
REMARK   11  A    between atoms: C_21  and  C_44 
REMARK   12  A    between atoms: C_22  and  O_37 
ROOT
HETATM    1  C   UNK N   1      25.768  13.602   2.627  0.00  0.00     0.144 C 
HETATM    2  C   UNK N   1      27.971  12.741   3.389  0.00  0.00     0.265 C 
HETATM    3  C   UNK N   1      30.707  14.469   3.809  0.00  0.00     0.107 C 
HETATM    4  C   UNK N   1      26.544  13.001   3.806  0.00  0.00     0.111 C 
HETATM    5  C   UNK N   1      25.048  15.982   3.599  0.00  0.00     0.165 C 
HETATM    6  C   UNK N   1      25.876  15.142   2.592  0.00  0.00     0.043 C 
HETATM    7  C   UNK N   1      30.365  16.423   5.478  0.00  0.00     0.083 C 
HETATM    8  O   UNK N   1      28.650  13.723   2.740  0.00  0.00    -0.312 OA
HETATM    9  C   UNK N   1      29.936  15.752   4.166  0.00  0.00     0.165 C 
HETATM   10  C   UNK N   1      29.302  17.247   6.175  0.00  0.00     0.137 C 
HETATM   11  C   UNK N   1      25.832  17.137   4.298  0.00  0.00     0.084 C 
HETATM   12  C   UNK N   1      30.024  13.836   2.583  0.00  0.00     0.168 C 
HETATM   13  C   UNK N   1      28.082  17.792   5.476  0.00  0.00     0.054 C 
HETATM   14  C   UNK N   1      27.216  16.682   4.839  0.00  0.00     0.052 C 
HETATM   15  O   UNK N   1      28.497  11.662   3.616  0.00  0.00    -0.265 OA
HETATM   16  O   UNK N   1      29.450  17.504   7.358  0.00  0.00    -0.297 OA
HETATM   17  C   UNK N   1      30.675  13.514   4.997  0.00  0.00     0.051 C 
HETATM   18  C   UNK N   1      25.896  11.750   4.397  0.00  0.00     0.023 C 
HETATM   19  C   UNK N   1      25.720  15.689   1.187  0.00  0.00     0.015 C 
HETATM   20  C   UNK N   1      31.676  17.186   5.355  0.00  0.00     0.020 C 
HETATM   21  C   UNK N   1      26.057  18.161   3.196  0.00  0.00     0.049 C 
HETATM   22  C   UNK N   1      28.527  18.858   4.487  0.00  0.00     0.018 C 
ENDROOT
BRANCH   1  23
HETATM   23  O   UNK N   1      24.452  13.113   2.511  0.00  0.00    -0.355 OA
BRANCH  23  24
HETATM   24  C   UNK N   1      24.183  12.829   1.146  0.00  0.00     0.263 C 
HETATM   25  C   UNK N   1      22.727  12.364   0.961  0.00  0.00     0.101 C 
HETATM   26  C   UNK N   1      22.492  10.920   1.466  0.00  0.00     0.089 C 
HETATM   27  C   UNK N   1      22.562  10.941   2.988  0.00  0.00     0.049 C 
HETATM   28  C   UNK N   1      23.615   9.993   0.943  0.00  0.00     0.181 C 
HETATM   29  C   UNK N   1      24.966  10.649   1.245  0.00  0.00     0.152 C 
HETATM   30  O   UNK N   1      25.079  11.884   0.571  0.00  0.00    -0.354 OA
HETATM   31  C   UNK N   1      26.119   9.744   0.851  0.00  0.00     0.042 C 
BRANCH  26  32
HETATM   32  O   UNK N   1      21.202  10.419   1.153  0.00  0.00    -0.383 OA
HETATM   33  C   UNK N   1      20.320  11.454   0.795  0.00  0.00     0.202 C 
ENDBRANCH  26  32
BRANCH  28  34
HETATM   34  O   UNK N   1      23.504   9.783  -0.436  0.00  0.00    -0.390 OA
HETATM   35  H   UNK N   1      23.863  10.061  -1.292  0.00  0.00     0.210 HD
ENDBRANCH  28  34
ENDBRANCH  23  24
ENDBRANCH   1  23
BRANCH   5  36
HETATM   36  O   UNK N   1      24.177  15.251   4.427  0.00  0.00    -0.350 OA
BRANCH  36  37
HETATM   37  C   UNK N   1      22.903  15.893   4.483  0.00  0.00     0.291 C 
HETATM   38  C   UNK N   1      22.037  15.745   3.193  0.00  0.00     0.206 C 
HETATM   39  C   UNK N   1      20.731  16.555   3.318  0.00  0.00     0.257 C 
HETATM   40  C   UNK N   1      20.557  17.188   4.690  0.00  0.00     0.070 C 
HETATM   41  C   UNK N   1      20.902  16.142   5.762  0.00  0.00     0.122 C 
HETATM   42  O   UNK N   1      22.169  15.490   5.633  0.00  0.00    -0.354 OA
HETATM   43  C   UNK N   1      20.778  16.780   7.127  0.00  0.00     0.040 C 
BRANCH  38  44
HETATM   44  O   UNK N   1      21.662  14.418   2.982  0.00  0.00    -0.388 OA
HETATM   45  H   UNK N   1      21.658  13.491   3.270  0.00  0.00     0.210 HD
ENDBRANCH  38  44
BRANCH  39  46
HETATM   46  N   UNK N   1      20.500  17.516   2.233  0.00  0.00     0.087 N 
HETATM   47  C   UNK N   1      19.938  16.868   1.056  0.00  0.00     0.310 C 
HETATM   48  C   UNK N   1      19.561  18.529   2.688  0.00  0.00     0.310 C 
ENDBRANCH  39  46
ENDBRANCH  36  37
ENDBRANCH   5  36
BRANCH  11  49
HETATM   49  O   UNK N   1      25.057  17.787   5.298  0.00  0.00    -0.383 OA
HETATM   50  C   UNK N   1      24.651  19.066   4.868  0.00  0.00     0.202 C 
ENDBRANCH  11  49
BRANCH  12  51
HETATM   51  C   UNK N   1      30.720  12.672   1.852  0.00  0.00     0.031 C 
HETATM   52  C   UNK N   1      30.114  12.312   0.506  0.00  0.00     0.007 C 
ENDBRANCH  12  51
BRANCH   3  53
HETATM   53  O   UNK N   1      32.034  14.777   3.504  0.00  0.00    -0.385 OA
HETATM   54  H   UNK N   1      32.738  14.854   4.169  0.00  0.00     0.210 HD
ENDBRANCH   3  53
BRANCH   9  55
HETATM   55  O   UNK N   1      29.930  16.659   3.099  0.00  0.00    -0.392 OA
HETATM   56  H   UNK N   1      30.149  17.261   2.371  0.00  0.00     0.210 HD
ENDBRANCH   9  55
TORSDOF 12
ENDMDL
MODEL 8
REMARK VINA RESULT:      -6.2     12.119     15.451
REMARK  12 active torsions:
REMARK  status: ('A' for Active; 'I' for Inactive)
REMARK    1  A    between atoms: O_13  and  C_1 
REMARK    2  A    between atoms: C_2  and  O_23 
REMARK    3  A    between atoms: C_4  and  O_32 
REMARK    4  A    between atoms: C_6  and  O_33 
REMARK    5  A    between atoms: C_7  and  O_13 
REMARK    6  A    between atoms: C_11  and  O_34 
REMARK    7  A    between atoms: C_14  and  O_35 
REMARK    8  A    between atoms: C_15  and  N_28 
REMARK    9  A    between atoms: C_16  and  O_36 
REMARK   10  A    between atoms: C_17  and  O_23 
REMARK   11  A    between atoms: C_21  and  C_44 
REMARK   12  A    between atoms: C_22  and  O_37 
ROOT
HETATM    1  C   UNK N   1      29.927  24.390  -5.176  0.00  0.00     0.144 C 
HETATM    2  C   UNK N   1      30.535  22.018  -4.749  0.00  0.00     0.265 C 
HETATM    3  C   UNK N   1      33.049  20.383  -6.033  0.00  0.00     0.107 C 
HETATM    4  C   UNK N   1      30.440  23.392  -4.129  0.00  0.00     0.111 C 
HETATM    5  C   UNK N   1      31.966  26.102  -5.349  0.00  0.00     0.165 C 
HETATM    6  C   UNK N   1      31.079  25.008  -5.996  0.00  0.00     0.043 C 
HETATM    7  C   UNK N   1      35.311  21.545  -5.532  0.00  0.00     0.083 C 
HETATM    8  O   UNK N   1      31.136  21.889  -5.960  0.00  0.00    -0.312 OA
HETATM    9  C   UNK N   1      33.913  21.650  -6.156  0.00  0.00     0.165 C 
HETATM   10  C   UNK N   1      35.924  22.850  -5.065  0.00  0.00     0.137 C 
HETATM   11  C   UNK N   1      33.502  25.924  -5.569  0.00  0.00     0.084 C 
HETATM   12  C   UNK N   1      31.634  20.729  -6.535  0.00  0.00     0.168 C 
HETATM   13  C   UNK N   1      35.480  24.201  -5.563  0.00  0.00     0.054 C 
HETATM   14  C   UNK N   1      33.982  24.472  -5.291  0.00  0.00     0.052 C 
HETATM   15  O   UNK N   1      30.063  21.047  -4.178  0.00  0.00    -0.265 OA
HETATM   16  O   UNK N   1      36.841  22.804  -4.262  0.00  0.00    -0.297 OA
HETATM   17  C   UNK N   1      33.010  19.936  -4.576  0.00  0.00     0.051 C 
HETATM   18  C   UNK N   1      29.618  23.371  -2.842  0.00  0.00     0.023 C 
HETATM   19  C   UNK N   1      30.624  25.437  -7.377  0.00  0.00     0.015 C 
HETATM   20  C   UNK N   1      36.283  20.739  -6.382  0.00  0.00     0.020 C 
HETATM   21  C   UNK N   1      33.710  26.228  -7.044  0.00  0.00     0.049 C 
HETATM   22  C   UNK N   1      35.864  24.327  -7.029  0.00  0.00     0.018 C 
ENDROOT
BRANCH   1  23
HETATM   23  O   UNK N   1      29.018  25.332  -4.656  0.00  0.00    -0.355 OA
BRANCH  23  24
HETATM   24  C   UNK N   1      27.699  24.819  -4.774  0.00  0.00     0.263 C 
HETATM   25  C   UNK N   1      27.179  24.971  -6.215  0.00  0.00     0.101 C 
HETATM   26  C   UNK N   1      26.805  26.432  -6.564  0.00  0.00     0.089 C 
HETATM   27  C   UNK N   1      28.096  27.231  -6.672  0.00  0.00     0.049 C 
HETATM   28  C   UNK N   1      25.954  27.040  -5.424  0.00  0.00     0.181 C 
HETATM   29  C   UNK N   1      26.666  26.780  -4.093  0.00  0.00     0.152 C 
HETATM   30  O   UNK N   1      26.777  25.393  -3.854  0.00  0.00    -0.354 OA
HETATM   31  C   UNK N   1      25.937  27.441  -2.938  0.00  0.00     0.042 C 
BRANCH  26  32
HETATM   32  O   UNK N   1      26.170  26.563  -7.827  0.00  0.00    -0.383 OA
HETATM   33  C   UNK N   1      25.988  25.312  -8.444  0.00  0.00     0.202 C 
ENDBRANCH  26  32
BRANCH  28  34
HETATM   34  O   UNK N   1      24.676  26.472  -5.380  0.00  0.00    -0.390 OA
HETATM   35  H   UNK N   1      23.754  26.620  -5.641  0.00  0.00     0.210 HD
ENDBRANCH  28  34
ENDBRANCH  23  24
ENDBRANCH   1  23
BRANCH   5  36
HETATM   36  O   UNK N   1      31.580  26.514  -4.061  0.00  0.00    -0.350 OA
BRANCH  36  37
HETATM   37  C   UNK N   1      30.846  27.736  -4.137  0.00  0.00     0.291 C 
HETATM   38  C   UNK N   1      30.595  28.437  -2.765  0.00  0.00     0.206 C 
HETATM   39  C   UNK N   1      29.713  29.688  -2.946  0.00  0.00     0.257 C 
HETATM   40  C   UNK N   1      29.410  29.991  -4.406  0.00  0.00     0.070 C 
HETATM   41  C   UNK N   1      30.710  29.862  -5.215  0.00  0.00     0.122 C 
HETATM   42  O   UNK N   1      31.435  28.638  -5.065  0.00  0.00    -0.354 OA
HETATM   43  C   UNK N   1      30.405  30.114  -6.675  0.00  0.00     0.040 C 
BRANCH  38  44
HETATM   44  O   UNK N   1      31.791  28.874  -2.192  0.00  0.00    -0.388 OA
HETATM   45  H   UNK N   1      32.409  28.882  -1.445  0.00  0.00     0.210 HD
ENDBRANCH  38  44
BRANCH  39  46
HETATM   46  N   UNK N   1      28.503  29.709  -2.116  0.00  0.00     0.087 N 
HETATM   47  C   UNK N   1      28.823  29.938  -0.713  0.00  0.00     0.310 C 
HETATM   48  C   UNK N   1      27.636  30.785  -2.566  0.00  0.00     0.310 C 
ENDBRANCH  39  46
ENDBRANCH  36  37
ENDBRANCH   5  36
BRANCH  11  49
HETATM   49  O   UNK N   1      34.264  26.884  -4.849  0.00  0.00    -0.383 OA
HETATM   50  C   UNK N   1      34.790  27.862  -5.716  0.00  0.00     0.202 C 
ENDBRANCH  11  49
BRANCH  12  51
HETATM   51  C   UNK N   1      30.617  19.593  -6.756  0.00  0.00     0.031 C 
HETATM   52  C   UNK N   1      29.436  19.960  -7.639  0.00  0.00     0.007 C 
ENDBRANCH  12  51
BRANCH   3  53
HETATM   53  O   UNK N   1      33.588  19.357  -6.813  0.00  0.00    -0.385 OA
HETATM   54  H   UNK N   1      33.175  19.021  -7.624  0.00  0.00     0.210 HD
ENDBRANCH   3  53
BRANCH   9  55
HETATM   55  O   UNK N   1      33.970  22.104  -7.480  0.00  0.00    -0.392 OA
HETATM   56  H   UNK N   1      33.962  22.204  -8.444  0.00  0.00     0.210 HD
ENDBRANCH   9  55
TORSDOF 12
ENDMDL
MODEL 9
REMARK VINA RESULT:      -6.2      6.407     11.659
REMARK  12 active torsions:
REMARK  status: ('A' for Active; 'I' for Inactive)
REMARK    1  A    between atoms: O_13  and  C_1 
REMARK    2  A    between atoms: C_2  and  O_23 
REMARK    3  A    between atoms: C_4  and  O_32 
REMARK    4  A    between atoms: C_6  and  O_33 
REMARK    5  A    between atoms: C_7  and  O_13 
REMARK    6  A    between atoms: C_11  and  O_34 
REMARK    7  A    between atoms: C_14  and  O_35 
REMARK    8  A    between atoms: C_15  and  N_28 
REMARK    9  A    between atoms: C_16  and  O_36 
REMARK   10  A    between atoms: C_17  and  O_23 
REMARK   11  A    between atoms: C_21  and  C_44 
REMARK   12  A    between atoms: C_22  and  O_37 
ROOT
HETATM    1  C   UNK N   1      34.957  10.675   9.098  0.00  0.00     0.144 C 
HETATM    2  C   UNK N   1      34.850   8.999  10.930  0.00  0.00     0.265 C 
HETATM    3  C   UNK N   1      36.320   9.184  13.837  0.00  0.00     0.107 C 
HETATM    4  C   UNK N   1      34.051  10.009  10.141  0.00  0.00     0.111 C 
HETATM    5  C   UNK N   1      34.877  13.234   9.853  0.00  0.00     0.165 C 
HETATM    6  C   UNK N   1      35.675  11.917   9.667  0.00  0.00     0.043 C 
HETATM    7  C   UNK N   1      35.644  11.330  15.124  0.00  0.00     0.083 C 
HETATM    8  O   UNK N   1      36.061   9.367  11.422  0.00  0.00    -0.312 OA
HETATM    9  C   UNK N   1      36.262  10.721  13.858  0.00  0.00     0.165 C 
HETATM   10  C   UNK N   1      34.998  12.690  14.954  0.00  0.00     0.137 C 
HETATM   11  C   UNK N   1      35.104  13.957  11.218  0.00  0.00     0.084 C 
HETATM   12  C   UNK N   1      36.783   8.750  12.433  0.00  0.00     0.168 C 
HETATM   13  C   UNK N   1      35.312  13.622  13.811  0.00  0.00     0.054 C 
HETATM   14  C   UNK N   1      35.022  12.989  12.431  0.00  0.00     0.052 C 
HETATM   15  O   UNK N   1      34.420   7.869  11.105  0.00  0.00    -0.265 OA
HETATM   16  O   UNK N   1      34.200  13.063  15.798  0.00  0.00    -0.297 OA
HETATM   17  C   UNK N   1      34.938   8.621  14.146  0.00  0.00     0.051 C 
HETATM   18  C   UNK N   1      32.786   9.387   9.553  0.00  0.00     0.023 C 
HETATM   19  C   UNK N   1      36.989  12.185   8.961  0.00  0.00     0.015 C 
HETATM   20  C   UNK N   1      36.586  11.300  16.319  0.00  0.00     0.020 C 
HETATM   21  C   UNK N   1      36.523  14.499  11.127  0.00  0.00     0.049 C 
HETATM   22  C   UNK N   1      36.745  14.111  13.965  0.00  0.00     0.018 C 
ENDROOT
BRANCH   1  23
HETATM   23  O   UNK N   1      34.323  10.892   7.859  0.00  0.00    -0.355 OA
BRANCH  23  24
HETATM   24  C   UNK N   1      35.130  10.349   6.824  0.00  0.00     0.263 C 
HETATM   25  C   UNK N   1      35.104  11.253   5.578  0.00  0.00     0.101 C 
HETATM   26  C   UNK N   1      33.772  11.157   4.798  0.00  0.00     0.089 C 
HETATM   27  C   UNK N   1      32.694  11.840   5.630  0.00  0.00     0.049 C 
HETATM   28  C   UNK N   1      33.376   9.673   4.617  0.00  0.00     0.181 C 
HETATM   29  C   UNK N   1      33.461   8.978   5.980  0.00  0.00     0.152 C 
HETATM   30  O   UNK N   1      34.784   9.013   6.471  0.00  0.00    -0.354 OA
HETATM   31  C   UNK N   1      32.986   7.539   5.896  0.00  0.00     0.042 C 
BRANCH  26  32
HETATM   32  O   UNK N   1      33.795  11.854   3.561  0.00  0.00    -0.383 OA
HETATM   33  C   UNK N   1      32.563  12.481   3.301  0.00  0.00     0.202 C 
ENDBRANCH  26  32
BRANCH  28  34
HETATM   34  O   UNK N   1      34.226   9.023   3.715  0.00  0.00    -0.390 OA
HETATM   35  H   UNK N   1      34.356   8.188   3.238  0.00  0.00     0.210 HD
ENDBRANCH  28  34
ENDBRANCH  23  24
ENDBRANCH   1  23
BRANCH   5  36
HETATM   36  O   UNK N   1      33.548  13.209   9.392  0.00  0.00    -0.350 OA
BRANCH  36  37
HETATM   37  C   UNK N   1      33.423  14.014   8.220  0.00  0.00     0.291 C 
HETATM   38  C   UNK N   1      32.291  15.087   8.280  0.00  0.00     0.206 C 
HETATM   39  C   UNK N   1      32.173  15.831   6.935  0.00  0.00     0.257 C 
HETATM   40  C   UNK N   1      33.250  15.424   5.939  0.00  0.00     0.070 C 
HETATM   41  C   UNK N   1      34.603  15.388   6.665  0.00  0.00     0.122 C 
HETATM   42  O   UNK N   1      34.664  14.608   7.863  0.00  0.00    -0.354 OA
HETATM   43  C   UNK N   1      35.670  14.938   5.692  0.00  0.00     0.040 C 
BRANCH  38  44
HETATM   44  O   UNK N   1      32.562  16.057   9.247  0.00  0.00    -0.388 OA
HETATM   45  H   UNK N   1      33.167  16.707   9.636  0.00  0.00     0.210 HD
ENDBRANCH  38  44
BRANCH  39  46
HETATM   46  N   UNK N   1      30.833  15.809   6.338  0.00  0.00     0.087 N 
HETATM   47  C   UNK N   1      30.170  17.099   6.469  0.00  0.00     0.310 C 
HETATM   48  C   UNK N   1      30.948  15.498   4.923  0.00  0.00     0.310 C 
ENDBRANCH  39  46
ENDBRANCH  36  37
ENDBRANCH   5  36
BRANCH  11  49
HETATM   49  O   UNK N   1      34.253  15.085  11.378  0.00  0.00    -0.383 OA
HETATM   50  C   UNK N   1      34.974  16.285  11.217  0.00  0.00     0.202 C 
ENDBRANCH  11  49
BRANCH  12  51
HETATM   51  C   UNK N   1      37.167   7.278  12.190  0.00  0.00     0.031 C 
HETATM   52  C   UNK N   1      38.078   7.046  10.996  0.00  0.00     0.007 C 
ENDBRANCH  12  51
BRANCH   3  53
HETATM   53  O   UNK N   1      37.226   8.725  14.795  0.00  0.00    -0.385 OA
HETATM   54  H   UNK N   1      37.359   9.148  15.659  0.00  0.00     0.210 HD
ENDBRANCH   3  53
BRANCH   9  55
HETATM   55  O   UNK N   1      37.511  11.285  13.569  0.00  0.00    -0.392 OA
HETATM   56  H   UNK N   1      38.452  11.503  13.493  0.00  0.00     0.210 HD
ENDBRANCH   9  55
TORSDOF 12
ENDMDL
