MODEL 1
REMARK VINA RESULT:      -7.3      0.000      0.000
REMARK  9 active torsions:
REMARK  status: ('A' for Active; 'I' for Inactive)
REMARK    1  A    between atoms: C_3  and  C_21 
REMARK    2  A    between atoms: C_7  and  N_9 
REMARK       I    between atoms: N_9  and  C_10 
REMARK    3  A    between atoms: C_10  and  C_13 
REMARK    4  A    between atoms: C_13  and  C_14 
REMARK    5  A    between atoms: C_17  and  N_24 
REMARK    6  A    between atoms: C_20  and  C_25 
REMARK    7  A    between atoms: C_21  and  O_23 
REMARK    8  A    between atoms: C_25  and  C_26 
REMARK    9  A    between atoms: C_26  and  O_28 
ROOT
HETATM    1  N   UNK N   1      22.274  16.165   6.310  0.00  0.00    -0.341 N 
HETATM    2  C   UNK N   1      21.396  15.233   6.761  0.00  0.00     0.254 C 
HETATM    3  O   UNK N   1      20.775  14.548   5.961  0.00  0.00    -0.268 OA
HETATM    4  H   UNK N   1      22.877  16.579   6.968  0.00  0.00     0.163 HD
ENDROOT
BRANCH   2   5
HETATM    5  C   UNK N   1      21.113  15.104   8.236  0.00  0.00     0.056 C 
HETATM    6  C   UNK N   1      20.224  15.909   8.871  0.00  0.00     0.003 C 
BRANCH   5   7
HETATM    7  C   UNK N   1      21.754  14.011   9.024  0.00  0.00     0.056 A 
HETATM    8  C   UNK N   1      23.024  13.472   8.701  0.00  0.00     0.083 A 
HETATM    9  S   UNK N   1      23.307  12.314   9.857  0.00  0.00    -0.064 SA
HETATM   10  C   UNK N   1      21.907  12.489  10.697  0.00  0.00     0.142 A 
HETATM   11  N   UNK N   1      21.147  13.454  10.136  0.00  0.00    -0.336 N 
ATOM     12  HN  UNK N   1      20.234  13.740  10.489  1.00  0.00     0.168 HD
BRANCH  10  13
HETATM   13  N   UNK N   1      21.526  11.745  11.831  0.00  0.00    -0.380 N 
HETATM   14  H   UNK N   1      20.918  10.976  11.738  0.00  0.00     0.158 HD
HETATM   15  H   UNK N   1      21.869  11.994  12.719  0.00  0.00     0.158 HD
ENDBRANCH  10  13
ENDBRANCH   5   7
BRANCH   6  16
HETATM   16  C   UNK N   1      19.460  17.028   8.217  0.00  0.00     0.138 C 
BRANCH  16  17
HETATM   17  C   UNK N   1      20.035  18.389   8.462  0.00  0.00     0.142 C 
HETATM   18  O   UNK N   1      20.792  18.873   7.637  0.00  0.00    -0.650 OA
BRANCH  17  19
HETATM   19  O   UNK N   1      19.723  19.088   9.571  0.00  0.00    -0.776 OA
HETATM   20  H   UNK N   1      20.268  19.798   9.849  0.00  0.00     0.167 HD
ENDBRANCH  17  19
ENDBRANCH  16  17
ENDBRANCH   6  16
ENDBRANCH   2   5
BRANCH   1  21
HETATM   21  C   UNK N   1      22.385  16.592   4.933  0.00  0.00     0.210 A 
HETATM   22  C   UNK N   1      21.423  17.859   4.632  0.00  0.00     0.187 A 
HETATM   23  N   UNK N   1      22.613  18.591   4.335  0.00  0.00    -0.294 N 
HETATM   24  S   UNK N   1      20.413  17.734   3.126  0.00  0.00    -0.137 SA
HETATM   25  C   UNK N   1      22.770  19.725   3.471  0.00  0.00     0.109 C 
HETATM   26  C   UNK N   1      23.427  17.626   4.655  0.00  0.00     0.251 A 
HETATM   27  C   UNK N   1      21.683  20.179   2.818  0.00  0.00     0.020 C 
HETATM   28  C   UNK N   1      20.322  19.564   3.028  0.00  0.00     0.105 C 
HETATM   29  O   UNK N   1      24.608  17.518   4.376  0.00  0.00    -0.271 OA
BRANCH  25  30
HETATM   30  C   UNK N   1      24.092  20.330   3.163  0.00  0.00     0.193 C 
HETATM   31  O   UNK N   1      24.352  20.729   2.041  0.00  0.00    -0.645 OA
BRANCH  30  32
HETATM   32  O   UNK N   1      25.023  20.441   4.132  0.00  0.00    -0.772 OA
HETATM   33  H   UNK N   1      24.761  20.527   5.026  0.00  0.00     0.167 HD
ENDBRANCH  30  32
ENDBRANCH  25  30
ENDBRANCH   1  21
TORSDOF 9
ENDMDL
MODEL 2
REMARK VINA RESULT:      -7.1      2.994      3.478
REMARK  9 active torsions:
REMARK  status: ('A' for Active; 'I' for Inactive)
REMARK    1  A    between atoms: C_3  and  C_21 
REMARK    2  A    between atoms: C_7  and  N_9 
REMARK       I    between atoms: N_9  and  C_10 
REMARK    3  A    between atoms: C_10  and  C_13 
REMARK    4  A    between atoms: C_13  and  C_14 
REMARK    5  A    between atoms: C_17  and  N_24 
REMARK    6  A    between atoms: C_20  and  C_25 
REMARK    7  A    between atoms: C_21  and  O_23 
REMARK    8  A    between atoms: C_25  and  C_26 
REMARK    9  A    between atoms: C_26  and  O_28 
ROOT
HETATM    1  N   UNK N   1      20.896  14.930   5.856  0.00  0.00    -0.341 N 
HETATM    2  C   UNK N   1      21.401  15.598   6.924  0.00  0.00     0.254 C 
HETATM    3  O   UNK N   1      22.245  16.466   6.753  0.00  0.00    -0.268 OA
HETATM    4  H   UNK N   1      20.106  14.362   6.006  0.00  0.00     0.163 HD
ENDROOT
BRANCH   2   5
HETATM    5  C   UNK N   1      20.997  15.212   8.324  0.00  0.00     0.056 C 
HETATM    6  C   UNK N   1      19.975  15.826   8.974  0.00  0.00     0.003 C 
BRANCH   5   7
HETATM    7  C   UNK N   1      21.670  14.067   9.005  0.00  0.00     0.056 A 
HETATM    8  C   UNK N   1      22.866  13.480   8.521  0.00  0.00     0.083 A 
HETATM    9  S   UNK N   1      23.224  12.276   9.606  0.00  0.00    -0.064 SA
HETATM   10  C   UNK N   1      21.941  12.489  10.609  0.00  0.00     0.142 A 
HETATM   11  N   UNK N   1      21.170  13.505  10.166  0.00  0.00    -0.336 N 
ATOM     12  HN  UNK N   1      20.320  13.822  10.631  1.00  0.00     0.168 HD
BRANCH  10  13
HETATM   13  N   UNK N   1      21.659  11.729  11.761  0.00  0.00    -0.380 N 
HETATM   14  H   UNK N   1      22.219  11.823  12.566  0.00  0.00     0.158 HD
HETATM   15  H   UNK N   1      20.900  11.103  11.762  0.00  0.00     0.158 HD
ENDBRANCH  10  13
ENDBRANCH   5   7
BRANCH   6  16
HETATM   16  C   UNK N   1      19.164  16.964   8.417  0.00  0.00     0.138 C 
BRANCH  16  17
HETATM   17  C   UNK N   1      19.636  18.320   8.844  0.00  0.00     0.142 C 
HETATM   18  O   UNK N   1      20.459  18.906   8.161  0.00  0.00    -0.650 OA
BRANCH  17  19
HETATM   19  O   UNK N   1      19.160  18.903   9.962  0.00  0.00    -0.776 OA
HETATM   20  H   UNK N   1      18.940  19.813   9.961  0.00  0.00     0.167 HD
ENDBRANCH  17  19
ENDBRANCH  16  17
ENDBRANCH   6  16
ENDBRANCH   2   5
BRANCH   1  21
HETATM   21  C   UNK N   1      21.437  14.990   4.517  0.00  0.00     0.210 A 
HETATM   22  C   UNK N   1      20.534  14.136   3.480  0.00  0.00     0.187 A 
HETATM   23  N   UNK N   1      20.291  15.368   2.799  0.00  0.00    -0.294 N 
HETATM   24  S   UNK N   1      21.454  13.021   2.376  0.00  0.00    -0.137 SA
HETATM   25  C   UNK N   1      19.972  15.575   1.417  0.00  0.00     0.109 C 
HETATM   26  C   UNK N   1      20.932  16.105   3.661  0.00  0.00     0.251 A 
HETATM   27  C   UNK N   1      19.903  14.496   0.615  0.00  0.00     0.020 C 
HETATM   28  C   UNK N   1      20.090  13.099   1.151  0.00  0.00     0.105 C 
HETATM   29  O   UNK N   1      21.326  17.249   3.522  0.00  0.00    -0.271 OA
BRANCH  25  30
HETATM   30  C   UNK N   1      19.849  16.925   0.809  0.00  0.00     0.193 C 
HETATM   31  O   UNK N   1      20.380  17.183  -0.258  0.00  0.00    -0.645 OA
BRANCH  30  32
HETATM   32  O   UNK N   1      19.145  17.886   1.441  0.00  0.00    -0.772 OA
HETATM   33  H   UNK N   1      19.572  18.459   2.045  0.00  0.00     0.167 HD
ENDBRANCH  30  32
ENDBRANCH  25  30
ENDBRANCH   1  21
TORSDOF 9
ENDMDL
MODEL 3
REMARK VINA RESULT:      -7.0      1.726      1.983
REMARK  9 active torsions:
REMARK  status: ('A' for Active; 'I' for Inactive)
REMARK    1  A    between atoms: C_3  and  C_21 
REMARK    2  A    between atoms: C_7  and  N_9 
REMARK       I    between atoms: N_9  and  C_10 
REMARK    3  A    between atoms: C_10  and  C_13 
REMARK    4  A    between atoms: C_13  and  C_14 
REMARK    5  A    between atoms: C_17  and  N_24 
REMARK    6  A    between atoms: C_20  and  C_25 
REMARK    7  A    between atoms: C_21  and  O_23 
REMARK    8  A    between atoms: C_25  and  C_26 
REMARK    9  A    between atoms: C_26  and  O_28 
ROOT
HETATM    1  N   UNK N   1      22.290  16.076   6.913  0.00  0.00    -0.341 N 
HETATM    2  C   UNK N   1      21.980  14.835   7.367  0.00  0.00     0.254 C 
HETATM    3  O   UNK N   1      22.148  13.865   6.641  0.00  0.00    -0.268 OA
HETATM    4  H   UNK N   1      22.304  16.810   7.568  0.00  0.00     0.163 HD
ENDROOT
BRANCH   2   5
HETATM    5  C   UNK N   1      21.344  14.656   8.721  0.00  0.00     0.056 C 
HETATM    6  C   UNK N   1      20.206  15.306   9.073  0.00  0.00     0.003 C 
BRANCH   5   7
HETATM    7  C   UNK N   1      21.916  13.674   9.689  0.00  0.00     0.056 A 
HETATM    8  C   UNK N   1      21.112  12.835  10.499  0.00  0.00     0.083 A 
HETATM    9  S   UNK N   1      22.188  11.926  11.379  0.00  0.00    -0.064 SA
HETATM   10  C   UNK N   1      23.572  12.568  10.771  0.00  0.00     0.142 A 
HETATM   11  N   UNK N   1      23.280  13.512   9.851  0.00  0.00    -0.336 N 
ATOM     12  HN  UNK N   1      23.982  14.045   9.337  1.00  0.00     0.168 HD
BRANCH  10  13
HETATM   13  N   UNK N   1      24.882  12.210  11.146  0.00  0.00    -0.380 N 
HETATM   14  H   UNK N   1      25.042  11.731  11.992  0.00  0.00     0.158 HD
HETATM   15  H   UNK N   1      25.640  12.439  10.561  0.00  0.00     0.158 HD
ENDBRANCH  10  13
ENDBRANCH   5   7
BRANCH   6  16
HETATM   16  C   UNK N   1      19.477  16.293   8.203  0.00  0.00     0.138 C 
BRANCH  16  17
HETATM   17  C   UNK N   1      19.201  17.608   8.865  0.00  0.00     0.142 C 
HETATM   18  O   UNK N   1      20.111  18.409   8.997  0.00  0.00    -0.650 OA
BRANCH  17  19
HETATM   19  O   UNK N   1      17.967  17.921   9.305  0.00  0.00    -0.776 OA
HETATM   20  H   UNK N   1      17.395  18.440   8.775  0.00  0.00     0.167 HD
ENDBRANCH  17  19
ENDBRANCH  16  17
ENDBRANCH   6  16
ENDBRANCH   2   5
BRANCH   1  21
HETATM   21  C   UNK N   1      22.597  16.397   5.538  0.00  0.00     0.210 A 
HETATM   22  C   UNK N   1      21.259  16.420   4.627  0.00  0.00     0.187 A 
HETATM   23  N   UNK N   1      21.539  17.800   4.389  0.00  0.00    -0.294 N 
HETATM   24  S   UNK N   1      21.368  15.515   3.053  0.00  0.00    -0.137 SA
HETATM   25  C   UNK N   1      21.165  18.605   3.264  0.00  0.00     0.109 C 
HETATM   26  C   UNK N   1      22.570  17.848   5.185  0.00  0.00     0.251 A 
HETATM   27  C   UNK N   1      20.476  18.019   2.267  0.00  0.00     0.020 C 
HETATM   28  C   UNK N   1      20.048  16.575   2.345  0.00  0.00     0.105 C 
HETATM   29  O   UNK N   1      23.437  18.701   5.238  0.00  0.00    -0.271 OA
BRANCH  25  30
HETATM   30  C   UNK N   1      21.616  20.011   3.089  0.00  0.00     0.193 C 
HETATM   31  O   UNK N   1      20.849  20.941   3.270  0.00  0.00    -0.645 OA
BRANCH  30  32
HETATM   32  O   UNK N   1      22.887  20.269   2.722  0.00  0.00    -0.772 OA
HETATM   33  H   UNK N   1      23.183  21.154   2.651  0.00  0.00     0.167 HD
ENDBRANCH  30  32
ENDBRANCH  25  30
ENDBRANCH   1  21
TORSDOF 9
ENDMDL
MODEL 4
REMARK VINA RESULT:      -6.7      7.562      9.748
REMARK  9 active torsions:
REMARK  status: ('A' for Active; 'I' for Inactive)
REMARK    1  A    between atoms: C_3  and  C_21 
REMARK    2  A    between atoms: C_7  and  N_9 
REMARK       I    between atoms: N_9  and  C_10 
REMARK    3  A    between atoms: C_10  and  C_13 
REMARK    4  A    between atoms: C_13  and  C_14 
REMARK    5  A    between atoms: C_17  and  N_24 
REMARK    6  A    between atoms: C_20  and  C_25 
REMARK    7  A    between atoms: C_21  and  O_23 
REMARK    8  A    between atoms: C_25  and  C_26 
REMARK    9  A    between atoms: C_26  and  O_28 
ROOT
HETATM    1  N   UNK N   1      29.661  17.346   5.742  0.00  0.00    -0.341 N 
HETATM    2  C   UNK N   1      28.359  17.566   6.053  0.00  0.00     0.254 C 
HETATM    3  O   UNK N   1      27.953  17.315   7.178  0.00  0.00    -0.268 OA
HETATM    4  H   UNK N   1      29.995  17.711   4.892  0.00  0.00     0.163 HD
ENDROOT
BRANCH   2   5
HETATM    5  C   UNK N   1      27.391  18.029   4.994  0.00  0.00     0.056 C 
HETATM    6  C   UNK N   1      27.113  19.343   4.798  0.00  0.00     0.003 C 
BRANCH   5   7
HETATM    7  C   UNK N   1      26.773  17.037   4.065  0.00  0.00     0.056 A 
HETATM    8  C   UNK N   1      27.526  16.287   3.129  0.00  0.00     0.083 A 
HETATM    9  S   UNK N   1      26.416  15.327   2.353  0.00  0.00    -0.064 SA
HETATM   10  C   UNK N   1      25.077  15.843   3.151  0.00  0.00     0.142 A 
HETATM   11  N   UNK N   1      25.414  16.778   4.066  0.00  0.00    -0.336 N 
ATOM     12  HN  UNK N   1      24.746  17.240   4.683  1.00  0.00     0.168 HD
BRANCH  10  13
HETATM   13  N   UNK N   1      23.759  15.399   2.926  0.00  0.00    -0.380 N 
HETATM   14  H   UNK N   1      23.361  15.465   2.027  0.00  0.00     0.158 HD
HETATM   15  H   UNK N   1      23.235  15.022   3.668  0.00  0.00     0.158 HD
ENDBRANCH  10  13
ENDBRANCH   5   7
BRANCH   6  16
HETATM   16  C   UNK N   1      27.683  20.472   5.612  0.00  0.00     0.138 C 
BRANCH  16  17
HETATM   17  C   UNK N   1      26.854  20.850   6.800  0.00  0.00     0.142 C 
HETATM   18  O   UNK N   1      26.191  21.873   6.762  0.00  0.00    -0.650 OA
BRANCH  17  19
HETATM   19  O   UNK N   1      26.822  20.076   7.903  0.00  0.00    -0.776 OA
HETATM   20  H   UNK N   1      26.002  19.787   8.252  0.00  0.00     0.167 HD
ENDBRANCH  17  19
ENDBRANCH  16  17
ENDBRANCH   6  16
ENDBRANCH   2   5
BRANCH   1  21
HETATM   21  C   UNK N   1      30.592  16.612   6.570  0.00  0.00     0.210 A 
HETATM   22  C   UNK N   1      31.999  16.377   5.805  0.00  0.00     0.187 A 
HETATM   23  N   UNK N   1      32.603  17.150   6.843  0.00  0.00    -0.294 N 
HETATM   24  S   UNK N   1      32.653  14.682   5.871  0.00  0.00    -0.137 SA
HETATM   25  C   UNK N   1      33.953  17.099   7.323  0.00  0.00     0.109 C 
HETATM   26  C   UNK N   1      31.481  17.439   7.440  0.00  0.00     0.251 A 
HETATM   27  C   UNK N   1      34.790  16.205   6.763  0.00  0.00     0.020 C 
HETATM   28  C   UNK N   1      34.355  15.321   5.621  0.00  0.00     0.105 C 
HETATM   29  O   UNK N   1      31.322  17.871   8.567  0.00  0.00    -0.271 OA
BRANCH  25  30
HETATM   30  C   UNK N   1      34.427  17.886   8.490  0.00  0.00     0.193 C 
HETATM   31  O   UNK N   1      34.981  18.962   8.337  0.00  0.00    -0.645 OA
BRANCH  30  32
HETATM   32  O   UNK N   1      34.250  17.411   9.740  0.00  0.00    -0.772 OA
HETATM   33  H   UNK N   1      34.386  16.502   9.919  0.00  0.00     0.167 HD
ENDBRANCH  30  32
ENDBRANCH  25  30
ENDBRANCH   1  21
TORSDOF 9
ENDMDL
MODEL 5
REMARK VINA RESULT:      -6.7      8.370     10.538
REMARK  9 active torsions:
REMARK  status: ('A' for Active; 'I' for Inactive)
REMARK    1  A    between atoms: C_3  and  C_21 
REMARK    2  A    between atoms: C_7  and  N_9 
REMARK       I    between atoms: N_9  and  C_10 
REMARK    3  A    between atoms: C_10  and  C_13 
REMARK    4  A    between atoms: C_13  and  C_14 
REMARK    5  A    between atoms: C_17  and  N_24 
REMARK    6  A    between atoms: C_20  and  C_25 
REMARK    7  A    between atoms: C_21  and  O_23 
REMARK    8  A    between atoms: C_25  and  C_26 
REMARK    9  A    between atoms: C_26  and  O_28 
ROOT
HETATM    1  N   UNK N   1      30.178  16.002   6.521  0.00  0.00    -0.341 N 
HETATM    2  C   UNK N   1      29.596  16.849   5.635  0.00  0.00     0.254 C 
HETATM    3  O   UNK N   1      30.260  17.326   4.725  0.00  0.00    -0.268 OA
HETATM    4  H   UNK N   1      29.588  15.508   7.134  0.00  0.00     0.163 HD
ENDROOT
BRANCH   2   5
HETATM    5  C   UNK N   1      28.164  17.280   5.821  0.00  0.00     0.056 C 
HETATM    6  C   UNK N   1      27.804  18.198   6.753  0.00  0.00     0.003 C 
BRANCH   5   7
HETATM    7  C   UNK N   1      27.105  16.759   4.907  0.00  0.00     0.056 A 
HETATM    8  C   UNK N   1      25.753  16.609   5.303  0.00  0.00     0.083 A 
HETATM    9  S   UNK N   1      24.974  16.021   3.960  0.00  0.00    -0.064 SA
HETATM   10  C   UNK N   1      26.272  15.960   2.956  0.00  0.00     0.142 A 
HETATM   11  N   UNK N   1      27.377  16.396   3.600  0.00  0.00    -0.336 N 
ATOM     12  HN  UNK N   1      28.302  16.450   3.174  1.00  0.00     0.168 HD
BRANCH  10  13
HETATM   13  N   UNK N   1      26.263  15.512   1.621  0.00  0.00    -0.380 N 
HETATM   14  H   UNK N   1      25.496  15.000   1.275  0.00  0.00     0.158 HD
HETATM   15  H   UNK N   1      27.025  15.712   1.031  0.00  0.00     0.158 HD
ENDBRANCH  10  13
ENDBRANCH   5   7
BRANCH   6  16
HETATM   16  C   UNK N   1      28.750  18.854   7.722  0.00  0.00     0.138 C 
BRANCH  16  17
HETATM   17  C   UNK N   1      28.547  18.447   9.149  0.00  0.00     0.142 C 
HETATM   18  O   UNK N   1      29.401  18.722   9.974  0.00  0.00    -0.650 OA
BRANCH  17  19
HETATM   19  O   UNK N   1      27.435  17.791   9.534  0.00  0.00    -0.776 OA
HETATM   20  H   UNK N   1      27.058  17.136   8.980  0.00  0.00     0.167 HD
ENDBRANCH  17  19
ENDBRANCH  16  17
ENDBRANCH   6  16
ENDBRANCH   2   5
BRANCH   1  21
HETATM   21  C   UNK N   1      31.602  15.775   6.629  0.00  0.00     0.210 A 
HETATM   22  C   UNK N   1      32.337  17.007   7.380  0.00  0.00     0.187 A 
HETATM   23  N   UNK N   1      32.711  16.066   8.388  0.00  0.00    -0.294 N 
HETATM   24  S   UNK N   1      33.839  17.634   6.569  0.00  0.00    -0.137 SA
HETATM   25  C   UNK N   1      33.838  16.108   9.273  0.00  0.00     0.109 C 
HETATM   26  C   UNK N   1      32.057  15.069   7.864  0.00  0.00     0.251 A 
HETATM   27  C   UNK N   1      34.694  17.141   9.160  0.00  0.00     0.020 C 
HETATM   28  C   UNK N   1      34.454  18.262   8.180  0.00  0.00     0.105 C 
HETATM   29  O   UNK N   1      32.178  13.882   8.109  0.00  0.00    -0.271 OA
BRANCH  25  30
HETATM   30  C   UNK N   1      34.174  15.003  10.208  0.00  0.00     0.193 C 
HETATM   31  O   UNK N   1      35.118  14.264   9.991  0.00  0.00    -0.645 OA
BRANCH  30  32
HETATM   32  O   UNK N   1      33.425  14.805  11.313  0.00  0.00    -0.772 OA
HETATM   33  H   UNK N   1      32.991  13.987  11.444  0.00  0.00     0.167 HD
ENDBRANCH  30  32
ENDBRANCH  25  30
ENDBRANCH   1  21
TORSDOF 9
ENDMDL
MODEL 6
REMARK VINA RESULT:      -6.6     11.518     13.785
REMARK  9 active torsions:
REMARK  status: ('A' for Active; 'I' for Inactive)
REMARK    1  A    between atoms: C_3  and  C_21 
REMARK    2  A    between atoms: C_7  and  N_9 
REMARK       I    between atoms: N_9  and  C_10 
REMARK    3  A    between atoms: C_10  and  C_13 
REMARK    4  A    between atoms: C_13  and  C_14 
REMARK    5  A    between atoms: C_17  and  N_24 
REMARK    6  A    between atoms: C_20  and  C_25 
REMARK    7  A    between atoms: C_21  and  O_23 
REMARK    8  A    between atoms: C_25  and  C_26 
REMARK    9  A    between atoms: C_26  and  O_28 
ROOT
HETATM    1  N   UNK N   1      33.062  14.964   8.660  0.00  0.00    -0.341 N 
HETATM    2  C   UNK N   1      32.436  15.372   7.528  0.00  0.00     0.254 C 
HETATM    3  O   UNK N   1      32.413  14.639   6.549  0.00  0.00    -0.268 OA
HETATM    4  H   UNK N   1      32.921  15.496   9.476  0.00  0.00     0.163 HD
ENDROOT
BRANCH   2   5
HETATM    5  C   UNK N   1      31.853  16.759   7.437  0.00  0.00     0.056 C 
HETATM    6  C   UNK N   1      32.632  17.858   7.273  0.00  0.00     0.003 C 
BRANCH   5   7
HETATM    7  C   UNK N   1      30.372  16.946   7.440  0.00  0.00     0.056 A 
HETATM    8  C   UNK N   1      29.527  16.407   6.439  0.00  0.00     0.083 A 
HETATM    9  S   UNK N   1      27.993  16.864   6.879  0.00  0.00    -0.064 SA
HETATM   10  C   UNK N   1      28.387  17.692   8.240  0.00  0.00     0.142 A 
HETATM   11  N   UNK N   1      29.723  17.656   8.434  0.00  0.00    -0.336 N 
ATOM     12  HN  UNK N   1      30.198  18.100   9.220  1.00  0.00     0.168 HD
BRANCH  10  13
HETATM   13  N   UNK N   1      27.484  18.360   9.091  0.00  0.00    -0.380 N 
HETATM   14  H   UNK N   1      27.449  18.136  10.050  0.00  0.00     0.158 HD
HETATM   15  H   UNK N   1      26.887  19.052   8.727  0.00  0.00     0.158 HD
ENDBRANCH  10  13
ENDBRANCH   5   7
BRANCH   6  16
HETATM   16  C   UNK N   1      34.135  17.843   7.205  0.00  0.00     0.138 C 
BRANCH  16  17
HETATM   17  C   UNK N   1      34.811  18.220   8.487  0.00  0.00     0.142 C 
HETATM   18  O   UNK N   1      35.387  19.293   8.562  0.00  0.00    -0.650 OA
BRANCH  17  19
HETATM   19  O   UNK N   1      34.786  17.401   9.556  0.00  0.00    -0.776 OA
HETATM   20  H   UNK N   1      35.221  17.646  10.348  0.00  0.00     0.167 HD
ENDBRANCH  17  19
ENDBRANCH  16  17
ENDBRANCH   6  16
ENDBRANCH   2   5
BRANCH   1  21
HETATM   21  C   UNK N   1      33.921  13.805   8.753  0.00  0.00     0.210 A 
HETATM   22  C   UNK N   1      35.409  14.131   8.203  0.00  0.00     0.187 A 
HETATM   23  N   UNK N   1      35.874  13.845   9.522  0.00  0.00    -0.294 N 
HETATM   24  S   UNK N   1      36.103  12.907   7.051  0.00  0.00    -0.137 SA
HETATM   25  C   UNK N   1      37.167  13.376   9.930  0.00  0.00     0.109 C 
HETATM   26  C   UNK N   1      34.687  13.663  10.027  0.00  0.00     0.251 A 
HETATM   27  C   UNK N   1      38.086  13.143   8.974  0.00  0.00     0.020 C 
HETATM   28  C   UNK N   1      37.801  13.421   7.519  0.00  0.00     0.105 C 
HETATM   29  O   UNK N   1      34.395  13.127  11.082  0.00  0.00    -0.271 OA
BRANCH  25  30
HETATM   30  C   UNK N   1      37.489  13.013  11.334  0.00  0.00     0.193 C 
HETATM   31  O   UNK N   1      38.030  11.953  11.598  0.00  0.00    -0.645 OA
BRANCH  30  32
HETATM   32  O   UNK N   1      37.179  13.859  12.337  0.00  0.00    -0.772 OA
HETATM   33  H   UNK N   1      36.289  14.115  12.475  0.00  0.00     0.167 HD
ENDBRANCH  30  32
ENDBRANCH  25  30
ENDBRANCH   1  21
TORSDOF 9
ENDMDL
MODEL 7
REMARK VINA RESULT:      -6.6     10.787     12.541
REMARK  9 active torsions:
REMARK  status: ('A' for Active; 'I' for Inactive)
REMARK    1  A    between atoms: C_3  and  C_21 
REMARK    2  A    between atoms: C_7  and  N_9 
REMARK       I    between atoms: N_9  and  C_10 
REMARK    3  A    between atoms: C_10  and  C_13 
REMARK    4  A    between atoms: C_13  and  C_14 
REMARK    5  A    between atoms: C_17  and  N_24 
REMARK    6  A    between atoms: C_20  and  C_25 
REMARK    7  A    between atoms: C_21  and  O_23 
REMARK    8  A    between atoms: C_25  and  C_26 
REMARK    9  A    between atoms: C_26  and  O_28 
ROOT
HETATM    1  N   UNK N   1      32.910  16.176   7.289  0.00  0.00    -0.341 N 
HETATM    2  C   UNK N   1      34.246  16.372   7.150  0.00  0.00     0.254 C 
HETATM    3  O   UNK N   1      34.669  17.481   6.857  0.00  0.00    -0.268 OA
HETATM    4  H   UNK N   1      32.613  15.326   7.686  0.00  0.00     0.163 HD
ENDROOT
BRANCH   2   5
HETATM    5  C   UNK N   1      35.201  15.211   7.260  0.00  0.00     0.056 C 
HETATM    6  C   UNK N   1      35.537  14.667   8.457  0.00  0.00     0.003 C 
BRANCH   5   7
HETATM    7  C   UNK N   1      35.739  14.569   6.024  0.00  0.00     0.056 A 
HETATM    8  C   UNK N   1      34.907  14.041   5.007  0.00  0.00     0.083 A 
HETATM    9  S   UNK N   1      35.951  13.460   3.854  0.00  0.00    -0.064 SA
HETATM   10  C   UNK N   1      37.356  13.850   4.608  0.00  0.00     0.142 A 
HETATM   11  N   UNK N   1      37.097  14.456   5.787  0.00  0.00    -0.336 N 
ATOM     12  HN  UNK N   1      37.817  14.790   6.427  1.00  0.00     0.168 HD
BRANCH  10  13
HETATM   13  N   UNK N   1      38.653  13.590   4.123  0.00  0.00    -0.380 N 
HETATM   14  H   UNK N   1      38.907  12.678   3.850  0.00  0.00     0.158 HD
HETATM   15  H   UNK N   1      39.307  14.323   4.055  0.00  0.00     0.158 HD
ENDBRANCH  10  13
ENDBRANCH   5   7
BRANCH   6  16
HETATM   16  C   UNK N   1      35.051  15.162   9.792  0.00  0.00     0.138 C 
BRANCH  16  17
HETATM   17  C   UNK N   1      35.883  16.259  10.380  0.00  0.00     0.142 C 
HETATM   18  O   UNK N   1      35.462  17.403  10.355  0.00  0.00    -0.650 OA
BRANCH  17  19
HETATM   19  O   UNK N   1      37.080  16.001  10.942  0.00  0.00    -0.776 OA
HETATM   20  H   UNK N   1      37.314  16.402  11.756  0.00  0.00     0.167 HD
ENDBRANCH  17  19
ENDBRANCH  16  17
ENDBRANCH   6  16
ENDBRANCH   2   5
BRANCH   1  21
HETATM   21  C   UNK N   1      31.894  17.126   6.896  0.00  0.00     0.210 A 
HETATM   22  C   UNK N   1      30.592  16.377   6.294  0.00  0.00     0.187 A 
HETATM   23  N   UNK N   1      29.860  16.945   7.381  0.00  0.00    -0.294 N 
HETATM   24  S   UNK N   1      29.951  17.053   4.732  0.00  0.00    -0.137 SA
HETATM   25  C   UNK N   1      28.462  17.258   7.449  0.00  0.00     0.109 C 
HETATM   26  C   UNK N   1      30.899  17.488   7.948  0.00  0.00     0.251 A 
HETATM   27  C   UNK N   1      27.707  17.021   6.359  0.00  0.00     0.020 C 
HETATM   28  C   UNK N   1      28.286  16.387   5.119  0.00  0.00     0.105 C 
HETATM   29  O   UNK N   1      30.918  18.355   8.804  0.00  0.00    -0.271 OA
BRANCH  25  30
HETATM   30  C   UNK N   1      27.844  17.950   8.609  0.00  0.00     0.193 C 
HETATM   31  O   UNK N   1      27.673  17.368   9.667  0.00  0.00    -0.645 OA
BRANCH  30  32
HETATM   32  O   UNK N   1      27.461  19.238   8.498  0.00  0.00    -0.772 OA
HETATM   33  H   UNK N   1      26.669  19.454   8.048  0.00  0.00     0.167 HD
ENDBRANCH  30  32
ENDBRANCH  25  30
ENDBRANCH   1  21
TORSDOF 9
ENDMDL
MODEL 8
REMARK VINA RESULT:      -6.5     12.680     14.146
REMARK  9 active torsions:
REMARK  status: ('A' for Active; 'I' for Inactive)
REMARK    1  A    between atoms: C_3  and  C_21 
REMARK    2  A    between atoms: C_7  and  N_9 
REMARK       I    between atoms: N_9  and  C_10 
REMARK    3  A    between atoms: C_10  and  C_13 
REMARK    4  A    between atoms: C_13  and  C_14 
REMARK    5  A    between atoms: C_17  and  N_24 
REMARK    6  A    between atoms: C_20  and  C_25 
REMARK    7  A    between atoms: C_21  and  O_23 
REMARK    8  A    between atoms: C_25  and  C_26 
REMARK    9  A    between atoms: C_26  and  O_28 
ROOT
HETATM    1  N   UNK N   1      35.111  13.605  11.176  0.00  0.00    -0.341 N 
HETATM    2  C   UNK N   1      35.645  12.432  11.598  0.00  0.00     0.254 C 
HETATM    3  O   UNK N   1      36.807  12.161  11.327  0.00  0.00    -0.268 OA
HETATM    4  H   UNK N   1      34.239  13.869  11.549  0.00  0.00     0.163 HD
ENDROOT
BRANCH   2   5
HETATM    5  C   UNK N   1      34.790  11.420  12.317  0.00  0.00     0.056 C 
HETATM    6  C   UNK N   1      34.076  10.478  11.649  0.00  0.00     0.003 C 
BRANCH   5   7
HETATM    7  C   UNK N   1      34.780  11.378  13.809  0.00  0.00     0.056 A 
HETATM    8  C   UNK N   1      34.718  10.169  14.544  0.00  0.00     0.083 A 
HETATM    9  S   UNK N   1      34.747  10.632  16.138  0.00  0.00    -0.064 SA
HETATM   10  C   UNK N   1      34.824  12.255  15.898  0.00  0.00     0.142 A 
HETATM   11  N   UNK N   1      34.839  12.528  14.576  0.00  0.00    -0.336 N 
ATOM     12  HN  UNK N   1      34.888  13.470  14.188  1.00  0.00     0.168 HD
BRANCH  10  13
HETATM   13  N   UNK N   1      34.859  13.238  16.907  0.00  0.00    -0.380 N 
HETATM   14  H   UNK N   1      34.994  14.185  16.672  0.00  0.00     0.158 HD
HETATM   15  H   UNK N   1      34.748  12.977  17.850  0.00  0.00     0.158 HD
ENDBRANCH  10  13
ENDBRANCH   5   7
BRANCH   6  16
HETATM   16  C   UNK N   1      34.012  10.350  10.152  0.00  0.00     0.138 C 
BRANCH  16  17
HETATM   17  C   UNK N   1      32.754  10.890   9.544  0.00  0.00     0.142 C 
HETATM   18  O   UNK N   1      31.892  10.112   9.172  0.00  0.00    -0.650 OA
BRANCH  17  19
HETATM   19  O   UNK N   1      32.558  12.216   9.411  0.00  0.00    -0.776 OA
HETATM   20  H   UNK N   1      31.804  12.538   8.957  0.00  0.00     0.167 HD
ENDBRANCH  17  19
ENDBRANCH  16  17
ENDBRANCH   6  16
ENDBRANCH   2   5
BRANCH   1  21
HETATM   21  C   UNK N   1      35.730  14.494  10.219  0.00  0.00     0.210 A 
HETATM   22  C   UNK N   1      35.026  14.374   8.766  0.00  0.00     0.187 A 
HETATM   23  N   UNK N   1      34.664  15.748   8.914  0.00  0.00    -0.294 N 
HETATM   24  S   UNK N   1      36.164  14.210   7.357  0.00  0.00    -0.137 SA
HETATM   25  C   UNK N   1      34.416  16.720   7.890  0.00  0.00     0.109 C 
HETATM   26  C   UNK N   1      35.137  15.862  10.123  0.00  0.00     0.251 A 
HETATM   27  C   UNK N   1      34.551  16.336   6.607  0.00  0.00     0.020 C 
HETATM   28  C   UNK N   1      34.890  14.914   6.239  0.00  0.00     0.105 C 
HETATM   29  O   UNK N   1      35.379  16.884  10.739  0.00  0.00    -0.271 OA
BRANCH  25  30
HETATM   30  C   UNK N   1      34.151  18.153   8.183  0.00  0.00     0.193 C 
HETATM   31  O   UNK N   1      33.014  18.591   8.187  0.00  0.00    -0.645 OA
BRANCH  30  32
HETATM   32  O   UNK N   1      35.177  18.987   8.446  0.00  0.00    -0.772 OA
HETATM   33  H   UNK N   1      35.098  19.901   8.259  0.00  0.00     0.167 HD
ENDBRANCH  30  32
ENDBRANCH  25  30
ENDBRANCH   1  21
TORSDOF 9
ENDMDL
MODEL 9
REMARK VINA RESULT:      -6.3      2.939      7.431
REMARK  9 active torsions:
REMARK  status: ('A' for Active; 'I' for Inactive)
REMARK    1  A    between atoms: C_3  and  C_21 
REMARK    2  A    between atoms: C_7  and  N_9 
REMARK       I    between atoms: N_9  and  C_10 
REMARK    3  A    between atoms: C_10  and  C_13 
REMARK    4  A    between atoms: C_13  and  C_14 
REMARK    5  A    between atoms: C_17  and  N_24 
REMARK    6  A    between atoms: C_20  and  C_25 
REMARK    7  A    between atoms: C_21  and  O_23 
REMARK    8  A    between atoms: C_25  and  C_26 
REMARK    9  A    between atoms: C_26  and  O_28 
ROOT
HETATM    1  N   UNK N   1      22.302  16.337   5.497  0.00  0.00    -0.341 N 
HETATM    2  C   UNK N   1      23.243  16.652   4.572  0.00  0.00     0.254 C 
HETATM    3  O   UNK N   1      23.857  15.760   4.003  0.00  0.00    -0.268 OA
HETATM    4  H   UNK N   1      21.713  17.060   5.812  0.00  0.00     0.163 HD
ENDROOT
BRANCH   2   5
HETATM    5  C   UNK N   1      23.603  18.092   4.310  0.00  0.00     0.056 C 
HETATM    6  C   UNK N   1      22.711  18.973   3.789  0.00  0.00     0.003 C 
BRANCH   5   7
HETATM    7  C   UNK N   1      24.945  18.609   4.708  0.00  0.00     0.056 A 
HETATM    8  C   UNK N   1      25.388  19.919   4.398  0.00  0.00     0.083 A 
HETATM    9  S   UNK N   1      26.910  20.025   5.053  0.00  0.00    -0.064 SA
HETATM   10  C   UNK N   1      26.993  18.508   5.674  0.00  0.00     0.142 A 
HETATM   11  N   UNK N   1      25.848  17.838   5.418  0.00  0.00    -0.336 N 
ATOM     12  HN  UNK N   1      25.670  16.878   5.712  1.00  0.00     0.168 HD
BRANCH  10  13
HETATM   13  N   UNK N   1      28.089  17.958   6.367  0.00  0.00    -0.380 N 
HETATM   14  H   UNK N   1      27.943  17.422   7.181  0.00  0.00     0.158 HD
HETATM   15  H   UNK N   1      29.004  18.110   6.038  0.00  0.00     0.158 HD
ENDBRANCH  10  13
ENDBRANCH   5   7
BRANCH   6  16
HETATM   16  C   UNK N   1      21.305  18.630   3.377  0.00  0.00     0.138 C 
BRANCH  16  17
HETATM   17  C   UNK N   1      20.471  19.814   2.998  0.00  0.00     0.142 C 
HETATM   18  O   UNK N   1      20.271  20.689   3.823  0.00  0.00    -0.650 OA
BRANCH  17  19
HETATM   19  O   UNK N   1      19.948  19.931   1.762  0.00  0.00    -0.776 OA
HETATM   20  H   UNK N   1      19.393  20.656   1.551  0.00  0.00     0.167 HD
ENDBRANCH  17  19
ENDBRANCH  16  17
ENDBRANCH   6  16
ENDBRANCH   2   5
BRANCH   1  21
HETATM   21  C   UNK N   1      22.105  15.018   6.055  0.00  0.00     0.210 A 
HETATM   22  C   UNK N   1      23.042  14.784   7.354  0.00  0.00     0.187 A 
HETATM   23  N   UNK N   1      21.833  14.631   8.100  0.00  0.00    -0.294 N 
HETATM   24  S   UNK N   1      23.959  13.214   7.385  0.00  0.00    -0.137 SA
HETATM   25  C   UNK N   1      21.620  13.892   9.310  0.00  0.00     0.109 C 
HETATM   26  C   UNK N   1      21.045  14.905   7.100  0.00  0.00     0.251 A 
HETATM   27  C   UNK N   1      22.662  13.222   9.835  0.00  0.00     0.020 C 
HETATM   28  C   UNK N   1      24.036  13.288   9.217  0.00  0.00     0.105 C 
HETATM   29  O   UNK N   1      19.849  14.689   7.008  0.00  0.00    -0.271 OA
BRANCH  25  30
HETATM   30  C   UNK N   1      20.279  13.726   9.929  0.00  0.00     0.193 C 
HETATM   31  O   UNK N   1      20.050  12.797  10.685  0.00  0.00    -0.645 OA
BRANCH  30  32
HETATM   32  O   UNK N   1      19.296  14.607   9.654  0.00  0.00    -0.772 OA
HETATM   33  H   UNK N   1      19.507  15.497   9.456  0.00  0.00     0.167 HD
ENDBRANCH  30  32
ENDBRANCH  25  30
ENDBRANCH   1  21
TORSDOF 9
ENDMDL
