REMARK  3 active torsions:
REMARK  status: ('A' for Active; 'I' for Inactive)
REMARK    1  A    between atoms: C_2  and  C_4 
REMARK    2  A    between atoms: C_4  and  C_5 
REMARK    3  A    between atoms: C_5  and  C_6 
ROOT
HETATM    1  C   UNK N   1       3.152  -1.878  -0.244  0.00  0.00     0.128 A 
HETATM    2  C   UNK N   1       3.347  -0.423  -0.665  0.00  0.00     0.244 A 
HETATM    3  O   UNK N   1       2.441   0.171  -1.229  0.00  0.00    -0.272 OA
HETATM    4  N   UNK N   1       4.517   0.225  -0.449  0.00  0.00    -0.278 N 
HETATM    5  C   UNK N   1       5.576  -0.359   0.159  0.00  0.00     0.329 A 
HETATM    6  O   UNK N   1       6.611   0.271   0.300  0.00  0.00    -0.247 OA
HETATM    7  N   UNK N   1       5.506  -1.632   0.613  0.00  0.00    -0.278 N 
HETATM    8  C   UNK N   1       4.400  -2.401   0.466  0.00  0.00     0.244 A 
HETATM    9  O   UNK N   1       4.413  -3.540   0.909  0.00  0.00    -0.272 OA
HETATM   10  H   UNK N   1       4.601   1.160  -0.747  0.00  0.00     0.173 HD
HETATM   11  H   UNK N   1       6.290  -2.015   1.069  0.00  0.00     0.173 HD
ENDROOT
BRANCH   1  12
HETATM   12  C   UNK N   1       1.924  -2.016   0.703  0.00  0.00     0.005 C 
HETATM   13  C   UNK N   1       0.593  -1.680   0.039  0.00  0.00     0.011 C 
HETATM   14  C   UNK N   1       2.058  -1.212   1.988  0.00  0.00     0.011 C 
ENDBRANCH   1  12
BRANCH   1  15
HETATM   15  C   UNK N   1       2.934  -2.689  -1.544  0.00  0.00     0.056 C 
BRANCH  15  16
HETATM   16  C   UNK N   1       2.807  -4.180  -1.387  0.00  0.00    -0.035 C 
HETATM   17  C   UNK N   1       1.742  -4.731  -0.812  0.00  0.00     0.007 C 
ENDBRANCH  15  16
ENDBRANCH   1  15
TORSDOF 3
