REMARK  6 active torsions:
REMARK  status: ('A' for Active; 'I' for Inactive)
REMARK    1  A    between atoms: C_7  and  O_14 
REMARK    2  A    between atoms: C_10  and  N_15 
REMARK    3  A    between atoms: O_14  and  C_19 
REMARK    4  A    between atoms: C_24  and  N_30 
REMARK    5  A    between atoms: C_29  and  O_32 
REMARK    6  A    between atoms: O_32  and  C_36 
ROOT
HETATM    1  C   UNK N   1       2.427  -0.303   0.128  0.00  0.00     0.003 C 
HETATM    2  C   UNK N   1       1.217  -1.280   0.221  0.00  0.00    -0.005 C 
HETATM    3  C   UNK N   1       2.097   1.036   0.881  0.00  0.00    -0.011 C 
HETATM    4  C   UNK N   1       3.068   0.119  -1.194  0.00  0.00     0.042 C 
HETATM    5  C   UNK N   1      -0.174  -0.676  -0.145  0.00  0.00    -0.002 C 
HETATM    6  C   UNK N   1       1.274  -2.691  -0.370  0.00  0.00     0.006 C 
HETATM    7  C   UNK N   1       2.780   2.155   0.074  0.00  0.00     0.171 C 
HETATM    8  C   UNK N   1       0.605   1.322   1.119  0.00  0.00     0.012 C 
HETATM    9  C   UNK N   1       2.654   1.002   2.293  0.00  0.00     0.018 C 
HETATM   10  C   UNK N   1       3.759   1.479  -0.882  0.00  0.00     0.220 C 
HETATM   11  C   UNK N   1      -1.247  -1.428   0.727  0.00  0.00    -0.034 C 
HETATM   12  C   UNK N   1      -0.230   0.845  -0.030  0.00  0.00     0.007 C 
HETATM   13  C   UNK N   1       0.133  -3.551   0.252  0.00  0.00     0.006 C 
HETATM   14  C   UNK N   1      -1.287  -2.905   0.252  0.00  0.00    -0.004 C 
HETATM   15  C   UNK N   1      -2.639  -0.814   0.657  0.00  0.00     0.046 C 
HETATM   16  C   UNK N   1      -0.933  -1.363   2.225  0.00  0.00     0.016 C 
HETATM   17  C   UNK N   1      -1.939  -3.007  -1.149  0.00  0.00     0.040 C 
HETATM   18  C   UNK N   1      -3.203  -0.830  -0.752  0.00  0.00     0.220 C 
HETATM   19  C   UNK N   1      -3.324  -2.300  -1.243  0.00  0.00     0.163 C 
ENDROOT
BRANCH  10  20
HETATM   20  N   UNK N   1       5.143   1.505  -0.309  0.00  0.00    -0.064 N 
HETATM   21  C   UNK N   1       6.133   0.861  -1.185  0.00  0.00     0.237 C 
HETATM   22  C   UNK N   1       7.566   0.998  -0.615  0.00  0.00     0.028 C 
HETATM   23  C   UNK N   1       7.931   2.466  -0.399  0.00  0.00     0.003 C 
HETATM   24  C   UNK N   1       6.873   3.169   0.435  0.00  0.00     0.028 C 
HETATM   25  C   UNK N   1       5.498   2.936  -0.190  0.00  0.00     0.237 C 
HETATM   26  C   UNK N   1       5.218   0.872   1.011  0.00  0.00     0.273 C 
ENDBRANCH  10  20
BRANCH   7  27
HETATM   27  O   UNK N   1       1.892   2.942  -0.625  0.00  0.00    -0.313 OA
BRANCH  27  28
HETATM   28  C   UNK N   1       1.856   4.282  -0.417  0.00  0.00     0.255 C 
HETATM   29  C   UNK N   1       0.727   5.084  -0.961  0.00  0.00     0.126 C 
HETATM   30  O   UNK N   1       2.727   4.837   0.237  0.00  0.00    -0.266 OA
ENDBRANCH  27  28
ENDBRANCH   7  27
BRANCH  18  31
HETATM   31  N   UNK N   1      -4.414   0.027  -0.879  0.00  0.00    -0.064 N 
HETATM   32  C   UNK N   1      -4.097   1.370  -0.342  0.00  0.00     0.237 C 
HETATM   33  C   UNK N   1      -5.304   2.315  -0.289  0.00  0.00     0.028 C 
HETATM   34  C   UNK N   1      -6.446   1.673   0.482  0.00  0.00     0.003 C 
HETATM   35  C   UNK N   1      -6.798   0.349  -0.170  0.00  0.00     0.028 C 
HETATM   36  C   UNK N   1      -5.565  -0.556  -0.160  0.00  0.00     0.237 C 
HETATM   37  C   UNK N   1      -4.720   0.159  -2.300  0.00  0.00     0.273 C 
ENDBRANCH  18  31
BRANCH  19  38
HETATM   38  O   UNK N   1      -4.390  -2.956  -0.625  0.00  0.00    -0.314 OA
BRANCH  38  39
HETATM   39  C   UNK N   1      -4.486  -4.216  -0.131  0.00  0.00     0.255 C 
HETATM   40  C   UNK N   1      -5.765  -4.658   0.489  0.00  0.00     0.126 C 
HETATM   41  O   UNK N   1      -3.558  -5.013  -0.217  0.00  0.00    -0.266 OA
ENDBRANCH  38  39
ENDBRANCH  19  38
TORSDOF 6
