MODEL 1
REMARK VINA RESULT:      -7.4      0.000      0.000
REMARK  18 active torsions:
REMARK  status: ('A' for Active; 'I' for Inactive)
REMARK       I    between atoms: C_2  and  N_1 
REMARK    1  A    between atoms: C_3  and  C_2 
REMARK    2  A    between atoms: N_4  and  C_3 
REMARK       I    between atoms: C_5  and  N_4 
REMARK    3  A    between atoms: C_6  and  C_5 
REMARK    4  A    between atoms: N_7  and  C_6 
REMARK    5  A    between atoms: C_6  and  C_12 
REMARK       I    between atoms: C_8  and  N_7 
REMARK    6  A    between atoms: C_15  and  C_8 
REMARK    7  A    between atoms: C_13  and  C_12 
REMARK       I    between atoms: C_20  and  N_17 
REMARK    8  A    between atoms: C_21  and  C_20 
REMARK    9  A    between atoms: C_24  and  C_31 
REMARK   10  A    between atoms: C_32  and  C_31 
REMARK       I    between atoms: N_34  and  C_32 
REMARK   11  A    between atoms: C_36  and  C_38 
REMARK   12  A    between atoms: C_39  and  C_38 
REMARK   13  A    between atoms: C_40  and  C_39 
REMARK       I    between atoms: N_41  and  C_40 
REMARK   14  A    between atoms: C_45  and  C_44 
REMARK   15  A    between atoms: C_46  and  C_45 
REMARK   16  A    between atoms: C_55  and  C_58 
REMARK   17  A    between atoms: C_60  and  C_58 
REMARK   18  A    between atoms: O_66  and  C_62 
ROOT
HETATM    1  C   UNK N   1      32.076  13.787   4.157  0.00  0.00     0.186 C 
HETATM    2  N   UNK N   1      32.813  15.021   3.996  0.00  0.00    -0.345 N 
HETATM    3  C   UNK N   1      32.379  16.186   3.447  0.00  0.00     0.241 C 
HETATM    4  C   UNK N   1      30.950  16.657   3.518  0.00  0.00     0.185 C 
HETATM    5  N   UNK N   1      30.760  17.190   4.844  0.00  0.00    -0.346 N 
HETATM    6  C   UNK N   1      32.855  12.876   5.116  0.00  0.00     0.108 C 
HETATM    7  S   UNK N   1      32.387  11.104   5.040  0.00  0.00    -0.167 SA
HETATM    8  C   UNK N   1      34.098  10.540   4.744  0.00  0.00     0.074 C 
HETATM    9  O   UNK N   1      33.213  16.988   3.062  0.00  0.00    -0.271 OA
HETATM   10  C   UNK N   1      30.669  16.417   5.950  0.00  0.00     0.241 C 
HETATM   11  C   UNK N   1      31.043  16.998   7.253  0.00  0.00     0.177 C 
HETATM   12  O   UNK N   1      30.449  15.219   5.870  0.00  0.00    -0.271 OA
HETATM   13  N   UNK N   1      32.319  17.665   7.087  0.00  0.00    -0.346 N 
HETATM   14  C   UNK N   1      33.631  15.717   8.003  0.00  0.00     0.180 C 
HETATM   15  C   UNK N   1      33.520  17.114   7.404  0.00  0.00     0.241 C 
HETATM   16  N   UNK N   1      35.782  12.979   4.621  0.00  0.00    -0.347 N 
HETATM   17  C   UNK N   1      36.487  11.962   4.051  0.00  0.00     0.218 C 
HETATM   18  C   UNK N   1      35.866  11.145   2.954  0.00  0.00     0.103 C 
HETATM   19  C   UNK N   1      34.443  10.640   3.259  0.00  0.00     0.019 C 
HETATM   20  C   UNK N   1      35.272  14.890   6.186  0.00  0.00     0.241 C 
HETATM   21  O   UNK N   1      35.235  15.887   5.484  0.00  0.00    -0.271 OA
HETATM   22  C   UNK N   1      36.167  13.729   5.803  0.00  0.00     0.180 C 
HETATM   23  N   UNK N   1      34.508  14.783   7.306  0.00  0.00    -0.346 N 
HETATM   24  O   UNK N   1      34.529  17.787   7.260  0.00  0.00    -0.271 OA
HETATM   25  O   UNK N   1      37.608  11.673   4.438  0.00  0.00    -0.274 OA
HETATM   26  H   UNK N   1      33.742  15.015   4.323  0.00  0.00     0.163 HD
HETATM   27  H   UNK N   1      30.694  18.167   4.949  0.00  0.00     0.163 HD
HETATM   28  H   UNK N   1      32.316  18.578   6.720  0.00  0.00     0.163 HD
HETATM   29  H   UNK N   1      34.932  13.229   4.191  0.00  0.00     0.163 HD
HETATM   30  H   UNK N   1      34.557  13.897   7.732  0.00  0.00     0.163 HD
ENDROOT
BRANCH   1  31
HETATM   31  C   UNK N   1      31.979  13.150   2.789  0.00  0.00     0.244 C 
HETATM   32  N   UNK N   1      30.795  12.615   2.341  0.00  0.00    -0.337 N 
HETATM   33  C   UNK N   1      30.678  11.974   1.061  0.00  0.00     0.179 C 
HETATM   34  C   UNK N   1      29.580  12.621   3.105  0.00  0.00     0.127 C 
HETATM   35  C   UNK N   1      29.215  11.531   1.005  0.00  0.00     0.037 C 
HETATM   36  C   UNK N   1      28.612  11.731   2.377  0.00  0.00     0.022 C 
HETATM   37  O   UNK N   1      32.984  13.091   2.105  0.00  0.00    -0.271 OA
BRANCH  33  38
HETATM   38  C   UNK N   1      31.586  10.776   0.925  0.00  0.00     0.241 C 
HETATM   39  N   UNK N   1      32.627  10.750   0.051  0.00  0.00    -0.346 N 
HETATM   40  H   UNK N   1      33.098   9.889  -0.025  0.00  0.00     0.163 HD
HETATM   41  O   UNK N   1      31.378   9.786   1.610  0.00  0.00    -0.271 OA
BRANCH  39  42
HETATM   42  C   UNK N   1      33.145  11.827  -0.788  0.00  0.00     0.177 C 
BRANCH  42  43
HETATM   43  C   UNK N   1      34.578  11.472  -1.160  0.00  0.00     0.240 C 
HETATM   44  N   UNK N   1      35.552  12.411  -1.264  0.00  0.00    -0.351 N 
HETATM   45  H   UNK N   1      36.457  12.125  -1.526  0.00  0.00     0.163 HD
HETATM   46  O   UNK N   1      34.864  10.307  -1.396  0.00  0.00    -0.271 OA
BRANCH  44  47
HETATM   47  C   UNK N   1      35.319  13.810  -1.009  0.00  0.00     0.225 C 
BRANCH  47  48
HETATM   48  C   UNK N   1      35.748  14.188   0.380  0.00  0.00     0.233 C 
HETATM   49  N   UNK N   1      34.938  14.898   1.190  0.00  0.00    -0.369 N 
HETATM   50  H   UNK N   1      34.115  15.158   1.666  0.00  0.00     0.159 HD
HETATM   51  H   UNK N   1      35.557  15.598   1.501  0.00  0.00     0.159 HD
HETATM   52  O   UNK N   1      36.832  13.811   0.791  0.00  0.00    -0.272 OA
ENDBRANCH  47  48
ENDBRANCH  44  47
ENDBRANCH  42  43
BRANCH  42  53
HETATM   53  C   UNK N   1      32.329  12.018  -2.067  0.00  0.00     0.038 C 
BRANCH  53  54
HETATM   54  C   UNK N   1      31.765  10.716  -2.655  0.00  0.00    -0.020 C 
HETATM   55  C   UNK N   1      30.254  10.813  -2.691  0.00  0.00     0.009 C 
HETATM   56  C   UNK N   1      32.268  10.409  -4.056  0.00  0.00     0.009 C 
ENDBRANCH  53  54
ENDBRANCH  42  53
ENDBRANCH  39  42
ENDBRANCH  33  38
ENDBRANCH   1  31
BRANCH   4  57
HETATM   57  C   UNK N   1      29.839  15.718   3.049  0.00  0.00     0.137 C 
BRANCH  57  58
HETATM   58  C   UNK N   1      28.474  16.362   3.075  0.00  0.00     0.217 C 
HETATM   59  O   UNK N   1      28.369  17.521   3.437  0.00  0.00    -0.274 OA
HETATM   60  N   UNK N   1      27.369  15.685   2.695  0.00  0.00    -0.370 N 
HETATM   61  H   UNK N   1      27.300  14.924   2.075  0.00  0.00     0.159 HD
HETATM   62  H   UNK N   1      26.521  15.994   3.089  0.00  0.00     0.159 HD
ENDBRANCH  57  58
ENDBRANCH   4  57
BRANCH  11  63
HETATM   63  C   UNK N   1      30.004  17.976   7.745  0.00  0.00     0.044 C 
BRANCH  63  64
HETATM   64  C   UNK N   1      29.739  17.665   9.203  0.00  0.00     0.105 C 
BRANCH  64  65
HETATM   65  C   UNK N   1      28.278  17.579   9.465  0.00  0.00     0.215 C 
HETATM   66  N   UNK N   1      27.469  18.577   9.062  0.00  0.00    -0.370 N 
HETATM   67  H   UNK N   1      27.747  19.290   8.442  0.00  0.00     0.159 HD
HETATM   68  H   UNK N   1      26.547  18.595   9.407  0.00  0.00     0.159 HD
HETATM   69  O   UNK N   1      27.813  16.617  10.053  0.00  0.00    -0.274 OA
ENDBRANCH  64  65
ENDBRANCH  63  64
ENDBRANCH  11  63
BRANCH  22  70
HETATM   70  C   UNK N   1      37.408  13.278   6.606  0.00  0.00     0.073 C 
BRANCH  70  71
HETATM   71  C   UNK N   1      37.240  12.842   8.038  0.00  0.00    -0.056 A 
HETATM   72  C   UNK N   1      36.126  12.124   8.478  0.00  0.00     0.010 A 
HETATM   73  C   UNK N   1      35.918  11.885   9.835  0.00  0.00     0.037 A 
HETATM   74  C   UNK N   1      36.843  12.348  10.779  0.00  0.00     0.068 A 
HETATM   75  C   UNK N   1      38.003  12.994  10.339  0.00  0.00     0.037 A 
HETATM   76  C   UNK N   1      38.196  13.247   8.975  0.00  0.00     0.010 A 
BRANCH  74  77
HETATM   77  O   UNK N   1      36.622  12.219  12.108  0.00  0.00    -0.356 OA
HETATM   78  C   UNK N   1      35.543  12.789  12.745  0.00  0.00     0.210 C 
ENDBRANCH  74  77
ENDBRANCH  70  71
ENDBRANCH  22  70
BRANCH  14  79
HETATM   79  C   UNK N   1      34.110  15.786   9.467  0.00  0.00     0.013 C 
HETATM   80  C   UNK N   1      33.405  14.803  10.399  0.00  0.00     0.012 C 
BRANCH  79  81
HETATM   81  C   UNK N   1      35.630  15.769   9.654  0.00  0.00     0.002 C 
HETATM   82  C   UNK N   1      36.062  16.062  11.081  0.00  0.00     0.005 C 
ENDBRANCH  79  81
ENDBRANCH  14  79
TORSDOF 18
ENDMDL
MODEL 2
REMARK VINA RESULT:      -7.2      5.400      9.045
REMARK  18 active torsions:
REMARK  status: ('A' for Active; 'I' for Inactive)
REMARK       I    between atoms: C_2  and  N_1 
REMARK    1  A    between atoms: C_3  and  C_2 
REMARK    2  A    between atoms: N_4  and  C_3 
REMARK       I    between atoms: C_5  and  N_4 
REMARK    3  A    between atoms: C_6  and  C_5 
REMARK    4  A    between atoms: N_7  and  C_6 
REMARK    5  A    between atoms: C_6  and  C_12 
REMARK       I    between atoms: C_8  and  N_7 
REMARK    6  A    between atoms: C_15  and  C_8 
REMARK    7  A    between atoms: C_13  and  C_12 
REMARK       I    between atoms: C_20  and  N_17 
REMARK    8  A    between atoms: C_21  and  C_20 
REMARK    9  A    between atoms: C_24  and  C_31 
REMARK   10  A    between atoms: C_32  and  C_31 
REMARK       I    between atoms: N_34  and  C_32 
REMARK   11  A    between atoms: C_36  and  C_38 
REMARK   12  A    between atoms: C_39  and  C_38 
REMARK   13  A    between atoms: C_40  and  C_39 
REMARK       I    between atoms: N_41  and  C_40 
REMARK   14  A    between atoms: C_45  and  C_44 
REMARK   15  A    between atoms: C_46  and  C_45 
REMARK   16  A    between atoms: C_55  and  C_58 
REMARK   17  A    between atoms: C_60  and  C_58 
REMARK   18  A    between atoms: O_66  and  C_62 
ROOT
HETATM    1  C   UNK N   1      25.237  14.477   4.682  0.00  0.00     0.186 C 
HETATM    2  N   UNK N   1      25.825  15.454   3.793  0.00  0.00    -0.345 N 
HETATM    3  C   UNK N   1      25.482  16.761   3.647  0.00  0.00     0.241 C 
HETATM    4  C   UNK N   1      24.944  17.610   4.768  0.00  0.00     0.185 C 
HETATM    5  N   UNK N   1      26.076  17.980   5.580  0.00  0.00    -0.346 N 
HETATM    6  C   UNK N   1      26.160  13.252   4.738  0.00  0.00     0.108 C 
HETATM    7  S   UNK N   1      25.366  11.721   5.363  0.00  0.00    -0.167 SA
HETATM    8  C   UNK N   1      25.839  10.735   3.901  0.00  0.00     0.074 C 
HETATM    9  O   UNK N   1      25.817  17.334   2.623  0.00  0.00    -0.271 OA
HETATM   10  C   UNK N   1      26.715  17.116   6.402  0.00  0.00     0.241 C 
HETATM   11  C   UNK N   1      28.128  17.371   6.738  0.00  0.00     0.177 C 
HETATM   12  O   UNK N   1      26.204  16.058   6.731  0.00  0.00    -0.271 OA
HETATM   13  N   UNK N   1      28.828  17.657   5.501  0.00  0.00    -0.346 N 
HETATM   14  C   UNK N   1      29.699  15.303   5.270  0.00  0.00     0.180 C 
HETATM   15  C   UNK N   1      29.544  16.742   4.795  0.00  0.00     0.241 C 
HETATM   16  N   UNK N   1      27.275  12.572   2.069  0.00  0.00    -0.347 N 
HETATM   17  C   UNK N   1      26.887  11.488   1.343  0.00  0.00     0.218 C 
HETATM   18  C   UNK N   1      25.449  11.051   1.363  0.00  0.00     0.103 C 
HETATM   19  C   UNK N   1      24.833  10.942   2.770  0.00  0.00     0.019 C 
HETATM   20  C   UNK N   1      28.823  14.305   3.052  0.00  0.00     0.241 C 
HETATM   21  O   UNK N   1      28.511  15.360   2.525  0.00  0.00    -0.271 OA
HETATM   22  C   UNK N   1      28.643  13.002   2.300  0.00  0.00     0.180 C 
HETATM   23  N   UNK N   1      29.317  14.265   4.319  0.00  0.00    -0.346 N 
HETATM   24  O   UNK N   1      30.128  17.108   3.787  0.00  0.00    -0.271 OA
HETATM   25  O   UNK N   1      27.691  10.835   0.699  0.00  0.00    -0.274 OA
HETATM   26  H   UNK N   1      26.563  15.133   3.224  0.00  0.00     0.163 HD
HETATM   27  H   UNK N   1      26.400  18.909   5.534  0.00  0.00     0.163 HD
HETATM   28  H   UNK N   1      28.782  18.574   5.148  0.00  0.00     0.163 HD
HETATM   29  H   UNK N   1      26.563  13.116   2.477  0.00  0.00     0.163 HD
HETATM   30  H   UNK N   1      29.442  13.351   4.663  0.00  0.00     0.163 HD
ENDROOT
BRANCH   1  31
HETATM   31  C   UNK N   1      23.896  14.098   4.095  0.00  0.00     0.244 C 
HETATM   32  N   UNK N   1      22.799  13.912   4.902  0.00  0.00    -0.337 N 
HETATM   33  C   UNK N   1      21.520  13.519   4.379  0.00  0.00     0.179 C 
HETATM   34  C   UNK N   1      22.826  14.065   6.329  0.00  0.00     0.127 C 
HETATM   35  C   UNK N   1      20.631  13.422   5.620  0.00  0.00     0.037 C 
HETATM   36  C   UNK N   1      21.516  13.533   6.840  0.00  0.00     0.022 C 
HETATM   37  O   UNK N   1      23.817  13.927   2.892  0.00  0.00    -0.271 OA
BRANCH  33  38
HETATM   38  C   UNK N   1      21.564  12.188   3.670  0.00  0.00     0.241 C 
HETATM   39  N   UNK N   1      21.013  12.002   2.441  0.00  0.00    -0.346 N 
HETATM   40  H   UNK N   1      21.015  11.075   2.110  0.00  0.00     0.163 HD
HETATM   41  O   UNK N   1      22.101  11.236   4.217  0.00  0.00    -0.271 OA
BRANCH  39  42
HETATM   42  C   UNK N   1      20.420  12.990   1.544  0.00  0.00     0.177 C 
BRANCH  42  43
HETATM   43  C   UNK N   1      21.559  13.720   0.846  0.00  0.00     0.240 C 
HETATM   44  N   UNK N   1      21.746  15.058   0.976  0.00  0.00    -0.351 N 
HETATM   45  H   UNK N   1      22.489  15.480   0.487  0.00  0.00     0.163 HD
HETATM   46  O   UNK N   1      22.321  13.092   0.126  0.00  0.00    -0.271 OA
BRANCH  44  47
HETATM   47  C   UNK N   1      20.904  15.888   1.799  0.00  0.00     0.225 C 
BRANCH  47  48
HETATM   48  C   UNK N   1      20.180  16.914   0.975  0.00  0.00     0.233 C 
HETATM   49  N   UNK N   1      19.271  17.740   1.533  0.00  0.00    -0.369 N 
HETATM   50  H   UNK N   1      18.885  18.380   2.175  0.00  0.00     0.159 HD
HETATM   51  H   UNK N   1      18.523  17.642   0.901  0.00  0.00     0.159 HD
HETATM   52  O   UNK N   1      20.448  17.025  -0.209  0.00  0.00    -0.272 OA
ENDBRANCH  47  48
ENDBRANCH  44  47
ENDBRANCH  42  43
BRANCH  42  53
HETATM   53  C   UNK N   1      19.512  12.354   0.490  0.00  0.00     0.038 C 
BRANCH  53  54
HETATM   54  C   UNK N   1      18.053  12.830   0.544  0.00  0.00    -0.020 C 
HETATM   55  C   UNK N   1      17.977  14.229  -0.032  0.00  0.00     0.009 C 
HETATM   56  C   UNK N   1      17.089  11.935  -0.217  0.00  0.00     0.009 C 
ENDBRANCH  53  54
ENDBRANCH  42  53
ENDBRANCH  39  42
ENDBRANCH  33  38
ENDBRANCH   1  31
BRANCH   4  57
HETATM   57  C   UNK N   1      23.735  17.110   5.558  0.00  0.00     0.137 C 
BRANCH  57  58
HETATM   58  C   UNK N   1      22.529  18.009   5.419  0.00  0.00     0.217 C 
HETATM   59  O   UNK N   1      21.913  18.337   6.418  0.00  0.00    -0.274 OA
HETATM   60  N   UNK N   1      22.128  18.466   4.213  0.00  0.00    -0.370 N 
HETATM   61  H   UNK N   1      22.665  18.601   3.400  0.00  0.00     0.159 HD
HETATM   62  H   UNK N   1      21.173  18.696   4.139  0.00  0.00     0.159 HD
ENDBRANCH  57  58
ENDBRANCH   4  57
BRANCH  11  63
HETATM   63  C   UNK N   1      28.273  18.527   7.697  0.00  0.00     0.044 C 
BRANCH  63  64
HETATM   64  C   UNK N   1      28.174  17.970   9.101  0.00  0.00     0.105 C 
BRANCH  64  65
HETATM   65  C   UNK N   1      29.527  17.730   9.669  0.00  0.00     0.215 C 
HETATM   66  N   UNK N   1      29.695  16.787  10.614  0.00  0.00    -0.370 N 
HETATM   67  H   UNK N   1      29.015  16.111  10.840  0.00  0.00     0.159 HD
HETATM   68  H   UNK N   1      30.546  16.773  11.110  0.00  0.00     0.159 HD
HETATM   69  O   UNK N   1      30.480  18.391   9.291  0.00  0.00    -0.274 OA
ENDBRANCH  64  65
ENDBRANCH  63  64
ENDBRANCH  11  63
BRANCH  22  70
HETATM   70  C   UNK N   1      29.803  12.101   1.820  0.00  0.00     0.073 C 
BRANCH  70  71
HETATM   71  C   UNK N   1      30.483  11.187   2.805  0.00  0.00    -0.056 A 
HETATM   72  C   UNK N   1      29.836  10.688   3.937  0.00  0.00     0.010 A 
HETATM   73  C   UNK N   1      30.539   9.988   4.914  0.00  0.00     0.037 A 
HETATM   74  C   UNK N   1      31.912   9.756   4.760  0.00  0.00     0.068 A 
HETATM   75  C   UNK N   1      32.549  10.179   3.589  0.00  0.00     0.037 A 
HETATM   76  C   UNK N   1      31.840  10.899   2.620  0.00  0.00     0.010 A 
BRANCH  74  77
HETATM   77  O   UNK N   1      32.642   9.166   5.735  0.00  0.00    -0.356 OA
HETATM   78  C   UNK N   1      33.217   9.872   6.769  0.00  0.00     0.210 C 
ENDBRANCH  74  77
ENDBRANCH  70  71
ENDBRANCH  22  70
BRANCH  14  79
HETATM   79  C   UNK N   1      31.154  15.020   5.693  0.00  0.00     0.013 C 
HETATM   80  C   UNK N   1      31.501  15.515   7.095  0.00  0.00     0.012 C 
BRANCH  79  81
HETATM   81  C   UNK N   1      31.633  13.584   5.454  0.00  0.00     0.002 C 
HETATM   82  C   UNK N   1      33.095  13.499   5.050  0.00  0.00     0.005 C 
ENDBRANCH  79  81
ENDBRANCH  14  79
TORSDOF 18
ENDMDL
MODEL 3
REMARK VINA RESULT:      -7.2      4.450      8.275
REMARK  18 active torsions:
REMARK  status: ('A' for Active; 'I' for Inactive)
REMARK       I    between atoms: C_2  and  N_1 
REMARK    1  A    between atoms: C_3  and  C_2 
REMARK    2  A    between atoms: N_4  and  C_3 
REMARK       I    between atoms: C_5  and  N_4 
REMARK    3  A    between atoms: C_6  and  C_5 
REMARK    4  A    between atoms: N_7  and  C_6 
REMARK    5  A    between atoms: C_6  and  C_12 
REMARK       I    between atoms: C_8  and  N_7 
REMARK    6  A    between atoms: C_15  and  C_8 
REMARK    7  A    between atoms: C_13  and  C_12 
REMARK       I    between atoms: C_20  and  N_17 
REMARK    8  A    between atoms: C_21  and  C_20 
REMARK    9  A    between atoms: C_24  and  C_31 
REMARK   10  A    between atoms: C_32  and  C_31 
REMARK       I    between atoms: N_34  and  C_32 
REMARK   11  A    between atoms: C_36  and  C_38 
REMARK   12  A    between atoms: C_39  and  C_38 
REMARK   13  A    between atoms: C_40  and  C_39 
REMARK       I    between atoms: N_41  and  C_40 
REMARK   14  A    between atoms: C_45  and  C_44 
REMARK   15  A    between atoms: C_46  and  C_45 
REMARK   16  A    between atoms: C_55  and  C_58 
REMARK   17  A    between atoms: C_60  and  C_58 
REMARK   18  A    between atoms: O_66  and  C_62 
ROOT
HETATM    1  C   UNK N   1      34.850  12.479  10.351  0.00  0.00     0.186 C 
HETATM    2  N   UNK N   1      36.263  12.614  10.629  0.00  0.00    -0.345 N 
HETATM    3  C   UNK N   1      36.948  13.747  10.940  0.00  0.00     0.241 C 
HETATM    4  C   UNK N   1      36.346  14.900  11.699  0.00  0.00     0.185 C 
HETATM    5  N   UNK N   1      36.327  14.509  13.087  0.00  0.00    -0.346 N 
HETATM    6  C   UNK N   1      34.487  10.988  10.386  0.00  0.00     0.108 C 
HETATM    7  S   UNK N   1      32.908  10.563   9.555  0.00  0.00    -0.167 SA
HETATM    8  C   UNK N   1      33.674   9.304   8.478  0.00  0.00     0.074 C 
HETATM    9  O   UNK N   1      38.158  13.750  10.785  0.00  0.00    -0.271 OA
HETATM   10  C   UNK N   1      35.466  13.594  13.589  0.00  0.00     0.241 C 
HETATM   11  C   UNK N   1      35.853  12.851  14.804  0.00  0.00     0.177 C 
HETATM   12  O   UNK N   1      34.467  13.258  12.975  0.00  0.00    -0.271 OA
HETATM   13  N   UNK N   1      37.204  12.365  14.609  0.00  0.00    -0.346 N 
HETATM   14  C   UNK N   1      36.441  10.069  13.901  0.00  0.00     0.180 C 
HETATM   15  C   UNK N   1      37.515  11.110  14.188  0.00  0.00     0.241 C 
HETATM   16  N   UNK N   1      36.572   9.302   9.108  0.00  0.00    -0.347 N 
HETATM   17  C   UNK N   1      36.413   8.689   7.903  0.00  0.00     0.218 C 
HETATM   18  C   UNK N   1      35.649   9.380   6.809  0.00  0.00     0.103 C 
HETATM   19  C   UNK N   1      34.290   9.960   7.245  0.00  0.00     0.019 C 
HETATM   20  C   UNK N   1      37.297   9.610  11.505  0.00  0.00     0.241 C 
HETATM   21  O   UNK N   1      38.150  10.482  11.481  0.00  0.00    -0.271 OA
HETATM   22  C   UNK N   1      37.115   8.695  10.311  0.00  0.00     0.180 C 
HETATM   23  N   UNK N   1      36.481   9.448  12.582  0.00  0.00    -0.346 N 
HETATM   24  O   UNK N   1      38.693  10.798  14.100  0.00  0.00    -0.271 OA
HETATM   25  O   UNK N   1      36.848   7.568   7.699  0.00  0.00    -0.274 OA
HETATM   26  H   UNK N   1      36.793  11.784  10.587  0.00  0.00     0.163 HD
HETATM   27  H   UNK N   1      36.973  14.930  13.700  0.00  0.00     0.163 HD
HETATM   28  H   UNK N   1      37.946  12.984  14.794  0.00  0.00     0.163 HD
HETATM   29  H   UNK N   1      36.293  10.244   9.172  0.00  0.00     0.163 HD
HETATM   30  H   UNK N   1      35.776   8.775  12.443  0.00  0.00     0.163 HD
ENDROOT
BRANCH   1  31
HETATM   31  C   UNK N   1      34.617  13.044   8.968  0.00  0.00     0.244 C 
HETATM   32  N   UNK N   1      33.560  13.886   8.718  0.00  0.00    -0.337 N 
HETATM   33  C   UNK N   1      33.292  14.413   7.409  0.00  0.00     0.179 C 
HETATM   34  C   UNK N   1      32.616  14.298   9.719  0.00  0.00     0.127 C 
HETATM   35  C   UNK N   1      32.037  15.266   7.607  0.00  0.00     0.037 C 
HETATM   36  C   UNK N   1      31.498  14.992   8.993  0.00  0.00     0.022 C 
HETATM   37  O   UNK N   1      35.369  12.710   8.071  0.00  0.00    -0.271 OA
BRANCH  33  38
HETATM   38  C   UNK N   1      33.025  13.333   6.390  0.00  0.00     0.241 C 
HETATM   39  N   UNK N   1      33.541  13.379   5.132  0.00  0.00    -0.346 N 
HETATM   40  H   UNK N   1      33.232  12.674   4.519  0.00  0.00     0.163 HD
HETATM   41  O   UNK N   1      32.314  12.386   6.691  0.00  0.00    -0.271 OA
BRANCH  39  42
HETATM   42  C   UNK N   1      34.494  14.331   4.567  0.00  0.00     0.177 C 
BRANCH  42  43
HETATM   43  C   UNK N   1      35.653  13.531   3.987  0.00  0.00     0.240 C 
HETATM   44  N   UNK N   1      36.904  13.587   4.512  0.00  0.00    -0.351 N 
HETATM   45  H   UNK N   1      37.618  13.062   4.084  0.00  0.00     0.163 HD
HETATM   46  O   UNK N   1      35.465  12.831   3.003  0.00  0.00    -0.271 OA
BRANCH  44  47
HETATM   47  C   UNK N   1      37.230  14.382   5.669  0.00  0.00     0.225 C 
BRANCH  47  48
HETATM   48  C   UNK N   1      38.425  13.826   6.390  0.00  0.00     0.233 C 
HETATM   49  N   UNK N   1      38.319  13.346   7.646  0.00  0.00    -0.369 N 
HETATM   50  H   UNK N   1      37.961  12.826   8.402  0.00  0.00     0.159 HD
HETATM   51  H   UNK N   1      39.075  13.804   8.081  0.00  0.00     0.159 HD
HETATM   52  O   UNK N   1      39.498  13.775   5.814  0.00  0.00    -0.272 OA
ENDBRANCH  47  48
ENDBRANCH  44  47
ENDBRANCH  42  43
BRANCH  42  53
HETATM   53  C   UNK N   1      33.878  15.192   3.464  0.00  0.00     0.038 C 
BRANCH  53  54
HETATM   54  C   UNK N   1      32.814  16.183   3.958  0.00  0.00    -0.020 C 
HETATM   55  C   UNK N   1      33.476  17.190   4.876  0.00  0.00     0.009 C 
HETATM   56  C   UNK N   1      32.109  16.931   2.840  0.00  0.00     0.009 C 
ENDBRANCH  53  54
ENDBRANCH  42  53
ENDBRANCH  39  42
ENDBRANCH  33  38
ENDBRANCH   1  31
BRANCH   4  57
HETATM   57  C   UNK N   1      35.040  15.513  11.196  0.00  0.00     0.137 C 
BRANCH  57  58
HETATM   58  C   UNK N   1      35.249  16.812  10.453  0.00  0.00     0.217 C 
HETATM   59  O   UNK N   1      36.286  17.430  10.615  0.00  0.00    -0.274 OA
HETATM   60  N   UNK N   1      34.315  17.294   9.605  0.00  0.00    -0.370 N 
HETATM   61  H   UNK N   1      33.629  16.799   9.102  0.00  0.00     0.159 HD
HETATM   62  H   UNK N   1      34.322  18.270   9.471  0.00  0.00     0.159 HD
ENDBRANCH  57  58
ENDBRANCH   4  57
BRANCH  11  63
HETATM   63  C   UNK N   1      35.784  13.720  16.035  0.00  0.00     0.044 C 
BRANCH  63  64
HETATM   64  C   UNK N   1      35.154  12.899  17.139  0.00  0.00     0.105 C 
BRANCH  64  65
HETATM   65  C   UNK N   1      35.235  13.616  18.440  0.00  0.00     0.215 C 
HETATM   66  N   UNK N   1      35.422  14.948  18.455  0.00  0.00    -0.370 N 
HETATM   67  H   UNK N   1      35.334  15.523  17.660  0.00  0.00     0.159 HD
HETATM   68  H   UNK N   1      35.662  15.374  19.310  0.00  0.00     0.159 HD
HETATM   69  O   UNK N   1      35.146  13.001  19.489  0.00  0.00    -0.274 OA
ENDBRANCH  64  65
ENDBRANCH  63  64
ENDBRANCH  11  63
BRANCH  22  70
HETATM   70  C   UNK N   1      37.421   7.180  10.314  0.00  0.00     0.073 C 
BRANCH  70  71
HETATM   71  C   UNK N   1      36.450   6.234  10.971  0.00  0.00    -0.056 A 
HETATM   72  C   UNK N   1      35.067   6.405  10.894  0.00  0.00     0.010 A 
HETATM   73  C   UNK N   1      34.204   5.615  11.651  0.00  0.00     0.037 A 
HETATM   74  C   UNK N   1      34.719   4.618  12.489  0.00  0.00     0.068 A 
HETATM   75  C   UNK N   1      36.099   4.386  12.507  0.00  0.00     0.037 A 
HETATM   76  C   UNK N   1      36.961   5.196  11.758  0.00  0.00     0.010 A 
BRANCH  74  77
HETATM   77  O   UNK N   1      33.917   3.901  13.310  0.00  0.00    -0.356 OA
HETATM   78  C   UNK N   1      32.543   3.923  13.219  0.00  0.00     0.210 C 
ENDBRANCH  74  77
ENDBRANCH  70  71
ENDBRANCH  22  70
BRANCH  14  79
HETATM   79  C   UNK N   1      36.488   8.933  14.941  0.00  0.00     0.013 C 
HETATM   80  C   UNK N   1      35.979   9.334  16.324  0.00  0.00     0.012 C 
BRANCH  79  81
HETATM   81  C   UNK N   1      35.898   7.599  14.474  0.00  0.00     0.002 C 
HETATM   82  C   UNK N   1      35.827   6.554  15.575  0.00  0.00     0.005 C 
ENDBRANCH  79  81
ENDBRANCH  14  79
TORSDOF 18
ENDMDL
MODEL 4
REMARK VINA RESULT:      -7.1      5.467      9.857
REMARK  18 active torsions:
REMARK  status: ('A' for Active; 'I' for Inactive)
REMARK       I    between atoms: C_2  and  N_1 
REMARK    1  A    between atoms: C_3  and  C_2 
REMARK    2  A    between atoms: N_4  and  C_3 
REMARK       I    between atoms: C_5  and  N_4 
REMARK    3  A    between atoms: C_6  and  C_5 
REMARK    4  A    between atoms: N_7  and  C_6 
REMARK    5  A    between atoms: C_6  and  C_12 
REMARK       I    between atoms: C_8  and  N_7 
REMARK    6  A    between atoms: C_15  and  C_8 
REMARK    7  A    between atoms: C_13  and  C_12 
REMARK       I    between atoms: C_20  and  N_17 
REMARK    8  A    between atoms: C_21  and  C_20 
REMARK    9  A    between atoms: C_24  and  C_31 
REMARK   10  A    between atoms: C_32  and  C_31 
REMARK       I    between atoms: N_34  and  C_32 
REMARK   11  A    between atoms: C_36  and  C_38 
REMARK   12  A    between atoms: C_39  and  C_38 
REMARK   13  A    between atoms: C_40  and  C_39 
REMARK       I    between atoms: N_41  and  C_40 
REMARK   14  A    between atoms: C_45  and  C_44 
REMARK   15  A    between atoms: C_46  and  C_45 
REMARK   16  A    between atoms: C_55  and  C_58 
REMARK   17  A    between atoms: C_60  and  C_58 
REMARK   18  A    between atoms: O_66  and  C_62 
ROOT
HETATM    1  C   UNK N   1      24.949  14.458   4.775  0.00  0.00     0.186 C 
HETATM    2  N   UNK N   1      25.622  15.274   3.788  0.00  0.00    -0.345 N 
HETATM    3  C   UNK N   1      25.462  16.605   3.557  0.00  0.00     0.241 C 
HETATM    4  C   UNK N   1      25.113  17.600   4.633  0.00  0.00     0.185 C 
HETATM    5  N   UNK N   1      26.330  17.855   5.363  0.00  0.00    -0.346 N 
HETATM    6  C   UNK N   1      25.689  13.118   4.884  0.00  0.00     0.108 C 
HETATM    7  S   UNK N   1      24.720  11.768   5.660  0.00  0.00    -0.167 SA
HETATM    8  C   UNK N   1      24.965  10.623   4.258  0.00  0.00     0.074 C 
HETATM    9  O   UNK N   1      25.818  17.049   2.479  0.00  0.00    -0.271 OA
HETATM   10  C   UNK N   1      26.882  16.965   6.220  0.00  0.00     0.241 C 
HETATM   11  C   UNK N   1      28.334  17.033   6.472  0.00  0.00     0.177 C 
HETATM   12  O   UNK N   1      26.244  16.019   6.652  0.00  0.00    -0.271 OA
HETATM   13  N   UNK N   1      28.999  17.126   5.187  0.00  0.00    -0.346 N 
HETATM   14  C   UNK N   1      29.509  14.659   5.099  0.00  0.00     0.180 C 
HETATM   15  C   UNK N   1      29.536  16.069   4.523  0.00  0.00     0.241 C 
HETATM   16  N   UNK N   1      26.547  12.098   2.229  0.00  0.00    -0.347 N 
HETATM   17  C   UNK N   1      25.967  11.035   1.606  0.00  0.00     0.218 C 
HETATM   18  C   UNK N   1      24.485  10.817   1.723  0.00  0.00     0.103 C 
HETATM   19  C   UNK N   1      23.938  10.897   3.160  0.00  0.00     0.019 C 
HETATM   20  C   UNK N   1      28.379  13.649   3.005  0.00  0.00     0.241 C 
HETATM   21  O   UNK N   1      28.192  14.699   2.414  0.00  0.00    -0.271 OA
HETATM   22  C   UNK N   1      27.972  12.337   2.365  0.00  0.00     0.180 C 
HETATM   23  N   UNK N   1      28.931  13.625   4.248  0.00  0.00    -0.346 N 
HETATM   24  O   UNK N   1      30.110  16.274   3.464  0.00  0.00    -0.271 OA
HETATM   25  O   UNK N   1      26.633  10.227   0.979  0.00  0.00    -0.274 OA
HETATM   26  H   UNK N   1      26.273  14.810   3.214  0.00  0.00     0.163 HD
HETATM   27  H   UNK N   1      26.780  18.720   5.232  0.00  0.00     0.163 HD
HETATM   28  H   UNK N   1      29.065  18.013   4.767  0.00  0.00     0.163 HD
HETATM   29  H   UNK N   1      25.943  12.768   2.624  0.00  0.00     0.163 HD
HETATM   30  H   UNK N   1      28.942  12.728   4.656  0.00  0.00     0.163 HD
ENDROOT
BRANCH   1  31
HETATM   31  C   UNK N   1      23.537  14.241   4.279  0.00  0.00     0.244 C 
HETATM   32  N   UNK N   1      22.472  14.267   5.147  0.00  0.00    -0.337 N 
HETATM   33  C   UNK N   1      21.123  14.031   4.713  0.00  0.00     0.179 C 
HETATM   34  C   UNK N   1      22.599  14.506   6.556  0.00  0.00     0.127 C 
HETATM   35  C   UNK N   1      20.300  14.143   5.997  0.00  0.00     0.037 C 
HETATM   36  C   UNK N   1      21.258  14.203   7.164  0.00  0.00     0.022 C 
HETATM   37  O   UNK N   1      23.368  14.007   3.097  0.00  0.00    -0.271 OA
BRANCH  33  38
HETATM   38  C   UNK N   1      20.939  12.665   4.099  0.00  0.00     0.241 C 
HETATM   39  N   UNK N   1      20.317  12.484   2.904  0.00  0.00    -0.346 N 
HETATM   40  H   UNK N   1      20.167  11.548   2.639  0.00  0.00     0.163 HD
HETATM   41  O   UNK N   1      21.350  11.681   4.695  0.00  0.00    -0.271 OA
BRANCH  39  42
HETATM   42  C   UNK N   1      19.841  13.490   1.957  0.00  0.00     0.177 C 
BRANCH  42  43
HETATM   43  C   UNK N   1      21.016  13.879   1.071  0.00  0.00     0.240 C 
HETATM   44  N   UNK N   1      21.493  15.149   1.020  0.00  0.00    -0.351 N 
HETATM   45  H   UNK N   1      22.244  15.346   0.415  0.00  0.00     0.163 HD
HETATM   46  O   UNK N   1      21.538  13.031   0.362  0.00  0.00    -0.271 OA
BRANCH  44  47
HETATM   47  C   UNK N   1      20.948  16.220   1.814  0.00  0.00     0.225 C 
BRANCH  47  48
HETATM   48  C   UNK N   1      20.104  17.140   0.978  0.00  0.00     0.233 C 
HETATM   49  N   UNK N   1      19.149  17.910   1.539  0.00  0.00    -0.369 N 
HETATM   50  H   UNK N   1      18.733  18.543   2.169  0.00  0.00     0.159 HD
HETATM   51  H   UNK N   1      18.388  17.718   0.945  0.00  0.00     0.159 HD
HETATM   52  O   UNK N   1      20.315  17.219  -0.220  0.00  0.00    -0.272 OA
ENDBRANCH  47  48
ENDBRANCH  44  47
ENDBRANCH  42  43
BRANCH  42  53
HETATM   53  C   UNK N   1      18.700  12.974   1.079  0.00  0.00     0.038 C 
BRANCH  53  54
HETATM   54  C   UNK N   1      18.496  11.454   1.139  0.00  0.00    -0.020 C 
HETATM   55  C   UNK N   1      17.060  11.171   1.532  0.00  0.00     0.009 C 
HETATM   56  C   UNK N   1      18.792  10.744  -0.172  0.00  0.00     0.009 C 
ENDBRANCH  53  54
ENDBRANCH  42  53
ENDBRANCH  39  42
ENDBRANCH  33  38
ENDBRANCH   1  31
BRANCH   4  57
HETATM   57  C   UNK N   1      23.890  17.338   5.512  0.00  0.00     0.137 C 
BRANCH  57  58
HETATM   58  C   UNK N   1      22.627  17.957   4.960  0.00  0.00     0.217 C 
HETATM   59  O   UNK N   1      22.687  18.627   3.945  0.00  0.00    -0.274 OA
HETATM   60  N   UNK N   1      21.433  17.772   5.564  0.00  0.00    -0.370 N 
HETATM   61  H   UNK N   1      21.145  17.026   6.136  0.00  0.00     0.159 HD
HETATM   62  H   UNK N   1      20.762  18.477   5.409  0.00  0.00     0.159 HD
ENDBRANCH  57  58
ENDBRANCH   4  57
BRANCH  11  63
HETATM   63  C   UNK N   1      28.696  18.219   7.332  0.00  0.00     0.044 C 
BRANCH  63  64
HETATM   64  C   UNK N   1      29.638  17.729   8.411  0.00  0.00     0.105 C 
BRANCH  64  65
HETATM   65  C   UNK N   1      28.882  17.322   9.625  0.00  0.00     0.215 C 
HETATM   66  N   UNK N   1      29.532  16.748  10.654  0.00  0.00    -0.370 N 
HETATM   67  H   UNK N   1      30.514  16.733  10.741  0.00  0.00     0.159 HD
HETATM   68  H   UNK N   1      28.998  16.316  11.359  0.00  0.00     0.159 HD
HETATM   69  O   UNK N   1      27.676  17.496   9.687  0.00  0.00    -0.274 OA
ENDBRANCH  64  65
ENDBRANCH  63  64
ENDBRANCH  11  63
BRANCH  22  70
HETATM   70  C   UNK N   1      28.963  11.244   1.904  0.00  0.00     0.073 C 
BRANCH  70  71
HETATM   71  C   UNK N   1      29.978  11.571   0.840  0.00  0.00    -0.056 A 
HETATM   72  C   UNK N   1      29.656  11.608  -0.518  0.00  0.00     0.010 A 
HETATM   73  C   UNK N   1      30.648  11.743  -1.487  0.00  0.00     0.037 A 
HETATM   74  C   UNK N   1      31.990  11.866  -1.104  0.00  0.00     0.068 A 
HETATM   75  C   UNK N   1      32.311  11.914   0.257  0.00  0.00     0.037 A 
HETATM   76  C   UNK N   1      31.310  11.758   1.224  0.00  0.00     0.010 A 
BRANCH  74  77
HETATM   77  O   UNK N   1      32.985  11.900  -2.020  0.00  0.00    -0.356 OA
HETATM   78  C   UNK N   1      32.758  11.811  -3.375  0.00  0.00     0.210 C 
ENDBRANCH  74  77
ENDBRANCH  70  71
ENDBRANCH  22  70
BRANCH  14  79
HETATM   79  C   UNK N   1      30.930  14.195   5.478  0.00  0.00     0.013 C 
HETATM   80  C   UNK N   1      31.715  13.588   4.318  0.00  0.00     0.012 C 
BRANCH  79  81
HETATM   81  C   UNK N   1      31.758  15.216   6.264  0.00  0.00     0.002 C 
HETATM   82  C   UNK N   1      32.214  14.704   7.620  0.00  0.00     0.005 C 
ENDBRANCH  79  81
ENDBRANCH  14  79
TORSDOF 18
ENDMDL
MODEL 5
REMARK VINA RESULT:      -7.0      4.073      9.256
REMARK  18 active torsions:
REMARK  status: ('A' for Active; 'I' for Inactive)
REMARK       I    between atoms: C_2  and  N_1 
REMARK    1  A    between atoms: C_3  and  C_2 
REMARK    2  A    between atoms: N_4  and  C_3 
REMARK       I    between atoms: C_5  and  N_4 
REMARK    3  A    between atoms: C_6  and  C_5 
REMARK    4  A    between atoms: N_7  and  C_6 
REMARK    5  A    between atoms: C_6  and  C_12 
REMARK       I    between atoms: C_8  and  N_7 
REMARK    6  A    between atoms: C_15  and  C_8 
REMARK    7  A    between atoms: C_13  and  C_12 
REMARK       I    between atoms: C_20  and  N_17 
REMARK    8  A    between atoms: C_21  and  C_20 
REMARK    9  A    between atoms: C_24  and  C_31 
REMARK   10  A    between atoms: C_32  and  C_31 
REMARK       I    between atoms: N_34  and  C_32 
REMARK   11  A    between atoms: C_36  and  C_38 
REMARK   12  A    between atoms: C_39  and  C_38 
REMARK   13  A    between atoms: C_40  and  C_39 
REMARK       I    between atoms: N_41  and  C_40 
REMARK   14  A    between atoms: C_45  and  C_44 
REMARK   15  A    between atoms: C_46  and  C_45 
REMARK   16  A    between atoms: C_55  and  C_58 
REMARK   17  A    between atoms: C_60  and  C_58 
REMARK   18  A    between atoms: O_66  and  C_62 
ROOT
HETATM    1  C   UNK N   1      27.713  13.073   3.396  0.00  0.00     0.186 C 
HETATM    2  N   UNK N   1      28.612  12.396   4.305  0.00  0.00    -0.345 N 
HETATM    3  C   UNK N   1      28.896  11.067   4.361  0.00  0.00     0.241 C 
HETATM    4  C   UNK N   1      28.897  10.165   3.155  0.00  0.00     0.185 C 
HETATM    5  N   UNK N   1      30.133  10.417   2.458  0.00  0.00    -0.346 N 
HETATM    6  C   UNK N   1      27.974  14.583   3.489  0.00  0.00     0.108 C 
HETATM    7  S   UNK N   1      26.619  15.636   2.841  0.00  0.00    -0.167 SA
HETATM    8  C   UNK N   1      26.470  16.602   4.384  0.00  0.00     0.074 C 
HETATM    9  O   UNK N   1      29.373  10.624   5.392  0.00  0.00    -0.271 OA
HETATM   10  C   UNK N   1      30.368  11.543   1.745  0.00  0.00     0.241 C 
HETATM   11  C   UNK N   1      31.763  11.984   1.556  0.00  0.00     0.177 C 
HETATM   12  O   UNK N   1      29.456  12.279   1.404  0.00  0.00    -0.271 OA
HETATM   13  N   UNK N   1      32.415  11.942   2.849  0.00  0.00    -0.346 N 
HETATM   14  C   UNK N   1      32.089  14.406   3.266  0.00  0.00     0.180 C 
HETATM   15  C   UNK N   1      32.574  13.018   3.664  0.00  0.00     0.241 C 
HETATM   16  N   UNK N   1      28.439  15.464   6.288  0.00  0.00    -0.347 N 
HETATM   17  C   UNK N   1      27.540  16.190   7.009  0.00  0.00     0.218 C 
HETATM   18  C   UNK N   1      26.069  15.929   6.850  0.00  0.00     0.103 C 
HETATM   19  C   UNK N   1      25.585  15.867   5.389  0.00  0.00     0.019 C 
HETATM   20  C   UNK N   1      30.681  14.708   5.413  0.00  0.00     0.241 C 
HETATM   21  O   UNK N   1      30.846  13.586   5.860  0.00  0.00    -0.271 OA
HETATM   22  C   UNK N   1      29.865  15.720   6.191  0.00  0.00     0.180 C 
HETATM   23  N   UNK N   1      31.200  15.075   4.210  0.00  0.00    -0.346 N 
HETATM   24  O   UNK N   1      33.178  12.872   4.716  0.00  0.00    -0.271 OA
HETATM   25  O   UNK N   1      27.902  17.079   7.762  0.00  0.00    -0.274 OA
HETATM   26  H   UNK N   1      29.073  12.966   4.963  0.00  0.00     0.163 HD
HETATM   27  H   UNK N   1      30.842   9.736   2.502  0.00  0.00     0.163 HD
HETATM   28  H   UNK N   1      32.767  11.076   3.159  0.00  0.00     0.163 HD
HETATM   29  H   UNK N   1      28.089  14.693   5.784  0.00  0.00     0.163 HD
HETATM   30  H   UNK N   1      30.919  15.972   3.918  0.00  0.00     0.163 HD
ENDROOT
BRANCH   1  31
HETATM   31  C   UNK N   1      26.306  12.754   3.847  0.00  0.00     0.244 C 
HETATM   32  N   UNK N   1      25.318  12.473   2.934  0.00  0.00    -0.337 N 
HETATM   33  C   UNK N   1      23.964  12.199   3.329  0.00  0.00     0.179 C 
HETATM   34  C   UNK N   1      25.529  12.451   1.515  0.00  0.00     0.127 C 
HETATM   35  C   UNK N   1      23.236  11.966   2.004  0.00  0.00     0.037 C 
HETATM   36  C   UNK N   1      24.169  12.359   0.881  0.00  0.00     0.022 C 
HETATM   37  O   UNK N   1      26.059  12.784   5.039  0.00  0.00    -0.271 OA
BRANCH  33  38
HETATM   38  C   UNK N   1      23.329  13.349   4.071  0.00  0.00     0.241 C 
HETATM   39  N   UNK N   1      22.794  13.204   5.312  0.00  0.00    -0.346 N 
HETATM   40  H   UNK N   1      22.323  13.992   5.668  0.00  0.00     0.163 HD
HETATM   41  O   UNK N   1      23.280  14.449   3.542  0.00  0.00    -0.271 OA
BRANCH  39  42
HETATM   42  C   UNK N   1      22.822  12.038   6.192  0.00  0.00     0.177 C 
BRANCH  42  43
HETATM   43  C   UNK N   1      22.135  12.427   7.494  0.00  0.00     0.240 C 
HETATM   44  N   UNK N   1      22.831  12.681   8.631  0.00  0.00    -0.351 N 
HETATM   45  H   UNK N   1      22.331  12.910   9.448  0.00  0.00     0.163 HD
HETATM   46  O   UNK N   1      20.914  12.494   7.530  0.00  0.00    -0.271 OA
BRANCH  44  47
HETATM   47  C   UNK N   1      24.269  12.627   8.694  0.00  0.00     0.225 C 
BRANCH  47  48
HETATM   48  C   UNK N   1      24.754  12.693  10.114  0.00  0.00     0.233 C 
HETATM   49  N   UNK N   1      25.683  13.593  10.492  0.00  0.00    -0.369 N 
HETATM   50  H   UNK N   1      26.131  14.466  10.586  0.00  0.00     0.159 HD
HETATM   51  H   UNK N   1      26.311  13.014  10.982  0.00  0.00     0.159 HD
HETATM   52  O   UNK N   1      24.268  11.944  10.945  0.00  0.00    -0.272 OA
ENDBRANCH  47  48
ENDBRANCH  44  47
ENDBRANCH  42  43
BRANCH  42  53
HETATM   53  C   UNK N   1      22.104  10.830   5.588  0.00  0.00     0.038 C 
BRANCH  53  54
HETATM   54  C   UNK N   1      22.892   9.516   5.683  0.00  0.00    -0.020 C 
HETATM   55  C   UNK N   1      22.739   8.761   4.379  0.00  0.00     0.009 C 
HETATM   56  C   UNK N   1      24.373   9.709   5.965  0.00  0.00     0.009 C 
ENDBRANCH  53  54
ENDBRANCH  42  53
ENDBRANCH  39  42
ENDBRANCH  33  38
ENDBRANCH   1  31
BRANCH   4  57
HETATM   57  C   UNK N   1      27.660  10.130   2.259  0.00  0.00     0.137 C 
BRANCH  57  58
HETATM   58  C   UNK N   1      26.701   9.022   2.623  0.00  0.00     0.217 C 
HETATM   59  O   UNK N   1      25.545   9.086   2.245  0.00  0.00    -0.274 OA
HETATM   60  N   UNK N   1      27.102   7.956   3.349  0.00  0.00    -0.370 N 
HETATM   61  H   UNK N   1      28.005   7.573   3.429  0.00  0.00     0.159 HD
HETATM   62  H   UNK N   1      26.398   7.501   3.867  0.00  0.00     0.159 HD
ENDBRANCH  57  58
ENDBRANCH   4  57
BRANCH  11  63
HETATM   63  C   UNK N   1      32.496  11.105   0.574  0.00  0.00     0.044 C 
BRANCH  63  64
HETATM   64  C   UNK N   1      32.561  11.847  -0.744  0.00  0.00     0.105 C 
BRANCH  64  65
HETATM   65  C   UNK N   1      31.526  11.342  -1.684  0.00  0.00     0.215 C 
HETATM   66  N   UNK N   1      30.323  11.944  -1.736  0.00  0.00    -0.370 N 
HETATM   67  H   UNK N   1      30.128  12.815  -1.319  0.00  0.00     0.159 HD
HETATM   68  H   UNK N   1      29.595  11.486  -2.216  0.00  0.00     0.159 HD
HETATM   69  O   UNK N   1      31.758  10.381  -2.398  0.00  0.00    -0.274 OA
ENDBRANCH  64  65
ENDBRANCH  63  64
ENDBRANCH  11  63
BRANCH  22  70
HETATM   70  C   UNK N   1      30.441  17.004   6.830  0.00  0.00     0.073 C 
BRANCH  70  71
HETATM   71  C   UNK N   1      31.765  16.941   7.545  0.00  0.00    -0.056 A 
HETATM   72  C   UNK N   1      32.077  15.936   8.462  0.00  0.00     0.010 A 
HETATM   73  C   UNK N   1      33.237  16.001   9.230  0.00  0.00     0.037 A 
HETATM   74  C   UNK N   1      34.123  17.075   9.073  0.00  0.00     0.068 A 
HETATM   75  C   UNK N   1      33.859  18.041   8.097  0.00  0.00     0.037 A 
HETATM   76  C   UNK N   1      32.682  17.979   7.342  0.00  0.00     0.010 A 
BRANCH  74  77
HETATM   77  O   UNK N   1      35.206  17.219   9.871  0.00  0.00    -0.356 OA
HETATM   78  C   UNK N   1      35.511  16.337  10.884  0.00  0.00     0.210 C 
ENDBRANCH  74  77
ENDBRANCH  70  71
ENDBRANCH  22  70
BRANCH  14  79
HETATM   79  C   UNK N   1      33.281  15.351   3.016  0.00  0.00     0.013 C 
HETATM   80  C   UNK N   1      34.301  14.813   2.015  0.00  0.00     0.012 C 
BRANCH  79  81
HETATM   81  C   UNK N   1      32.906  16.808   2.729  0.00  0.00     0.002 C 
HETATM   82  C   UNK N   1      32.974  17.700   3.958  0.00  0.00     0.005 C 
ENDBRANCH  79  81
ENDBRANCH  14  79
TORSDOF 18
ENDMDL
MODEL 6
REMARK VINA RESULT:      -6.7      3.931      9.184
REMARK  18 active torsions:
REMARK  status: ('A' for Active; 'I' for Inactive)
REMARK       I    between atoms: C_2  and  N_1 
REMARK    1  A    between atoms: C_3  and  C_2 
REMARK    2  A    between atoms: N_4  and  C_3 
REMARK       I    between atoms: C_5  and  N_4 
REMARK    3  A    between atoms: C_6  and  C_5 
REMARK    4  A    between atoms: N_7  and  C_6 
REMARK    5  A    between atoms: C_6  and  C_12 
REMARK       I    between atoms: C_8  and  N_7 
REMARK    6  A    between atoms: C_15  and  C_8 
REMARK    7  A    between atoms: C_13  and  C_12 
REMARK       I    between atoms: C_20  and  N_17 
REMARK    8  A    between atoms: C_21  and  C_20 
REMARK    9  A    between atoms: C_24  and  C_31 
REMARK   10  A    between atoms: C_32  and  C_31 
REMARK       I    between atoms: N_34  and  C_32 
REMARK   11  A    between atoms: C_36  and  C_38 
REMARK   12  A    between atoms: C_39  and  C_38 
REMARK   13  A    between atoms: C_40  and  C_39 
REMARK       I    between atoms: N_41  and  C_40 
REMARK   14  A    between atoms: C_45  and  C_44 
REMARK   15  A    between atoms: C_46  and  C_45 
REMARK   16  A    between atoms: C_55  and  C_58 
REMARK   17  A    between atoms: C_60  and  C_58 
REMARK   18  A    between atoms: O_66  and  C_62 
ROOT
HETATM    1  C   UNK N   1      34.922  11.748   8.324  0.00  0.00     0.186 C 
HETATM    2  N   UNK N   1      33.956  11.201   9.251  0.00  0.00    -0.345 N 
HETATM    3  C   UNK N   1      32.826  10.503   8.963  0.00  0.00     0.241 C 
HETATM    4  C   UNK N   1      32.689   9.599   7.766  0.00  0.00     0.185 C 
HETATM    5  N   UNK N   1      33.381   8.378   8.094  0.00  0.00    -0.346 N 
HETATM    6  C   UNK N   1      36.178  12.149   9.109  0.00  0.00     0.108 C 
HETATM    7  S   UNK N   1      37.285  13.325   8.239  0.00  0.00    -0.167 SA
HETATM    8  C   UNK N   1      37.286  14.528   9.612  0.00  0.00     0.074 C 
HETATM    9  O   UNK N   1      31.956  10.437   9.816  0.00  0.00    -0.271 OA
HETATM   10  C   UNK N   1      34.729   8.278   8.146  0.00  0.00     0.241 C 
HETATM   11  C   UNK N   1      35.330   7.238   9.002  0.00  0.00     0.177 C 
HETATM   12  O   UNK N   1      35.447   9.124   7.638  0.00  0.00    -0.271 OA
HETATM   13  N   UNK N   1      34.680   7.306  10.296  0.00  0.00    -0.346 N 
HETATM   14  C   UNK N   1      36.524   8.685  11.322  0.00  0.00     0.180 C 
HETATM   15  C   UNK N   1      35.183   7.963  11.374  0.00  0.00     0.241 C 
HETATM   16  N   UNK N   1      35.510  13.417  11.711  0.00  0.00    -0.347 N 
HETATM   17  C   UNK N   1      35.666  14.746  11.965  0.00  0.00     0.218 C 
HETATM   18  C   UNK N   1      35.393  15.751  10.883  0.00  0.00     0.103 C 
HETATM   19  C   UNK N   1      36.057  15.432   9.530  0.00  0.00     0.019 C 
HETATM   20  C   UNK N   1      35.531  10.930  12.133  0.00  0.00     0.241 C 
HETATM   21  O   UNK N   1      34.361  10.587  12.130  0.00  0.00    -0.271 OA
HETATM   22  C   UNK N   1      35.909  12.327  12.583  0.00  0.00     0.180 C 
HETATM   23  N   UNK N   1      36.517  10.089  11.719  0.00  0.00    -0.346 N 
HETATM   24  O   UNK N   1      34.567   7.917  12.428  0.00  0.00    -0.271 OA
HETATM   25  O   UNK N   1      36.062  15.142  13.050  0.00  0.00    -0.274 OA
HETATM   26  H   UNK N   1      34.140  11.354  10.207  0.00  0.00     0.163 HD
HETATM   27  H   UNK N   1      32.844   7.576   8.291  0.00  0.00     0.163 HD
HETATM   28  H   UNK N   1      33.817   6.845  10.402  0.00  0.00     0.163 HD
HETATM   29  H   UNK N   1      35.086  13.172  10.856  0.00  0.00     0.163 HD
HETATM   30  H   UNK N   1      37.405  10.513  11.679  0.00  0.00     0.163 HD
ENDROOT
BRANCH   1  31
HETATM   31  C   UNK N   1      34.285  12.966   7.693  0.00  0.00     0.244 C 
HETATM   32  N   UNK N   1      34.335  13.165   6.334  0.00  0.00    -0.337 N 
HETATM   33  C   UNK N   1      33.770  14.327   5.707  0.00  0.00     0.179 C 
HETATM   34  C   UNK N   1      34.967  12.257   5.419  0.00  0.00     0.127 C 
HETATM   35  C   UNK N   1      34.071  14.126   4.221  0.00  0.00     0.037 C 
HETATM   36  C   UNK N   1      35.019  12.956   4.090  0.00  0.00     0.022 C 
HETATM   37  O   UNK N   1      33.757  13.786   8.421  0.00  0.00    -0.271 OA
BRANCH  33  38
HETATM   38  C   UNK N   1      34.395  15.612   6.191  0.00  0.00     0.241 C 
HETATM   39  N   UNK N   1      33.653  16.638   6.687  0.00  0.00    -0.346 N 
HETATM   40  H   UNK N   1      34.150  17.464   6.888  0.00  0.00     0.163 HD
HETATM   41  O   UNK N   1      35.608  15.749   6.130  0.00  0.00    -0.271 OA
BRANCH  39  42
HETATM   42  C   UNK N   1      32.220  16.683   6.964  0.00  0.00     0.177 C 
BRANCH  42  43
HETATM   43  C   UNK N   1      32.034  17.353   8.318  0.00  0.00     0.240 C 
HETATM   44  N   UNK N   1      30.806  17.570   8.855  0.00  0.00    -0.351 N 
HETATM   45  H   UNK N   1      30.747  18.024   9.726  0.00  0.00     0.163 HD
HETATM   46  O   UNK N   1      33.017  17.732   8.939  0.00  0.00    -0.271 OA
BRANCH  44  47
HETATM   47  C   UNK N   1      29.587  17.163   8.204  0.00  0.00     0.225 C 
BRANCH  47  48
HETATM   48  C   UNK N   1      28.381  17.640   8.963  0.00  0.00     0.233 C 
HETATM   49  N   UNK N   1      27.812  18.832   8.688  0.00  0.00    -0.369 N 
HETATM   50  H   UNK N   1      27.427  19.562   8.152  0.00  0.00     0.159 HD
HETATM   51  H   UNK N   1      27.734  19.209   9.594  0.00  0.00     0.159 HD
HETATM   52  O   UNK N   1      27.888  16.918   9.813  0.00  0.00    -0.272 OA
ENDBRANCH  47  48
ENDBRANCH  44  47
ENDBRANCH  42  43
BRANCH  42  53
HETATM   53  C   UNK N   1      31.443  17.467   5.906  0.00  0.00     0.038 C 
BRANCH  53  54
HETATM   54  C   UNK N   1      31.219  16.702   4.593  0.00  0.00    -0.020 C 
HETATM   55  C   UNK N   1      29.765  16.841   4.192  0.00  0.00     0.009 C 
HETATM   56  C   UNK N   1      32.090  17.187   3.447  0.00  0.00     0.009 C 
ENDBRANCH  53  54
ENDBRANCH  42  53
ENDBRANCH  39  42
ENDBRANCH  33  38
ENDBRANCH   1  31
BRANCH   4  57
HETATM   57  C   UNK N   1      33.013  10.157   6.380  0.00  0.00     0.137 C 
BRANCH  57  58
HETATM   58  C   UNK N   1      31.914   9.906   5.374  0.00  0.00     0.217 C 
HETATM   59  O   UNK N   1      32.204   9.756   4.201  0.00  0.00    -0.274 OA
HETATM   60  N   UNK N   1      30.619   9.832   5.751  0.00  0.00    -0.370 N 
HETATM   61  H   UNK N   1      30.250   9.581   6.628  0.00  0.00     0.159 HD
HETATM   62  H   UNK N   1      29.958  10.058   5.057  0.00  0.00     0.159 HD
ENDBRANCH  57  58
ENDBRANCH   4  57
BRANCH  11  63
HETATM   63  C   UNK N   1      35.163   5.862   8.407  0.00  0.00     0.044 C 
BRANCH  63  64
HETATM   64  C   UNK N   1      36.397   5.570   7.580  0.00  0.00     0.105 C 
BRANCH  64  65
HETATM   65  C   UNK N   1      36.030   5.307   6.163  0.00  0.00     0.215 C 
HETATM   66  N   UNK N   1      36.875   4.618   5.373  0.00  0.00    -0.370 N 
HETATM   67  H   UNK N   1      37.652   4.115   5.710  0.00  0.00     0.159 HD
HETATM   68  H   UNK N   1      36.708   4.618   4.403  0.00  0.00     0.159 HD
HETATM   69  O   UNK N   1      34.976   5.722   5.712  0.00  0.00    -0.274 OA
ENDBRANCH  64  65
ENDBRANCH  63  64
ENDBRANCH  11  63
BRANCH  22  70
HETATM   70  C   UNK N   1      36.718  12.646  13.860  0.00  0.00     0.073 C 
BRANCH  70  71
HETATM   71  C   UNK N   1      36.118  12.341  15.208  0.00  0.00    -0.056 A 
HETATM   72  C   UNK N   1      35.388  13.283  15.935  0.00  0.00     0.010 A 
HETATM   73  C   UNK N   1      34.995  13.027  17.246  0.00  0.00     0.037 A 
HETATM   74  C   UNK N   1      35.312  11.803  17.848  0.00  0.00     0.068 A 
HETATM   75  C   UNK N   1      35.969  10.823  17.098  0.00  0.00     0.037 A 
HETATM   76  C   UNK N   1      36.378  11.094  15.786  0.00  0.00     0.010 A 
BRANCH  74  77
HETATM   77  O   UNK N   1      35.031  11.562  19.150  0.00  0.00    -0.356 OA
HETATM   78  C   UNK N   1      35.154  10.315  19.723  0.00  0.00     0.210 C 
ENDBRANCH  74  77
ENDBRANCH  70  71
ENDBRANCH  22  70
BRANCH  14  79
HETATM   79  C   UNK N   1      37.566   7.968  12.203  0.00  0.00     0.013 C 
HETATM   80  C   UNK N   1      38.177   6.727  11.556  0.00  0.00     0.012 C 
BRANCH  79  81
HETATM   81  C   UNK N   1      38.630   8.879  12.823  0.00  0.00     0.002 C 
HETATM   82  C   UNK N   1      38.776   8.696  14.324  0.00  0.00     0.005 C 
ENDBRANCH  79  81
ENDBRANCH  14  79
TORSDOF 18
ENDMDL
MODEL 7
REMARK VINA RESULT:      -6.6      4.481     10.217
REMARK  18 active torsions:
REMARK  status: ('A' for Active; 'I' for Inactive)
REMARK       I    between atoms: C_2  and  N_1 
REMARK    1  A    between atoms: C_3  and  C_2 
REMARK    2  A    between atoms: N_4  and  C_3 
REMARK       I    between atoms: C_5  and  N_4 
REMARK    3  A    between atoms: C_6  and  C_5 
REMARK    4  A    between atoms: N_7  and  C_6 
REMARK    5  A    between atoms: C_6  and  C_12 
REMARK       I    between atoms: C_8  and  N_7 
REMARK    6  A    between atoms: C_15  and  C_8 
REMARK    7  A    between atoms: C_13  and  C_12 
REMARK       I    between atoms: C_20  and  N_17 
REMARK    8  A    between atoms: C_21  and  C_20 
REMARK    9  A    between atoms: C_24  and  C_31 
REMARK   10  A    between atoms: C_32  and  C_31 
REMARK       I    between atoms: N_34  and  C_32 
REMARK   11  A    between atoms: C_36  and  C_38 
REMARK   12  A    between atoms: C_39  and  C_38 
REMARK   13  A    between atoms: C_40  and  C_39 
REMARK       I    between atoms: N_41  and  C_40 
REMARK   14  A    between atoms: C_45  and  C_44 
REMARK   15  A    between atoms: C_46  and  C_45 
REMARK   16  A    between atoms: C_55  and  C_58 
REMARK   17  A    between atoms: C_60  and  C_58 
REMARK   18  A    between atoms: O_66  and  C_62 
ROOT
HETATM    1  C   UNK N   1      27.752  15.103   4.150  0.00  0.00     0.186 C 
HETATM    2  N   UNK N   1      26.948  15.006   5.348  0.00  0.00    -0.345 N 
HETATM    3  C   UNK N   1      26.850  15.907   6.361  0.00  0.00     0.241 C 
HETATM    4  C   UNK N   1      26.983  17.395   6.167  0.00  0.00     0.185 C 
HETATM    5  N   UNK N   1      25.731  17.849   5.618  0.00  0.00    -0.346 N 
HETATM    6  C   UNK N   1      27.285  14.025   3.162  0.00  0.00     0.108 C 
HETATM    7  S   UNK N   1      28.487  13.629   1.834  0.00  0.00    -0.167 SA
HETATM    8  C   UNK N   1      28.488  11.840   2.203  0.00  0.00     0.074 C 
HETATM    9  O   UNK N   1      26.429  15.519   7.438  0.00  0.00    -0.271 OA
HETATM   10  C   UNK N   1      25.349  17.612   4.342  0.00  0.00     0.241 C 
HETATM   11  C   UNK N   1      23.908  17.588   4.027  0.00  0.00     0.177 C 
HETATM   12  O   UNK N   1      26.153  17.259   3.495  0.00  0.00    -0.271 OA
HETATM   13  N   UNK N   1      23.257  16.753   5.016  0.00  0.00    -0.346 N 
HETATM   14  C   UNK N   1      23.235  14.727   3.517  0.00  0.00     0.180 C 
HETATM   15  C   UNK N   1      22.943  15.444   4.829  0.00  0.00     0.241 C 
HETATM   16  N   UNK N   1      26.678  11.454   4.521  0.00  0.00    -0.347 N 
HETATM   17  C   UNK N   1      27.462  10.344   4.420  0.00  0.00     0.218 C 
HETATM   18  C   UNK N   1      28.956  10.488   4.358  0.00  0.00     0.103 C 
HETATM   19  C   UNK N   1      29.457  11.532   3.342  0.00  0.00     0.019 C 
HETATM   20  C   UNK N   1      24.570  12.831   4.661  0.00  0.00     0.241 C 
HETATM   21  O   UNK N   1      24.557  13.297   5.788  0.00  0.00    -0.271 OA
HETATM   22  C   UNK N   1      25.232  11.492   4.404  0.00  0.00     0.180 C 
HETATM   23  N   UNK N   1      24.016  13.498   3.613  0.00  0.00    -0.346 N 
HETATM   24  O   UNK N   1      22.356  14.850   5.720  0.00  0.00    -0.271 OA
HETATM   25  O   UNK N   1      26.974   9.229   4.342  0.00  0.00    -0.274 OA
HETATM   26  H   UNK N   1      26.407  14.188   5.441  0.00  0.00     0.163 HD
HETATM   27  H   UNK N   1      25.122  18.358   6.202  0.00  0.00     0.163 HD
HETATM   28  H   UNK N   1      23.025  17.161   5.881  0.00  0.00     0.163 HD
HETATM   29  H   UNK N   1      27.135  12.310   4.688  0.00  0.00     0.163 HD
HETATM   30  H   UNK N   1      24.172  13.063   2.743  0.00  0.00     0.163 HD
ENDROOT
BRANCH   1  31
HETATM   31  C   UNK N   1      29.186  14.854   4.560  0.00  0.00     0.244 C 
HETATM   32  N   UNK N   1      30.209  15.620   4.054  0.00  0.00    -0.337 N 
HETATM   33  C   UNK N   1      31.584  15.388   4.398  0.00  0.00     0.179 C 
HETATM   34  C   UNK N   1      30.011  16.698   3.127  0.00  0.00     0.127 C 
HETATM   35  C   UNK N   1      32.345  16.450   3.603  0.00  0.00     0.037 C 
HETATM   36  C   UNK N   1      31.376  17.099   2.640  0.00  0.00     0.022 C 
HETATM   37  O   UNK N   1      29.419  13.935   5.323  0.00  0.00    -0.271 OA
BRANCH  33  38
HETATM   38  C   UNK N   1      32.058  14.011   4.005  0.00  0.00     0.241 C 
HETATM   39  N   UNK N   1      33.017  13.347   4.703  0.00  0.00    -0.346 N 
HETATM   40  H   UNK N   1      33.319  12.496   4.309  0.00  0.00     0.163 HD
HETATM   41  O   UNK N   1      31.577  13.470   3.020  0.00  0.00    -0.271 OA
BRANCH  39  42
HETATM   42  C   UNK N   1      33.661  13.722   5.959  0.00  0.00     0.177 C 
BRANCH  42  43
HETATM   43  C   UNK N   1      32.873  13.078   7.091  0.00  0.00     0.240 C 
HETATM   44  N   UNK N   1      32.309  13.808   8.086  0.00  0.00    -0.351 N 
HETATM   45  H   UNK N   1      31.826  13.335   8.801  0.00  0.00     0.163 HD
HETATM   46  O   UNK N   1      32.758  11.861   7.123  0.00  0.00    -0.271 OA
BRANCH  44  47
HETATM   47  C   UNK N   1      32.387  15.246   8.140  0.00  0.00     0.225 C 
BRANCH  47  48
HETATM   48  C   UNK N   1      33.208  15.701   9.312  0.00  0.00     0.233 C 
HETATM   49  N   UNK N   1      33.639  16.976   9.407  0.00  0.00    -0.369 N 
HETATM   50  H   UNK N   1      33.601  17.960   9.398  0.00  0.00     0.159 HD
HETATM   51  H   UNK N   1      34.590  16.832   9.618  0.00  0.00     0.159 HD
HETATM   52  O   UNK N   1      33.455  14.913  10.210  0.00  0.00    -0.272 OA
ENDBRANCH  47  48
ENDBRANCH  44  47
ENDBRANCH  42  43
BRANCH  42  53
HETATM   53  C   UNK N   1      35.116  13.256   6.033  0.00  0.00     0.038 C 
BRANCH  53  54
HETATM   54  C   UNK N   1      36.099  14.333   6.516  0.00  0.00    -0.020 C 
HETATM   55  C   UNK N   1      36.312  14.163   8.006  0.00  0.00     0.009 C 
HETATM   56  C   UNK N   1      37.449  14.285   5.821  0.00  0.00     0.009 C 
ENDBRANCH  53  54
ENDBRANCH  42  53
ENDBRANCH  39  42
ENDBRANCH  33  38
ENDBRANCH   1  31
BRANCH   4  57
HETATM   57  C   UNK N   1      28.221  17.937   5.454  0.00  0.00     0.137 C 
BRANCH  57  58
HETATM   58  C   UNK N   1      28.102  19.401   5.101  0.00  0.00     0.217 C 
HETATM   59  O   UNK N   1      27.977  20.221   5.993  0.00  0.00    -0.274 OA
HETATM   60  N   UNK N   1      28.142  19.820   3.817  0.00  0.00    -0.370 N 
HETATM   61  H   UNK N   1      28.569  19.386   3.044  0.00  0.00     0.159 HD
HETATM   62  H   UNK N   1      27.685  20.672   3.631  0.00  0.00     0.159 HD
ENDBRANCH  57  58
ENDBRANCH   4  57
BRANCH  11  63
HETATM   63  C   UNK N   1      23.312  18.974   4.040  0.00  0.00     0.044 C 
BRANCH  63  64
HETATM   64  C   UNK N   1      21.899  18.868   3.506  0.00  0.00     0.105 C 
BRANCH  64  65
HETATM   65  C   UNK N   1      21.573  20.036   2.646  0.00  0.00     0.215 C 
HETATM   66  N   UNK N   1      20.587  19.937   1.734  0.00  0.00    -0.370 N 
HETATM   67  H   UNK N   1      19.937  19.198   1.709  0.00  0.00     0.159 HD
HETATM   68  H   UNK N   1      20.513  20.644   1.052  0.00  0.00     0.159 HD
HETATM   69  O   UNK N   1      22.201  21.076   2.754  0.00  0.00    -0.274 OA
ENDBRANCH  64  65
ENDBRANCH  63  64
ENDBRANCH  11  63
BRANCH  22  70
HETATM   70  C   UNK N   1      24.478  10.210   3.986  0.00  0.00     0.073 C 
BRANCH  70  71
HETATM   71  C   UNK N   1      23.972  10.079   2.573  0.00  0.00    -0.056 A 
HETATM   72  C   UNK N   1      22.768   9.444   2.262  0.00  0.00     0.010 A 
HETATM   73  C   UNK N   1      22.413   9.189   0.940  0.00  0.00     0.037 A 
HETATM   74  C   UNK N   1      23.258   9.591  -0.103  0.00  0.00     0.068 A 
HETATM   75  C   UNK N   1      24.424  10.302   0.197  0.00  0.00     0.037 A 
HETATM   76  C   UNK N   1      24.784  10.538   1.530  0.00  0.00     0.010 A 
BRANCH  74  77
HETATM   77  O   UNK N   1      22.990   9.272  -1.391  0.00  0.00    -0.356 OA
HETATM   78  C   UNK N   1      22.104   8.280  -1.747  0.00  0.00     0.210 C 
ENDBRANCH  74  77
ENDBRANCH  70  71
ENDBRANCH  22  70
BRANCH  14  79
HETATM   79  C   UNK N   1      21.927  14.379   2.780  0.00  0.00     0.013 C 
HETATM   80  C   UNK N   1      21.341  15.537   1.975  0.00  0.00     0.012 C 
BRANCH  79  81
HETATM   81  C   UNK N   1      21.960  13.076   1.976  0.00  0.00     0.002 C 
HETATM   82  C   UNK N   1      22.267  13.286   0.503  0.00  0.00     0.005 C 
ENDBRANCH  79  81
ENDBRANCH  14  79
TORSDOF 18
ENDMDL
MODEL 8
REMARK VINA RESULT:      -6.5      4.388     10.614
REMARK  18 active torsions:
REMARK  status: ('A' for Active; 'I' for Inactive)
REMARK       I    between atoms: C_2  and  N_1 
REMARK    1  A    between atoms: C_3  and  C_2 
REMARK    2  A    between atoms: N_4  and  C_3 
REMARK       I    between atoms: C_5  and  N_4 
REMARK    3  A    between atoms: C_6  and  C_5 
REMARK    4  A    between atoms: N_7  and  C_6 
REMARK    5  A    between atoms: C_6  and  C_12 
REMARK       I    between atoms: C_8  and  N_7 
REMARK    6  A    between atoms: C_15  and  C_8 
REMARK    7  A    between atoms: C_13  and  C_12 
REMARK       I    between atoms: C_20  and  N_17 
REMARK    8  A    between atoms: C_21  and  C_20 
REMARK    9  A    between atoms: C_24  and  C_31 
REMARK   10  A    between atoms: C_32  and  C_31 
REMARK       I    between atoms: N_34  and  C_32 
REMARK   11  A    between atoms: C_36  and  C_38 
REMARK   12  A    between atoms: C_39  and  C_38 
REMARK   13  A    between atoms: C_40  and  C_39 
REMARK       I    between atoms: N_41  and  C_40 
REMARK   14  A    between atoms: C_45  and  C_44 
REMARK   15  A    between atoms: C_46  and  C_45 
REMARK   16  A    between atoms: C_55  and  C_58 
REMARK   17  A    between atoms: C_60  and  C_58 
REMARK   18  A    between atoms: O_66  and  C_62 
ROOT
HETATM    1  C   UNK N   1      26.290  15.132   4.084  0.00  0.00     0.186 C 
HETATM    2  N   UNK N   1      25.587  14.245   4.985  0.00  0.00    -0.345 N 
HETATM    3  C   UNK N   1      24.627  14.568   5.893  0.00  0.00     0.241 C 
HETATM    4  C   UNK N   1      23.648  15.696   5.701  0.00  0.00     0.185 C 
HETATM    5  N   UNK N   1      22.645  15.216   4.785  0.00  0.00    -0.346 N 
HETATM    6  C   UNK N   1      27.020  14.281   3.036  0.00  0.00     0.108 C 
HETATM    7  S   UNK N   1      28.369  15.149   2.147  0.00  0.00    -0.167 SA
HETATM    8  C   UNK N   1      29.618  13.881   2.555  0.00  0.00     0.074 C 
HETATM    9  O   UNK N   1      24.409  13.787   6.803  0.00  0.00    -0.271 OA
HETATM   10  C   UNK N   1      22.867  15.047   3.461  0.00  0.00     0.241 C 
HETATM   11  C   UNK N   1      22.050  14.064   2.725  0.00  0.00     0.177 C 
HETATM   12  O   UNK N   1      23.826  15.560   2.909  0.00  0.00    -0.271 OA
HETATM   13  N   UNK N   1      22.039  12.837   3.496  0.00  0.00    -0.346 N 
HETATM   14  C   UNK N   1      23.870  11.778   2.126  0.00  0.00     0.180 C 
HETATM   15  C   UNK N   1      22.858  11.778   3.265  0.00  0.00     0.241 C 
HETATM   16  N   UNK N   1      28.246  11.851   4.227  0.00  0.00    -0.347 N 
HETATM   17  C   UNK N   1      29.587  11.693   4.404  0.00  0.00     0.218 C 
HETATM   18  C   UNK N   1      30.435  12.871   4.793  0.00  0.00     0.103 C 
HETATM   19  C   UNK N   1      30.201  14.135   3.944  0.00  0.00     0.019 C 
HETATM   20  C   UNK N   1      25.863  11.232   3.680  0.00  0.00     0.241 C 
HETATM   21  O   UNK N   1      25.255  11.303   4.735  0.00  0.00    -0.271 OA
HETATM   22  C   UNK N   1      27.333  10.866   3.677  0.00  0.00     0.180 C 
HETATM   23  N   UNK N   1      25.254  11.496   2.492  0.00  0.00    -0.346 N 
HETATM   24  O   UNK N   1      22.730  10.777   3.955  0.00  0.00    -0.271 OA
HETATM   25  O   UNK N   1      30.128  10.615   4.217  0.00  0.00    -0.274 OA
HETATM   26  H   UNK N   1      25.834  13.293   4.936  0.00  0.00     0.163 HD
HETATM   27  H   UNK N   1      21.752  15.000   5.141  0.00  0.00     0.163 HD
HETATM   28  H   UNK N   1      21.395  12.766   4.237  0.00  0.00     0.163 HD
HETATM   29  H   UNK N   1      27.859  12.716   4.498  0.00  0.00     0.163 HD
HETATM   30  H   UNK N   1      25.871  11.497   1.725  0.00  0.00     0.163 HD
ENDROOT
BRANCH   1  31
HETATM   31  C   UNK N   1      27.285  15.908   4.917  0.00  0.00     0.244 C 
HETATM   32  N   UNK N   1      27.424  17.267   4.768  0.00  0.00    -0.337 N 
HETATM   33  C   UNK N   1      28.383  18.028   5.519  0.00  0.00     0.179 C 
HETATM   34  C   UNK N   1      26.652  18.048   3.843  0.00  0.00     0.127 C 
HETATM   35  C   UNK N   1      28.188  19.460   5.018  0.00  0.00     0.037 C 
HETATM   36  C   UNK N   1      27.278  19.415   3.812  0.00  0.00     0.022 C 
HETATM   37  O   UNK N   1      27.987  15.295   5.700  0.00  0.00    -0.271 OA
BRANCH  33  38
HETATM   38  C   UNK N   1      29.803  17.582   5.271  0.00  0.00     0.241 C 
HETATM   39  N   UNK N   1      30.662  17.298   6.286  0.00  0.00    -0.346 N 
HETATM   40  H   UNK N   1      31.589  17.106   6.018  0.00  0.00     0.163 HD
HETATM   41  O   UNK N   1      30.207  17.481   4.123  0.00  0.00    -0.271 OA
BRANCH  39  42
HETATM   42  C   UNK N   1      30.396  17.235   7.721  0.00  0.00     0.177 C 
BRANCH  42  43
HETATM   43  C   UNK N   1      31.719  17.451   8.443  0.00  0.00     0.240 C 
HETATM   44  N   UNK N   1      32.378  16.439   9.061  0.00  0.00    -0.351 N 
HETATM   45  H   UNK N   1      33.221  16.641   9.528  0.00  0.00     0.163 HD
HETATM   46  O   UNK N   1      32.198  18.575   8.492  0.00  0.00    -0.271 OA
BRANCH  44  47
HETATM   47  C   UNK N   1      31.898  15.080   9.064  0.00  0.00     0.225 C 
BRANCH  47  48
HETATM   48  C   UNK N   1      32.985  14.119   8.676  0.00  0.00     0.233 C 
HETATM   49  N   UNK N   1      34.276  14.370   8.974  0.00  0.00    -0.369 N 
HETATM   50  H   UNK N   1      35.061  14.616   9.515  0.00  0.00     0.159 HD
HETATM   51  H   UNK N   1      34.701  14.202   8.102  0.00  0.00     0.159 HD
HETATM   52  O   UNK N   1      32.687  13.078   8.116  0.00  0.00    -0.272 OA
ENDBRANCH  47  48
ENDBRANCH  44  47
ENDBRANCH  42  43
BRANCH  42  53
HETATM   53  C   UNK N   1      29.396  18.298   8.179  0.00  0.00     0.038 C 
BRANCH  53  54
HETATM   54  C   UNK N   1      28.426  17.822   9.270  0.00  0.00    -0.020 C 
HETATM   55  C   UNK N   1      27.472  16.812   8.665  0.00  0.00     0.009 C 
HETATM   56  C   UNK N   1      29.114  17.189  10.467  0.00  0.00     0.009 C 
ENDBRANCH  53  54
ENDBRANCH  42  53
ENDBRANCH  39  42
ENDBRANCH  33  38
ENDBRANCH   1  31
BRANCH   4  57
HETATM   57  C   UNK N   1      24.183  17.091   5.380  0.00  0.00     0.137 C 
BRANCH  57  58
HETATM   58  C   UNK N   1      23.092  18.070   5.016  0.00  0.00     0.217 C 
HETATM   59  O   UNK N   1      22.221  18.321   5.830  0.00  0.00    -0.274 OA
HETATM   60  N   UNK N   1      23.069  18.683   3.813  0.00  0.00    -0.370 N 
HETATM   61  H   UNK N   1      23.822  18.876   3.209  0.00  0.00     0.159 HD
HETATM   62  H   UNK N   1      22.183  18.975   3.498  0.00  0.00     0.159 HD
ENDBRANCH  57  58
ENDBRANCH   4  57
BRANCH  11  63
HETATM   63  C   UNK N   1      20.640  14.559   2.514  0.00  0.00     0.044 C 
BRANCH  63  64
HETATM   64  C   UNK N   1      20.619  15.335   1.215  0.00  0.00     0.105 C 
BRANCH  64  65
HETATM   65  C   UNK N   1      20.317  16.770   1.464  0.00  0.00     0.215 C 
HETATM   66  N   UNK N   1      19.937  17.558   0.441  0.00  0.00    -0.370 N 
HETATM   67  H   UNK N   1      19.670  17.217  -0.443  0.00  0.00     0.159 HD
HETATM   68  H   UNK N   1      19.928  18.532   0.584  0.00  0.00     0.159 HD
HETATM   69  O   UNK N   1      20.424  17.237   2.586  0.00  0.00    -0.274 OA
ENDBRANCH  64  65
ENDBRANCH  63  64
ENDBRANCH  11  63
BRANCH  22  70
HETATM   70  C   UNK N   1      27.907   9.556   3.091  0.00  0.00     0.073 C 
BRANCH  70  71
HETATM   71  C   UNK N   1      28.231   9.486   1.622  0.00  0.00    -0.056 A 
HETATM   72  C   UNK N   1      28.180   8.293   0.898  0.00  0.00     0.010 A 
HETATM   73  C   UNK N   1      28.648   8.229  -0.412  0.00  0.00     0.037 A 
HETATM   74  C   UNK N   1      29.159   9.377  -1.031  0.00  0.00     0.068 A 
HETATM   75  C   UNK N   1      29.135  10.594  -0.342  0.00  0.00     0.037 A 
HETATM   76  C   UNK N   1      28.681  10.646   0.982  0.00  0.00     0.010 A 
BRANCH  74  77
HETATM   77  O   UNK N   1      29.711   9.327  -2.266  0.00  0.00    -0.356 OA
HETATM   78  C   UNK N   1      30.062  10.456  -2.974  0.00  0.00     0.210 C 
ENDBRANCH  74  77
ENDBRANCH  70  71
ENDBRANCH  22  70
BRANCH  14  79
HETATM   79  C   UNK N   1      23.470  10.761   1.039  0.00  0.00     0.013 C 
HETATM   80  C   UNK N   1      22.149  11.081   0.344  0.00  0.00     0.012 C 
BRANCH  79  81
HETATM   81  C   UNK N   1      24.577  10.408   0.040  0.00  0.00     0.002 C 
HETATM   82  C   UNK N   1      24.699   8.916  -0.220  0.00  0.00     0.005 C 
ENDBRANCH  79  81
ENDBRANCH  14  79
TORSDOF 18
ENDMDL
MODEL 9
REMARK VINA RESULT:      -6.5      3.171      9.215
REMARK  18 active torsions:
REMARK  status: ('A' for Active; 'I' for Inactive)
REMARK       I    between atoms: C_2  and  N_1 
REMARK    1  A    between atoms: C_3  and  C_2 
REMARK    2  A    between atoms: N_4  and  C_3 
REMARK       I    between atoms: C_5  and  N_4 
REMARK    3  A    between atoms: C_6  and  C_5 
REMARK    4  A    between atoms: N_7  and  C_6 
REMARK    5  A    between atoms: C_6  and  C_12 
REMARK       I    between atoms: C_8  and  N_7 
REMARK    6  A    between atoms: C_15  and  C_8 
REMARK    7  A    between atoms: C_13  and  C_12 
REMARK       I    between atoms: C_20  and  N_17 
REMARK    8  A    between atoms: C_21  and  C_20 
REMARK    9  A    between atoms: C_24  and  C_31 
REMARK   10  A    between atoms: C_32  and  C_31 
REMARK       I    between atoms: N_34  and  C_32 
REMARK   11  A    between atoms: C_36  and  C_38 
REMARK   12  A    between atoms: C_39  and  C_38 
REMARK   13  A    between atoms: C_40  and  C_39 
REMARK       I    between atoms: N_41  and  C_40 
REMARK   14  A    between atoms: C_45  and  C_44 
REMARK   15  A    between atoms: C_46  and  C_45 
REMARK   16  A    between atoms: C_55  and  C_58 
REMARK   17  A    between atoms: C_60  and  C_58 
REMARK   18  A    between atoms: O_66  and  C_62 
ROOT
HETATM    1  C   UNK N   1      35.408  13.432   7.464  0.00  0.00     0.186 C 
HETATM    2  N   UNK N   1      34.409  12.645   6.775  0.00  0.00    -0.345 N 
HETATM    3  C   UNK N   1      33.060  12.815   6.787  0.00  0.00     0.241 C 
HETATM    4  C   UNK N   1      32.393  14.158   6.925  0.00  0.00     0.185 C 
HETATM    5  N   UNK N   1      32.479  14.792   5.633  0.00  0.00    -0.346 N 
HETATM    6  C   UNK N   1      36.787  13.078   6.889  0.00  0.00     0.108 C 
HETATM    7  S   UNK N   1      38.205  13.546   7.955  0.00  0.00    -0.167 SA
HETATM    8  C   UNK N   1      38.910  11.862   7.963  0.00  0.00     0.074 C 
HETATM    9  O   UNK N   1      32.358  11.872   6.462  0.00  0.00    -0.271 OA
HETATM   10  C   UNK N   1      33.628  15.299   5.130  0.00  0.00     0.241 C 
HETATM   11  C   UNK N   1      33.776  15.399   3.666  0.00  0.00     0.177 C 
HETATM   12  O   UNK N   1      34.592  15.516   5.845  0.00  0.00    -0.271 OA
HETATM   13  N   UNK N   1      33.378  14.127   3.097  0.00  0.00    -0.346 N 
HETATM   14  C   UNK N   1      35.750  13.296   2.903  0.00  0.00     0.180 C 
HETATM   15  C   UNK N   1      34.243  13.138   2.747  0.00  0.00     0.241 C 
HETATM   16  N   UNK N   1      37.068  10.166   6.373  0.00  0.00    -0.347 N 
HETATM   17  C   UNK N   1      37.844   9.338   7.126  0.00  0.00     0.218 C 
HETATM   18  C   UNK N   1      37.943   9.551   8.610  0.00  0.00     0.103 C 
HETATM   19  C   UNK N   1      38.232  11.005   9.029  0.00  0.00     0.019 C 
HETATM   20  C   UNK N   1      35.994  11.140   4.309  0.00  0.00     0.241 C 
HETATM   21  O   UNK N   1      34.804  10.891   4.409  0.00  0.00    -0.271 OA
HETATM   22  C   UNK N   1      37.018  10.206   4.922  0.00  0.00     0.180 C 
HETATM   23  N   UNK N   1      36.431  12.258   3.669  0.00  0.00    -0.346 N 
HETATM   24  O   UNK N   1      33.795  12.123   2.236  0.00  0.00    -0.271 OA
HETATM   25  O   UNK N   1      38.495   8.441   6.615  0.00  0.00    -0.274 OA
HETATM   26  H   UNK N   1      34.747  11.896   6.232  0.00  0.00     0.163 HD
HETATM   27  H   UNK N   1      31.660  14.860   5.090  0.00  0.00     0.163 HD
HETATM   28  H   UNK N   1      32.417  13.968   2.954  0.00  0.00     0.163 HD
HETATM   29  H   UNK N   1      36.488  10.798   6.857  0.00  0.00     0.163 HD
HETATM   30  H   UNK N   1      37.404  12.395   3.737  0.00  0.00     0.163 HD
ENDROOT
BRANCH   1  31
HETATM   31  C   UNK N   1      35.336  13.052   8.926  0.00  0.00     0.244 C 
HETATM   32  N   UNK N   1      35.421  14.009   9.909  0.00  0.00    -0.337 N 
HETATM   33  C   UNK N   1      35.389  13.679  11.307  0.00  0.00     0.179 C 
HETATM   34  C   UNK N   1      35.573  15.412   9.643  0.00  0.00     0.127 C 
HETATM   35  C   UNK N   1      35.527  15.032  12.007  0.00  0.00     0.037 C 
HETATM   36  C   UNK N   1      35.877  16.066  10.962  0.00  0.00     0.022 C 
HETATM   37  O   UNK N   1      35.234  11.874   9.215  0.00  0.00    -0.271 OA
BRANCH  33  38
HETATM   38  C   UNK N   1      36.520  12.768  11.716  0.00  0.00     0.241 C 
HETATM   39  N   UNK N   1      36.304  11.531  12.237  0.00  0.00    -0.346 N 
HETATM   40  H   UNK N   1      37.105  11.057  12.556  0.00  0.00     0.163 HD
HETATM   41  O   UNK N   1      37.674  13.151  11.589  0.00  0.00    -0.271 OA
BRANCH  39  42
HETATM   42  C   UNK N   1      35.044  10.808  12.386  0.00  0.00     0.177 C 
BRANCH  42  43
HETATM   43  C   UNK N   1      35.202   9.460  11.695  0.00  0.00     0.240 C 
HETATM   44  N   UNK N   1      34.209   8.907  10.955  0.00  0.00    -0.351 N 
HETATM   45  H   UNK N   1      34.362   8.024  10.546  0.00  0.00     0.163 HD
HETATM   46  O   UNK N   1      36.248   8.840  11.824  0.00  0.00    -0.271 OA
BRANCH  44  47
HETATM   47  C   UNK N   1      32.939   9.555  10.742  0.00  0.00     0.225 C 
BRANCH  47  48
HETATM   48  C   UNK N   1      32.612   9.641   9.279  0.00  0.00     0.233 C 
HETATM   49  N   UNK N   1      33.578   9.550   8.342  0.00  0.00    -0.369 N 
HETATM   50  H   UNK N   1      34.365   9.195   7.867  0.00  0.00     0.159 HD
HETATM   51  H   UNK N   1      33.361  10.328   7.780  0.00  0.00     0.159 HD
HETATM   52  O   UNK N   1      31.448   9.757   8.935  0.00  0.00    -0.272 OA
ENDBRANCH  47  48
ENDBRANCH  44  47
ENDBRANCH  42  43
BRANCH  42  53
HETATM   53  C   UNK N   1      34.670  10.578  13.851  0.00  0.00     0.038 C 
BRANCH  53  54
HETATM   54  C   UNK N   1      35.528  11.365  14.852  0.00  0.00    -0.020 C 
HETATM   55  C   UNK N   1      34.692  12.486  15.434  0.00  0.00     0.009 C 
HETATM   56  C   UNK N   1      36.072  10.518  15.991  0.00  0.00     0.009 C 
ENDBRANCH  53  54
ENDBRANCH  42  53
ENDBRANCH  39  42
ENDBRANCH  33  38
ENDBRANCH   1  31
BRANCH   4  57
HETATM   57  C   UNK N   1      32.779  15.057   8.099  0.00  0.00     0.137 C 
BRANCH  57  58
HETATM   58  C   UNK N   1      31.961  16.325   8.163  0.00  0.00     0.217 C 
HETATM   59  O   UNK N   1      31.060  16.493   7.360  0.00  0.00    -0.274 OA
HETATM   60  N   UNK N   1      32.200  17.269   9.098  0.00  0.00    -0.370 N 
HETATM   61  H   UNK N   1      32.608  17.162   9.987  0.00  0.00     0.159 HD
HETATM   62  H   UNK N   1      31.930  18.186   8.860  0.00  0.00     0.159 HD
ENDBRANCH  57  58
ENDBRANCH   4  57
BRANCH  11  63
HETATM   63  C   UNK N   1      32.932  16.512   3.095  0.00  0.00     0.044 C 
BRANCH  63  64
HETATM   64  C   UNK N   1      31.567  15.936   2.785  0.00  0.00     0.105 C 
BRANCH  64  65
HETATM   65  C   UNK N   1      30.496  16.755   3.412  0.00  0.00     0.215 C 
HETATM   66  N   UNK N   1      30.814  17.650   4.366  0.00  0.00    -0.370 N 
HETATM   67  H   UNK N   1      31.736  17.936   4.563  0.00  0.00     0.159 HD
HETATM   68  H   UNK N   1      30.084  18.041   4.898  0.00  0.00     0.159 HD
HETATM   69  O   UNK N   1      29.332  16.611   3.076  0.00  0.00    -0.274 OA
ENDBRANCH  64  65
ENDBRANCH  63  64
ENDBRANCH  11  63
BRANCH  22  70
HETATM   70  C   UNK N   1      38.019   9.352   4.113  0.00  0.00     0.073 C 
BRANCH  70  71
HETATM   71  C   UNK N   1      39.197  10.022   3.456  0.00  0.00    -0.056 A 
HETATM   72  C   UNK N   1      39.942  11.020   4.088  0.00  0.00     0.010 A 
HETATM   73  C   UNK N   1      40.913  11.737   3.393  0.00  0.00     0.037 A 
HETATM   74  C   UNK N   1      41.170  11.448   2.047  0.00  0.00     0.068 A 
HETATM   75  C   UNK N   1      40.487  10.394   1.432  0.00  0.00     0.037 A 
HETATM   76  C   UNK N   1      39.499   9.690   2.131  0.00  0.00     0.010 A 
BRANCH  74  77
HETATM   77  O   UNK N   1      42.036  12.190   1.318  0.00  0.00    -0.356 OA
HETATM   78  C   UNK N   1      42.701  11.697   0.218  0.00  0.00     0.210 C 
ENDBRANCH  74  77
ENDBRANCH  70  71
ENDBRANCH  22  70
BRANCH  14  79
HETATM   79  C   UNK N   1      36.438  13.371   1.526  0.00  0.00     0.013 C 
HETATM   80  C   UNK N   1      35.869  14.449   0.605  0.00  0.00     0.012 C 
BRANCH  79  81
HETATM   81  C   UNK N   1      37.969  13.396   1.565  0.00  0.00     0.002 C 
HETATM   82  C   UNK N   1      38.605  13.398   0.185  0.00  0.00     0.005 C 
ENDBRANCH  79  81
ENDBRANCH  14  79
TORSDOF 18
ENDMDL
