MODEL 1
REMARK VINA RESULT:      -8.4      0.000      0.000
REMARK  11 active torsions:
REMARK  status: ('A' for Active; 'I' for Inactive)
REMARK    1  A    between atoms: C_6  and  C_33 
REMARK    2  A    between atoms: C_9  and  N_16 
REMARK       I    between atoms: C_14  and  N_16 
REMARK    3  A    between atoms: C_18  and  C_14 
REMARK    4  A    between atoms: C_21  and  C_47 
REMARK    5  A    between atoms: C_35  and  C_23 
REMARK    6  A    between atoms: C_25  and  C_61 
REMARK    7  A    between atoms: C_30  and  S_31 
REMARK    8  A    between atoms: S_31  and  C_35 
REMARK    9  A    between atoms: C_56  and  C_33 
REMARK   10  A    between atoms: O_60  and  C_41 
REMARK   11  A    between atoms: N_45  and  C_43 
ROOT
HETATM    1  N   UNK N   1      33.336  11.455   2.076  0.00  0.00    -0.336 N 
HETATM    2  C   UNK N   1      32.080  11.383   2.647  0.00  0.00     0.243 C 
HETATM    3  N   UNK N   1      30.053  12.829   2.825  0.00  0.00    -0.341 N 
HETATM    4  C   UNK N   1      30.459  14.144   3.015  0.00  0.00     0.243 C 
HETATM    5  N   UNK N   1      28.854  15.146   4.788  0.00  0.00    -0.337 N 
HETATM    6  C   UNK N   1      30.805  11.888   1.991  0.00  0.00     0.183 C 
HETATM    7  C   UNK N   1      34.518  11.199   2.880  0.00  0.00     0.186 C 
HETATM    8  N   UNK N   1      34.682  13.318   4.187  0.00  0.00    -0.342 N 
HETATM    9  C   UNK N   1      31.858  16.232   7.294  0.00  0.00     0.206 C 
HETATM   10  C   UNK N   1      28.943  16.024   5.838  0.00  0.00     0.243 C 
HETATM   11  C   UNK N   1      35.140  12.556   3.161  0.00  0.00     0.242 C 
HETATM   12  C   UNK N   1      31.083  17.468   7.704  0.00  0.00     0.243 C 
HETATM   13  C   UNK N   1      32.938  13.774   5.835  0.00  0.00     0.286 C 
HETATM   14  N   UNK N   1      30.052  17.937   6.958  0.00  0.00    -0.346 N 
HETATM   15  C   UNK N   1      29.540  15.309   3.514  0.00  0.00     0.179 C 
HETATM   16  O   UNK N   1      33.086  15.077   5.491  0.00  0.00    -0.312 OA
HETATM   17  C   UNK N   1      33.566  11.999   0.749  0.00  0.00     0.139 C 
HETATM   18  C   UNK N   1      33.861  12.756   5.236  0.00  0.00     0.217 C 
HETATM   19  C   UNK N   1      35.473  10.218   2.212  0.00  0.00     0.113 C 
HETATM   20  C   UNK N   1      34.591  11.188  -0.075  0.00  0.00     0.083 C 
HETATM   21  C   UNK N   1      35.573  10.363   0.728  0.00  0.00     0.135 C 
HETATM   22  C   UNK N   1      29.641  17.355   5.696  0.00  0.00     0.176 C 
HETATM   23  C   UNK N   1      32.212  16.102   5.788  0.00  0.00     0.159 C 
HETATM   24  O   UNK N   1      31.958  10.919   3.773  0.00  0.00    -0.271 OA
HETATM   25  O   UNK N   1      31.591  14.456   2.662  0.00  0.00    -0.271 OA
HETATM   26  O   UNK N   1      28.250  15.840   6.836  0.00  0.00    -0.271 OA
HETATM   27  O   UNK N   1      31.393  18.063   8.724  0.00  0.00    -0.271 OA
HETATM   28  O   UNK N   1      35.924  13.045   2.363  0.00  0.00    -0.271 OA
HETATM   29  O   UNK N   1      32.049  13.419   6.596  0.00  0.00    -0.263 OA
HETATM   30  O   UNK N   1      36.458   9.756   0.144  0.00  0.00    -0.297 OA
HETATM   31  C   UNK N   1      27.639  14.414   4.654  0.00  0.00     0.127 C 
HETATM   32  C   UNK N   1      28.786  12.335   3.282  0.00  0.00     0.153 C 
HETATM   33  C   UNK N   1      28.373  15.479   2.563  0.00  0.00     0.037 C 
HETATM   34  C   UNK N   1      27.174  14.794   3.244  0.00  0.00     0.022 C 
HETATM   35  C   UNK N   1      32.729  17.391   5.166  0.00  0.00     0.042 C 
HETATM   36  H   UNK N   1      34.916  14.274   4.218  0.00  0.00     0.163 HD
HETATM   37  H   UNK N   1      29.555  18.719   7.292  0.00  0.00     0.163 HD
ENDROOT
BRANCH   9  38
HETATM   38  N   UNK N   1      32.923  15.878   8.221  0.00  0.00    -0.340 N 
HETATM   39  C   UNK N   1      32.746  15.164   9.363  0.00  0.00     0.271 C 
HETATM   40  O   UNK N   1      31.655  14.694   9.638  0.00  0.00    -0.266 OA
HETATM   41  H   UNK N   1      33.835  16.177   8.005  0.00  0.00     0.163 HD
BRANCH  39  42
HETATM   42  C   UNK N   1      33.866  15.031  10.314  0.00  0.00     0.134 A 
HETATM   43  N   UNK N   1      34.110  13.823  10.895  0.00  0.00    -0.359 N 
HETATM   44  C   UNK N   1      35.141  13.640  11.763  0.00  0.00     0.088 A 
ATOM     45  HN  UNK N   1      33.502  13.033  10.672  1.00  0.00     0.165 HD
HETATM   46  C   UNK N   1      35.998  14.698  12.067  0.00  0.00     0.020 A 
HETATM   47  C   UNK N   1      35.786  15.941  11.475  0.00  0.00     0.040 A 
HETATM   48  C   UNK N   1      34.718  16.119  10.597  0.00  0.00     0.098 A 
BRANCH  48  49
HETATM   49  O   UNK N   1      34.545  17.315  10.005  0.00  0.00    -0.358 OA
HETATM   50  H   UNK N   1      34.668  17.945   9.324  0.00  0.00     0.217 HD
ENDBRANCH  48  49
ENDBRANCH  39  42
ENDBRANCH   9  38
BRANCH  22  51
HETATM   51  C   UNK N   1      28.729  18.333   4.950  0.00  0.00     0.030 C 
HETATM   52  C   UNK N   1      27.956  19.247   5.895  0.00  0.00     0.007 C 
ENDBRANCH  22  51
BRANCH  18  53
HETATM   53  C   UNK N   1      34.817  12.141   6.204  0.00  0.00    -0.026 A 
HETATM   54  C   UNK N   1      35.580  12.959   7.044  0.00  0.00     0.010 A 
HETATM   55  C   UNK N   1      36.294  12.396   8.105  0.00  0.00     0.001 A 
HETATM   56  C   UNK N   1      36.233  11.019   8.337  0.00  0.00     0.000 A 
HETATM   57  C   UNK N   1      35.480  10.199   7.494  0.00  0.00     0.001 A 
HETATM   58  C   UNK N   1      34.767  10.760   6.435  0.00  0.00     0.010 A 
ENDBRANCH  18  53
BRANCH   6  59
HETATM   59  C   UNK N   1      30.837  12.376   0.533  0.00  0.00     0.073 C 
BRANCH  59  60
HETATM   60  C   UNK N   1      30.239  11.344  -0.364  0.00  0.00    -0.056 A 
HETATM   61  C   UNK N   1      29.470  10.321   0.189  0.00  0.00     0.009 A 
HETATM   62  C   UNK N   1      29.024   9.270  -0.615  0.00  0.00     0.030 A 
HETATM   63  C   UNK N   1      29.341   9.236  -1.983  0.00  0.00     0.029 A 
HETATM   64  C   UNK N   1      30.090  10.287  -2.536  0.00  0.00     0.030 A 
HETATM   65  C   UNK N   1      30.545  11.329  -1.729  0.00  0.00     0.009 A 
BRANCH  63  66
HETATM   66  N   UNK N   1      28.932   8.134  -2.793  0.00  0.00    -0.390 N 
HETATM   67  C   UNK N   1      28.471   6.909  -2.191  0.00  0.00     0.149 C 
HETATM   68  C   UNK N   1      29.027   8.199  -4.230  0.00  0.00     0.149 C 
ENDBRANCH  63  66
ENDBRANCH  59  60
ENDBRANCH   6  59
BRANCH  20  69
HETATM   69  C   UNK N   1      33.920  10.318  -1.131  0.00  0.00     0.088 C 
BRANCH  69  70
HETATM   70  S   UNK N   1      34.411  10.665  -2.853  0.00  0.00    -0.161 SA
BRANCH  70  71
HETATM   71  C   UNK N   1      35.040  12.309  -2.389  0.00  0.00     0.079 C 
HETATM   72  C   UNK N   1      34.106  13.426  -2.900  0.00  0.00     0.287 C 
HETATM   73  N   UNK N   1      34.872  14.492  -3.578  0.00  0.00     0.089 N 
HETATM   74  C   UNK N   1      35.923  15.008  -2.679  0.00  0.00     0.273 C 
HETATM   75  C   UNK N   1      35.511  13.919  -4.775  0.00  0.00     0.273 C 
HETATM   76  C   UNK N   1      36.914  13.896  -2.267  0.00  0.00     0.036 C 
HETATM   77  C   UNK N   1      36.471  12.569  -2.886  0.00  0.00     0.004 C 
HETATM   78  C   UNK N   1      36.448  12.747  -4.408  0.00  0.00     0.036 C 
ENDBRANCH  70  71
ENDBRANCH  69  70
ENDBRANCH  20  69
TORSDOF 11
ENDMDL
MODEL 2
REMARK VINA RESULT:      -8.2      5.885     11.048
REMARK  11 active torsions:
REMARK  status: ('A' for Active; 'I' for Inactive)
REMARK    1  A    between atoms: C_6  and  C_33 
REMARK    2  A    between atoms: C_9  and  N_16 
REMARK       I    between atoms: C_14  and  N_16 
REMARK    3  A    between atoms: C_18  and  C_14 
REMARK    4  A    between atoms: C_21  and  C_47 
REMARK    5  A    between atoms: C_35  and  C_23 
REMARK    6  A    between atoms: C_25  and  C_61 
REMARK    7  A    between atoms: C_30  and  S_31 
REMARK    8  A    between atoms: S_31  and  C_35 
REMARK    9  A    between atoms: C_56  and  C_33 
REMARK   10  A    between atoms: O_60  and  C_41 
REMARK   11  A    between atoms: N_45  and  C_43 
ROOT
HETATM    1  N   UNK N   1      24.087  10.778   3.780  0.00  0.00    -0.336 N 
HETATM    2  C   UNK N   1      25.154  11.031   2.940  0.00  0.00     0.243 C 
HETATM    3  N   UNK N   1      27.545  11.712   3.155  0.00  0.00    -0.341 N 
HETATM    4  C   UNK N   1      27.649  12.664   4.162  0.00  0.00     0.243 C 
HETATM    5  N   UNK N   1      29.315  14.453   3.299  0.00  0.00    -0.337 N 
HETATM    6  C   UNK N   1      26.587  10.607   3.215  0.00  0.00     0.183 C 
HETATM    7  C   UNK N   1      22.817  11.452   3.569  0.00  0.00     0.186 C 
HETATM    8  N   UNK N   1      23.328  13.733   4.441  0.00  0.00    -0.342 N 
HETATM    9  C   UNK N   1      26.696  17.519   3.774  0.00  0.00     0.206 C 
HETATM   10  C   UNK N   1      29.454  15.815   3.378  0.00  0.00     0.243 C 
HETATM   11  C   UNK N   1      22.728  12.530   4.634  0.00  0.00     0.242 C 
HETATM   12  C   UNK N   1      27.832  18.442   4.163  0.00  0.00     0.243 C 
HETATM   13  C   UNK N   1      24.929  15.093   3.196  0.00  0.00     0.286 C 
HETATM   14  N   UNK N   1      29.037  17.957   4.554  0.00  0.00    -0.346 N 
HETATM   15  C   UNK N   1      28.881  13.601   4.396  0.00  0.00     0.179 C 
HETATM   16  O   UNK N   1      25.322  15.567   4.404  0.00  0.00    -0.312 OA
HETATM   17  C   UNK N   1      24.222  10.035   5.020  0.00  0.00     0.139 C 
HETATM   18  C   UNK N   1      23.759  14.158   3.128  0.00  0.00     0.217 C 
HETATM   19  C   UNK N   1      21.640  10.486   3.579  0.00  0.00     0.113 C 
HETATM   20  C   UNK N   1      23.060   9.048   5.270  0.00  0.00     0.083 C 
HETATM   21  C   UNK N   1      21.760   9.371   4.568  0.00  0.00     0.135 C 
HETATM   22  C   UNK N   1      29.329  16.545   4.694  0.00  0.00     0.176 C 
HETATM   23  C   UNK N   1      26.481  16.266   4.666  0.00  0.00     0.159 C 
HETATM   24  O   UNK N   1      24.971  11.671   1.912  0.00  0.00    -0.271 OA
HETATM   25  O   UNK N   1      26.763  12.707   5.010  0.00  0.00    -0.271 OA
HETATM   26  O   UNK N   1      29.915  16.430   2.419  0.00  0.00    -0.271 OA
HETATM   27  O   UNK N   1      27.663  19.651   4.134  0.00  0.00    -0.271 OA
HETATM   28  O   UNK N   1      22.277  12.263   5.737  0.00  0.00    -0.271 OA
HETATM   29  O   UNK N   1      25.532  15.391   2.174  0.00  0.00    -0.263 OA
HETATM   30  O   UNK N   1      20.779   8.675   4.780  0.00  0.00    -0.297 OA
HETATM   31  C   UNK N   1      30.170  13.765   2.390  0.00  0.00     0.127 C 
HETATM   32  C   UNK N   1      28.475  11.633   2.066  0.00  0.00     0.153 C 
HETATM   33  C   UNK N   1      30.121  12.761   4.634  0.00  0.00     0.037 C 
HETATM   34  C   UNK N   1      30.892  12.766   3.302  0.00  0.00     0.022 C 
HETATM   35  C   UNK N   1      26.560  16.557   6.158  0.00  0.00     0.042 C 
HETATM   36  H   UNK N   1      23.471  14.328   5.212  0.00  0.00     0.163 HD
HETATM   37  H   UNK N   1      29.754  18.602   4.755  0.00  0.00     0.163 HD
ENDROOT
BRANCH   9  38
HETATM   38  N   UNK N   1      25.484  18.221   3.377  0.00  0.00    -0.340 N 
HETATM   39  C   UNK N   1      24.659  18.879   4.230  0.00  0.00     0.271 C 
HETATM   40  O   UNK N   1      24.947  18.990   5.410  0.00  0.00    -0.266 OA
HETATM   41  H   UNK N   1      25.247  18.217   2.421  0.00  0.00     0.163 HD
BRANCH  39  42
HETATM   42  C   UNK N   1      23.365  19.388   3.737  0.00  0.00     0.134 A 
HETATM   43  N   UNK N   1      22.209  18.928   4.293  0.00  0.00    -0.359 N 
HETATM   44  C   UNK N   1      20.990  19.379   3.890  0.00  0.00     0.088 A 
ATOM     45  HN  UNK N   1      22.259  18.225   5.032  1.00  0.00     0.165 HD
HETATM   46  C   UNK N   1      20.896  20.353   2.897  0.00  0.00     0.020 A 
HETATM   47  C   UNK N   1      22.061  20.858   2.323  0.00  0.00     0.040 A 
HETATM   48  C   UNK N   1      23.303  20.379   2.734  0.00  0.00     0.098 A 
BRANCH  48  49
HETATM   49  O   UNK N   1      24.421  20.899   2.196  0.00  0.00    -0.358 OA
HETATM   50  H   UNK N   1      25.100  21.539   2.114  0.00  0.00     0.217 HD
ENDBRANCH  48  49
ENDBRANCH  39  42
ENDBRANCH   9  38
BRANCH  22  51
HETATM   51  C   UNK N   1      30.617  16.363   5.503  0.00  0.00     0.030 C 
HETATM   52  C   UNK N   1      30.603  17.153   6.807  0.00  0.00     0.007 C 
ENDBRANCH  22  51
BRANCH  18  53
HETATM   53  C   UNK N   1      22.544  14.732   2.477  0.00  0.00    -0.026 A 
HETATM   54  C   UNK N   1      22.062  14.175   1.288  0.00  0.00     0.010 A 
HETATM   55  C   UNK N   1      20.806  14.546   0.803  0.00  0.00     0.001 A 
HETATM   56  C   UNK N   1      20.025  15.463   1.513  0.00  0.00     0.000 A 
HETATM   57  C   UNK N   1      20.509  16.030   2.694  0.00  0.00     0.001 A 
HETATM   58  C   UNK N   1      21.762  15.659   3.179  0.00  0.00     0.010 A 
ENDBRANCH  18  53
BRANCH   6  59
HETATM   59  C   UNK N   1      26.897   9.698   4.416  0.00  0.00     0.073 C 
BRANCH  59  60
HETATM   60  C   UNK N   1      27.585   8.456   3.954  0.00  0.00    -0.056 A 
HETATM   61  C   UNK N   1      26.836   7.443   3.356  0.00  0.00     0.009 A 
HETATM   62  C   UNK N   1      27.436   6.220   3.049  0.00  0.00     0.030 A 
HETATM   63  C   UNK N   1      28.794   6.001   3.336  0.00  0.00     0.029 A 
HETATM   64  C   UNK N   1      29.546   7.039   3.910  0.00  0.00     0.030 A 
HETATM   65  C   UNK N   1      28.942   8.255   4.226  0.00  0.00     0.009 A 
BRANCH  63  66
HETATM   66  N   UNK N   1      29.392   4.733   3.073  0.00  0.00    -0.390 N 
HETATM   67  C   UNK N   1      30.795   4.631   2.759  0.00  0.00     0.149 C 
HETATM   68  C   UNK N   1      28.597   3.530   3.054  0.00  0.00     0.149 C 
ENDBRANCH  63  66
ENDBRANCH  59  60
ENDBRANCH   6  59
BRANCH  20  69
HETATM   69  C   UNK N   1      23.462   7.605   4.986  0.00  0.00     0.088 C 
BRANCH  69  70
HETATM   70  S   UNK N   1      23.338   6.467   6.406  0.00  0.00    -0.161 SA
BRANCH  70  71
HETATM   71  C   UNK N   1      25.044   5.886   6.145  0.00  0.00     0.079 C 
HETATM   72  C   UNK N   1      25.088   4.352   5.974  0.00  0.00     0.287 C 
HETATM   73  N   UNK N   1      26.139   3.752   6.821  0.00  0.00     0.089 N 
HETATM   74  C   UNK N   1      27.441   4.386   6.535  0.00  0.00     0.273 C 
HETATM   75  C   UNK N   1      25.795   3.993   8.234  0.00  0.00     0.273 C 
HETATM   76  C   UNK N   1      27.409   5.904   6.819  0.00  0.00     0.036 C 
HETATM   77  C   UNK N   1      26.003   6.305   7.271  0.00  0.00     0.004 C 
HETATM   78  C   UNK N   1      25.672   5.503   8.535  0.00  0.00     0.036 C 
ENDBRANCH  70  71
ENDBRANCH  69  70
ENDBRANCH  20  69
TORSDOF 11
ENDMDL
MODEL 3
REMARK VINA RESULT:      -8.2      1.660      2.442
REMARK  11 active torsions:
REMARK  status: ('A' for Active; 'I' for Inactive)
REMARK    1  A    between atoms: C_6  and  C_33 
REMARK    2  A    between atoms: C_9  and  N_16 
REMARK       I    between atoms: C_14  and  N_16 
REMARK    3  A    between atoms: C_18  and  C_14 
REMARK    4  A    between atoms: C_21  and  C_47 
REMARK    5  A    between atoms: C_35  and  C_23 
REMARK    6  A    between atoms: C_25  and  C_61 
REMARK    7  A    between atoms: C_30  and  S_31 
REMARK    8  A    between atoms: S_31  and  C_35 
REMARK    9  A    between atoms: C_56  and  C_33 
REMARK   10  A    between atoms: O_60  and  C_41 
REMARK   11  A    between atoms: N_45  and  C_43 
ROOT
HETATM    1  N   UNK N   1      33.184  11.709   1.561  0.00  0.00    -0.336 N 
HETATM    2  C   UNK N   1      31.991  11.477   2.217  0.00  0.00     0.243 C 
HETATM    3  N   UNK N   1      29.798  12.631   2.516  0.00  0.00    -0.341 N 
HETATM    4  C   UNK N   1      30.028  13.993   2.664  0.00  0.00     0.243 C 
HETATM    5  N   UNK N   1      28.419  14.800   4.529  0.00  0.00    -0.337 N 
HETATM    6  C   UNK N   1      30.617  11.786   1.644  0.00  0.00     0.183 C 
HETATM    7  C   UNK N   1      34.441  11.637   2.286  0.00  0.00     0.186 C 
HETATM    8  N   UNK N   1      34.393  13.785   3.555  0.00  0.00    -0.342 N 
HETATM    9  C   UNK N   1      31.400  16.344   6.814  0.00  0.00     0.206 C 
HETATM   10  C   UNK N   1      28.453  15.704   5.561  0.00  0.00     0.243 C 
HETATM   11  C   UNK N   1      34.884  13.072   2.509  0.00  0.00     0.242 C 
HETATM   12  C   UNK N   1      30.489  17.468   7.260  0.00  0.00     0.243 C 
HETATM   13  C   UNK N   1      32.714  14.029   5.312  0.00  0.00     0.286 C 
HETATM   14  N   UNK N   1      29.355  17.775   6.581  0.00  0.00    -0.346 N 
HETATM   15  C   UNK N   1      28.990  15.030   3.211  0.00  0.00     0.179 C 
HETATM   16  O   UNK N   1      32.656  15.333   4.944  0.00  0.00    -0.312 OA
HETATM   17  C   UNK N   1      33.249  12.252   0.216  0.00  0.00     0.139 C 
HETATM   18  C   UNK N   1      33.729  13.136   4.664  0.00  0.00     0.217 C 
HETATM   19  C   UNK N   1      35.477  10.783   1.566  0.00  0.00     0.113 C 
HETATM   20  C   UNK N   1      34.320  11.574  -0.666  0.00  0.00     0.083 C 
HETATM   21  C   UNK N   1      35.458  10.910   0.077  0.00  0.00     0.135 C 
HETATM   22  C   UNK N   1      28.948  17.115   5.357  0.00  0.00     0.176 C 
HETATM   23  C   UNK N   1      31.669  16.232   5.288  0.00  0.00     0.159 C 
HETATM   24  O   UNK N   1      32.009  11.023   3.354  0.00  0.00    -0.271 OA
HETATM   25  O   UNK N   1      31.080  14.452   2.231  0.00  0.00    -0.271 OA
HETATM   26  O   UNK N   1      27.860  15.446   6.606  0.00  0.00    -0.271 OA
HETATM   27  O   UNK N   1      30.779  18.122   8.250  0.00  0.00    -0.271 OA
HETATM   28  O   UNK N   1      35.538  13.649   1.654  0.00  0.00    -0.271 OA
HETATM   29  O   UNK N   1      31.935  13.570   6.136  0.00  0.00    -0.263 OA
HETATM   30  O   UNK N   1      36.379  10.419  -0.559  0.00  0.00    -0.297 OA
HETATM   31  C   UNK N   1      27.312  13.904   4.487  0.00  0.00     0.127 C 
HETATM   32  C   UNK N   1      28.645  11.976   3.064  0.00  0.00     0.153 C 
HETATM   33  C   UNK N   1      27.751  15.017   2.339  0.00  0.00     0.037 C 
HETATM   34  C   UNK N   1      26.707  14.187   3.107  0.00  0.00     0.022 C 
HETATM   35  C   UNK N   1      31.959  17.568   4.618  0.00  0.00     0.042 C 
HETATM   36  H   UNK N   1      34.493  14.764   3.559  0.00  0.00     0.163 HD
HETATM   37  H   UNK N   1      28.777  18.487   6.939  0.00  0.00     0.163 HD
ENDROOT
BRANCH   9  38
HETATM   38  N   UNK N   1      32.563  16.159   7.670  0.00  0.00    -0.340 N 
HETATM   39  C   UNK N   1      32.563  15.450   8.827  0.00  0.00     0.271 C 
HETATM   40  O   UNK N   1      31.570  14.836   9.179  0.00  0.00    -0.266 OA
HETATM   41  H   UNK N   1      33.408  16.580   7.390  0.00  0.00     0.163 HD
BRANCH  39  42
HETATM   42  C   UNK N   1      33.751  15.493   9.702  0.00  0.00     0.134 A 
HETATM   43  N   UNK N   1      34.303  16.698  10.021  0.00  0.00    -0.359 N 
HETATM   44  C   UNK N   1      35.385  16.796  10.839  0.00  0.00     0.088 A 
ATOM     45  HN  UNK N   1      33.893  17.550   9.635  1.00  0.00     0.165 HD
HETATM   46  C   UNK N   1      35.951  15.649  11.395  0.00  0.00     0.020 A 
HETATM   47  C   UNK N   1      35.397  14.404  11.103  0.00  0.00     0.040 A 
HETATM   48  C   UNK N   1      34.297  14.314  10.253  0.00  0.00     0.098 A 
BRANCH  48  49
HETATM   49  O   UNK N   1      33.751  13.109  10.007  0.00  0.00    -0.358 OA
HETATM   50  H   UNK N   1      33.649  12.187  10.133  0.00  0.00     0.217 HD
ENDBRANCH  48  49
ENDBRANCH  39  42
ENDBRANCH   9  38
BRANCH  22  51
HETATM   51  C   UNK N   1      27.862  17.942   4.664  0.00  0.00     0.030 C 
HETATM   52  C   UNK N   1      28.120  19.442   4.758  0.00  0.00     0.007 C 
ENDBRANCH  22  51
BRANCH  18  53
HETATM   53  C   UNK N   1      34.823  12.680   5.572  0.00  0.00    -0.026 A 
HETATM   54  C   UNK N   1      35.574  13.620   6.285  0.00  0.00     0.010 A 
HETATM   55  C   UNK N   1      36.431  13.200   7.305  0.00  0.00     0.001 A 
HETATM   56  C   UNK N   1      36.526  11.842   7.623  0.00  0.00     0.000 A 
HETATM   57  C   UNK N   1      35.786  10.900   6.905  0.00  0.00     0.001 A 
HETATM   58  C   UNK N   1      34.931  11.319   5.888  0.00  0.00     0.010 A 
ENDBRANCH  18  53
BRANCH   6  59
HETATM   59  C   UNK N   1      30.486  12.244   0.182  0.00  0.00     0.073 C 
BRANCH  59  60
HETATM   60  C   UNK N   1      29.958  11.127  -0.657  0.00  0.00    -0.056 A 
HETATM   61  C   UNK N   1      29.358  10.031  -0.037  0.00  0.00     0.009 A 
HETATM   62  C   UNK N   1      28.990   8.916  -0.793  0.00  0.00     0.030 A 
HETATM   63  C   UNK N   1      29.217   8.889  -2.179  0.00  0.00     0.029 A 
HETATM   64  C   UNK N   1      29.793  10.011  -2.798  0.00  0.00     0.030 A 
HETATM   65  C   UNK N   1      30.171  11.118  -2.039  0.00  0.00     0.009 A 
BRANCH  63  66
HETATM   66  N   UNK N   1      28.891   7.729  -2.942  0.00  0.00    -0.390 N 
HETATM   67  C   UNK N   1      28.627   7.826  -4.355  0.00  0.00     0.149 C 
HETATM   68  C   UNK N   1      28.758   6.441  -2.308  0.00  0.00     0.149 C 
ENDBRANCH  63  66
ENDBRANCH  59  60
ENDBRANCH   6  59
BRANCH  20  69
HETATM   69  C   UNK N   1      33.709  10.598  -1.665  0.00  0.00     0.088 C 
BRANCH  69  70
HETATM   70  S   UNK N   1      33.157   9.008  -0.962  0.00  0.00    -0.161 SA
BRANCH  70  71
HETATM   71  C   UNK N   1      34.165   8.078  -2.159  0.00  0.00     0.079 C 
HETATM   72  C   UNK N   1      34.684   8.999  -3.283  0.00  0.00     0.287 C 
HETATM   73  N   UNK N   1      34.455   8.399  -4.613  0.00  0.00     0.089 N 
HETATM   74  C   UNK N   1      35.057   7.052  -4.669  0.00  0.00     0.273 C 
HETATM   75  C   UNK N   1      33.002   8.278  -4.827  0.00  0.00     0.273 C 
HETATM   76  C   UNK N   1      34.443   6.111  -3.609  0.00  0.00     0.036 C 
HETATM   77  C   UNK N   1      33.418   6.885  -2.778  0.00  0.00     0.004 C 
HETATM   78  C   UNK N   1      32.340   7.409  -3.734  0.00  0.00     0.036 C 
ENDBRANCH  70  71
ENDBRANCH  69  70
ENDBRANCH  20  69
TORSDOF 11
ENDMDL
MODEL 4
REMARK VINA RESULT:      -8.1      4.055     10.673
REMARK  11 active torsions:
REMARK  status: ('A' for Active; 'I' for Inactive)
REMARK    1  A    between atoms: C_6  and  C_33 
REMARK    2  A    between atoms: C_9  and  N_16 
REMARK       I    between atoms: C_14  and  N_16 
REMARK    3  A    between atoms: C_18  and  C_14 
REMARK    4  A    between atoms: C_21  and  C_47 
REMARK    5  A    between atoms: C_35  and  C_23 
REMARK    6  A    between atoms: C_25  and  C_61 
REMARK    7  A    between atoms: C_30  and  S_31 
REMARK    8  A    between atoms: S_31  and  C_35 
REMARK    9  A    between atoms: C_56  and  C_33 
REMARK   10  A    between atoms: O_60  and  C_41 
REMARK   11  A    between atoms: N_45  and  C_43 
ROOT
HETATM    1  N   UNK N   1      30.392  13.745   2.896  0.00  0.00    -0.336 N 
HETATM    2  C   UNK N   1      29.300  14.528   2.575  0.00  0.00     0.243 C 
HETATM    3  N   UNK N   1      27.166  15.243   3.653  0.00  0.00    -0.341 N 
HETATM    4  C   UNK N   1      26.640  14.168   4.358  0.00  0.00     0.243 C 
HETATM    5  N   UNK N   1      24.084  14.201   3.929  0.00  0.00    -0.337 N 
HETATM    6  C   UNK N   1      28.606  15.478   3.538  0.00  0.00     0.183 C 
HETATM    7  C   UNK N   1      30.813  12.679   2.005  0.00  0.00     0.186 C 
HETATM    8  N   UNK N   1      29.078  10.946   2.469  0.00  0.00    -0.342 N 
HETATM    9  C   UNK N   1      23.996  10.401   2.500  0.00  0.00     0.206 C 
HETATM   10  C   UNK N   1      23.085  13.277   3.749  0.00  0.00     0.243 C 
HETATM   11  C   UNK N   1      30.351  11.383   2.648  0.00  0.00     0.242 C 
HETATM   12  C   UNK N   1      22.634  10.186   3.126  0.00  0.00     0.243 C 
HETATM   13  C   UNK N   1      26.785  11.421   1.777  0.00  0.00     0.286 C 
HETATM   14  N   UNK N   1      22.166  11.002   4.104  0.00  0.00    -0.346 N 
HETATM   15  C   UNK N   1      25.170  14.066   4.888  0.00  0.00     0.179 C 
HETATM   16  O   UNK N   1      26.409  10.747   2.892  0.00  0.00    -0.312 OA
HETATM   17  C   UNK N   1      31.024  13.777   4.203  0.00  0.00     0.139 C 
HETATM   18  C   UNK N   1      28.239  11.479   1.418  0.00  0.00     0.217 C 
HETATM   19  C   UNK N   1      32.308  12.719   1.718  0.00  0.00     0.113 C 
HETATM   20  C   UNK N   1      32.567  13.732   4.138  0.00  0.00     0.083 C 
HETATM   21  C   UNK N   1      33.153  13.120   2.885  0.00  0.00     0.135 C 
HETATM   22  C   UNK N   1      22.930  12.094   4.674  0.00  0.00     0.176 C 
HETATM   23  C   UNK N   1      25.157  10.762   3.468  0.00  0.00     0.159 C 
HETATM   24  O   UNK N   1      28.811  14.446   1.455  0.00  0.00    -0.271 OA
HETATM   25  O   UNK N   1      27.405  13.270   4.699  0.00  0.00    -0.271 OA
HETATM   26  O   UNK N   1      22.164  13.530   2.977  0.00  0.00    -0.271 OA
HETATM   27  O   UNK N   1      21.939   9.254   2.752  0.00  0.00    -0.271 OA
HETATM   28  O   UNK N   1      31.059  10.824   3.470  0.00  0.00    -0.271 OA
HETATM   29  O   UNK N   1      25.962  12.003   1.083  0.00  0.00    -0.263 OA
HETATM   30  O   UNK N   1      34.364  12.983   2.798  0.00  0.00    -0.297 OA
HETATM   31  C   UNK N   1      23.762  15.564   3.668  0.00  0.00     0.127 C 
HETATM   32  C   UNK N   1      26.348  16.300   3.130  0.00  0.00     0.153 C 
HETATM   33  C   UNK N   1      24.888  15.221   5.828  0.00  0.00     0.037 C 
HETATM   34  C   UNK N   1      24.083  16.243   5.005  0.00  0.00     0.022 C 
HETATM   35  C   UNK N   1      25.183   9.918   4.734  0.00  0.00     0.042 C 
HETATM   36  H   UNK N   1      28.720  10.252   3.066  0.00  0.00     0.163 HD
HETATM   37  H   UNK N   1      21.257  10.844   4.446  0.00  0.00     0.163 HD
ENDROOT
BRANCH   9  38
HETATM   38  N   UNK N   1      24.322   9.430   1.466  0.00  0.00    -0.340 N 
HETATM   39  C   UNK N   1      23.903   9.507   0.177  0.00  0.00     0.271 C 
HETATM   40  O   UNK N   1      23.275  10.476  -0.215  0.00  0.00    -0.266 OA
HETATM   41  H   UNK N   1      24.887   8.665   1.719  0.00  0.00     0.163 HD
BRANCH  39  42
HETATM   42  C   UNK N   1      24.140   8.368  -0.731  0.00  0.00     0.134 A 
HETATM   43  N   UNK N   1      24.431   7.144  -0.205  0.00  0.00    -0.359 N 
HETATM   44  C   UNK N   1      24.639   6.056  -0.995  0.00  0.00     0.088 A 
ATOM     45  HN  UNK N   1      24.495   7.041   0.808  1.00  0.00     0.165 HD
HETATM   46  C   UNK N   1      24.537   6.166  -2.382  0.00  0.00     0.020 A 
HETATM   47  C   UNK N   1      24.222   7.400  -2.948  0.00  0.00     0.040 A 
HETATM   48  C   UNK N   1      24.025   8.510  -2.130  0.00  0.00     0.098 A 
BRANCH  48  49
HETATM   49  O   UNK N   1      23.687   9.688  -2.687  0.00  0.00    -0.358 OA
HETATM   50  H   UNK N   1      23.615  10.621  -2.710  0.00  0.00     0.217 HD
ENDBRANCH  48  49
ENDBRANCH  39  42
ENDBRANCH   9  38
BRANCH  22  51
HETATM   51  C   UNK N   1      22.277  12.550   5.982  0.00  0.00     0.030 C 
HETATM   52  C   UNK N   1      22.990  12.001   7.213  0.00  0.00     0.007 C 
ENDBRANCH  22  51
BRANCH  18  53
HETATM   53  C   UNK N   1      28.606  10.713   0.189  0.00  0.00    -0.026 A 
HETATM   54  C   UNK N   1      29.547  11.237  -0.703  0.00  0.00     0.010 A 
HETATM   55  C   UNK N   1      30.067  10.432  -1.720  0.00  0.00     0.001 A 
HETATM   56  C   UNK N   1      29.660   9.100  -1.835  0.00  0.00     0.000 A 
HETATM   57  C   UNK N   1      28.712   8.578  -0.952  0.00  0.00     0.001 A 
HETATM   58  C   UNK N   1      28.193   9.380   0.063  0.00  0.00     0.010 A 
ENDBRANCH  18  53
BRANCH   6  59
HETATM   59  C   UNK N   1      29.216  15.739   4.925  0.00  0.00     0.073 C 
BRANCH  59  60
HETATM   60  C   UNK N   1      28.823  17.095   5.409  0.00  0.00    -0.056 A 
HETATM   61  C   UNK N   1      28.245  17.228   6.672  0.00  0.00     0.009 A 
HETATM   62  C   UNK N   1      27.740  18.463   7.082  0.00  0.00     0.030 A 
HETATM   63  C   UNK N   1      27.812  19.580   6.233  0.00  0.00     0.029 A 
HETATM   64  C   UNK N   1      28.424  19.442   4.976  0.00  0.00     0.030 A 
HETATM   65  C   UNK N   1      28.916  18.205   4.563  0.00  0.00     0.009 A 
BRANCH  63  66
HETATM   66  N   UNK N   1      27.247  20.828   6.630  0.00  0.00    -0.390 N 
HETATM   67  C   UNK N   1      26.150  20.877   7.563  0.00  0.00     0.149 C 
HETATM   68  C   UNK N   1      27.720  22.067   6.063  0.00  0.00     0.149 C 
ENDBRANCH  63  66
ENDBRANCH  59  60
ENDBRANCH   6  59
BRANCH  20  69
HETATM   69  C   UNK N   1      33.193  15.098   4.393  0.00  0.00     0.088 C 
BRANCH  69  70
HETATM   70  S   UNK N   1      34.571  15.111   5.587  0.00  0.00    -0.161 SA
BRANCH  70  71
HETATM   71  C   UNK N   1      33.813  16.482   6.515  0.00  0.00     0.079 C 
HETATM   72  C   UNK N   1      34.563  16.739   7.839  0.00  0.00     0.287 C 
HETATM   73  N   UNK N   1      33.620  16.853   8.971  0.00  0.00     0.089 N 
HETATM   74  C   UNK N   1      32.612  17.894   8.686  0.00  0.00     0.273 C 
HETATM   75  C   UNK N   1      32.933  15.560   9.139  0.00  0.00     0.273 C 
HETATM   76  C   UNK N   1      31.796  17.561   7.417  0.00  0.00     0.036 C 
HETATM   77  C   UNK N   1      32.320  16.261   6.805  0.00  0.00     0.004 C 
HETATM   78  C   UNK N   1      32.172  15.155   7.856  0.00  0.00     0.036 C 
ENDBRANCH  70  71
ENDBRANCH  69  70
ENDBRANCH  20  69
TORSDOF 11
ENDMDL
MODEL 5
REMARK VINA RESULT:      -8.1      3.736      8.592
REMARK  11 active torsions:
REMARK  status: ('A' for Active; 'I' for Inactive)
REMARK    1  A    between atoms: C_6  and  C_33 
REMARK    2  A    between atoms: C_9  and  N_16 
REMARK       I    between atoms: C_14  and  N_16 
REMARK    3  A    between atoms: C_18  and  C_14 
REMARK    4  A    between atoms: C_21  and  C_47 
REMARK    5  A    between atoms: C_35  and  C_23 
REMARK    6  A    between atoms: C_25  and  C_61 
REMARK    7  A    between atoms: C_30  and  S_31 
REMARK    8  A    between atoms: S_31  and  C_35 
REMARK    9  A    between atoms: C_56  and  C_33 
REMARK   10  A    between atoms: O_60  and  C_41 
REMARK   11  A    between atoms: N_45  and  C_43 
ROOT
HETATM    1  N   UNK N   1      33.870  14.940   7.322  0.00  0.00    -0.336 N 
HETATM    2  C   UNK N   1      34.764  14.069   6.731  0.00  0.00     0.243 C 
HETATM    3  N   UNK N   1      34.685  11.889   5.518  0.00  0.00    -0.341 N 
HETATM    4  C   UNK N   1      33.742  11.072   6.130  0.00  0.00     0.243 C 
HETATM    5  N   UNK N   1      34.776   8.696   6.197  0.00  0.00    -0.337 N 
HETATM    6  C   UNK N   1      34.521  13.340   5.419  0.00  0.00     0.183 C 
HETATM    7  C   UNK N   1      34.071  15.372   8.693  0.00  0.00     0.186 C 
HETATM    8  N   UNK N   1      33.357  13.339   9.952  0.00  0.00    -0.342 N 
HETATM    9  C   UNK N   1      34.383   8.339  10.223  0.00  0.00     0.206 C 
HETATM   10  C   UNK N   1      34.783   7.630   7.060  0.00  0.00     0.243 C 
HETATM   11  C   UNK N   1      33.069  14.598   9.532  0.00  0.00     0.242 C 
HETATM   12  C   UNK N   1      34.094   6.860  10.073  0.00  0.00     0.243 C 
HETATM   13  C   UNK N   1      34.744  11.338   9.757  0.00  0.00     0.286 C 
HETATM   14  N   UNK N   1      33.723   6.326   8.882  0.00  0.00    -0.346 N 
HETATM   15  C   UNK N   1      33.612   9.526   5.920  0.00  0.00     0.179 C 
HETATM   16  O   UNK N   1      33.583  10.642   9.830  0.00  0.00    -0.312 OA
HETATM   17  C   UNK N   1      32.593  15.283   6.720  0.00  0.00     0.139 C 
HETATM   18  C   UNK N   1      34.710  12.827   9.927  0.00  0.00     0.217 C 
HETATM   19  C   UNK N   1      33.956  16.883   8.848  0.00  0.00     0.113 C 
HETATM   20  C   UNK N   1      32.239  16.781   6.851  0.00  0.00     0.083 C 
HETATM   21  C   UNK N   1      32.907  17.516   7.991  0.00  0.00     0.135 C 
HETATM   22  C   UNK N   1      33.510   7.110   7.682  0.00  0.00     0.176 C 
HETATM   23  C   UNK N   1      33.409   9.313   9.504  0.00  0.00     0.159 C 
HETATM   24  O   UNK N   1      35.821  13.817   7.296  0.00  0.00    -0.271 OA
HETATM   25  O   UNK N   1      32.864  11.606   6.801  0.00  0.00    -0.271 OA
HETATM   26  O   UNK N   1      35.795   6.938   7.152  0.00  0.00    -0.271 OA
HETATM   27  O   UNK N   1      34.189   6.126  11.045  0.00  0.00    -0.271 OA
HETATM   28  O   UNK N   1      31.936  15.026   9.680  0.00  0.00    -0.271 OA
HETATM   29  O   UNK N   1      35.805  10.775   9.525  0.00  0.00    -0.263 OA
HETATM   30  O   UNK N   1      32.615  18.684   8.200  0.00  0.00    -0.297 OA
HETATM   31  C   UNK N   1      35.675   8.644   5.092  0.00  0.00     0.127 C 
HETATM   32  C   UNK N   1      35.803  11.367   4.787  0.00  0.00     0.153 C 
HETATM   33  C   UNK N   1      33.374   9.231   4.452  0.00  0.00     0.037 C 
HETATM   34  C   UNK N   1      34.733   8.778   3.890  0.00  0.00     0.022 C 
HETATM   35  C   UNK N   1      31.941   8.948   9.675  0.00  0.00     0.042 C 
HETATM   36  H   UNK N   1      32.630  12.764  10.281  0.00  0.00     0.163 HD
HETATM   37  H   UNK N   1      33.589   5.352   8.831  0.00  0.00     0.163 HD
ENDROOT
BRANCH   9  38
HETATM   38  N   UNK N   1      34.773   8.724  11.571  0.00  0.00    -0.340 N 
HETATM   39  C   UNK N   1      36.043   8.679  12.048  0.00  0.00     0.271 C 
HETATM   40  O   UNK N   1      36.971   8.379  11.316  0.00  0.00    -0.266 OA
HETATM   41  H   UNK N   1      34.066   9.039  12.179  0.00  0.00     0.163 HD
BRANCH  39  42
HETATM   42  C   UNK N   1      36.285   8.913  13.485  0.00  0.00     0.134 A 
HETATM   43  N   UNK N   1      35.685   8.105  14.405  0.00  0.00    -0.359 N 
HETATM   44  C   UNK N   1      35.889   8.264  15.740  0.00  0.00     0.088 A 
ATOM     45  HN  UNK N   1      35.065   7.360  14.082  1.00  0.00     0.165 HD
HETATM   46  C   UNK N   1      36.746   9.261  16.205  0.00  0.00     0.020 A 
HETATM   47  C   UNK N   1      37.389  10.091  15.289  0.00  0.00     0.040 A 
HETATM   48  C   UNK N   1      37.162   9.927  13.924  0.00  0.00     0.098 A 
BRANCH  48  49
HETATM   49  O   UNK N   1      37.816  10.713  13.048  0.00  0.00    -0.358 OA
HETATM   50  H   UNK N   1      37.925  11.158  12.232  0.00  0.00     0.217 HD
ENDBRANCH  48  49
ENDBRANCH  39  42
ENDBRANCH   9  38
BRANCH  22  51
HETATM   51  C   UNK N   1      32.743   6.275   6.652  0.00  0.00     0.030 C 
HETATM   52  C   UNK N   1      31.273   6.668   6.559  0.00  0.00     0.007 C 
ENDBRANCH  22  51
BRANCH  18  53
HETATM   53  C   UNK N   1      35.346  13.322  11.184  0.00  0.00    -0.026 A 
HETATM   54  C   UNK N   1      36.046  14.533  11.180  0.00  0.00     0.010 A 
HETATM   55  C   UNK N   1      36.437  15.117  12.388  0.00  0.00     0.001 A 
HETATM   56  C   UNK N   1      36.116  14.498  13.599  0.00  0.00     0.000 A 
HETATM   57  C   UNK N   1      35.427  13.283  13.606  0.00  0.00     0.001 A 
HETATM   58  C   UNK N   1      35.036  12.701  12.401  0.00  0.00     0.010 A 
ENDBRANCH  18  53
BRANCH   6  59
HETATM   59  C   UNK N   1      33.280  13.680   4.576  0.00  0.00     0.073 C 
BRANCH  59  60
HETATM   60  C   UNK N   1      33.553  13.411   3.133  0.00  0.00    -0.056 A 
HETATM   61  C   UNK N   1      32.843  12.405   2.480  0.00  0.00     0.009 A 
HETATM   62  C   UNK N   1      33.185  12.043   1.175  0.00  0.00     0.030 A 
HETATM   63  C   UNK N   1      34.240  12.690   0.510  0.00  0.00     0.029 A 
HETATM   64  C   UNK N   1      34.928  13.724   1.166  0.00  0.00     0.030 A 
HETATM   65  C   UNK N   1      34.593  14.075   2.473  0.00  0.00     0.009 A 
BRANCH  63  66
HETATM   66  N   UNK N   1      34.624  12.283  -0.802  0.00  0.00    -0.390 N 
HETATM   67  C   UNK N   1      35.820  11.508  -1.013  0.00  0.00     0.149 C 
HETATM   68  C   UNK N   1      33.860  12.691  -1.955  0.00  0.00     0.149 C 
ENDBRANCH  63  66
ENDBRANCH  59  60
ENDBRANCH   6  59
BRANCH  20  69
HETATM   69  C   UNK N   1      32.452  17.538   5.545  0.00  0.00     0.088 C 
BRANCH  69  70
HETATM   70  S   UNK N   1      31.232  17.190   4.235  0.00  0.00    -0.161 SA
BRANCH  70  71
HETATM   71  C   UNK N   1      29.902  16.997   5.463  0.00  0.00     0.079 C 
HETATM   72  C   UNK N   1      29.099  15.702   5.214  0.00  0.00     0.287 C 
HETATM   73  N   UNK N   1      27.645  15.963   5.244  0.00  0.00     0.089 N 
HETATM   74  C   UNK N   1      27.275  16.617   6.515  0.00  0.00     0.273 C 
HETATM   75  C   UNK N   1      27.310  16.868   4.130  0.00  0.00     0.273 C 
HETATM   76  C   UNK N   1      28.006  17.967   6.692  0.00  0.00     0.036 C 
HETATM   77  C   UNK N   1      28.941  18.197   5.504  0.00  0.00     0.004 C 
HETATM   78  C   UNK N   1      28.088  18.199   4.230  0.00  0.00     0.036 C 
ENDBRANCH  70  71
ENDBRANCH  69  70
ENDBRANCH  20  69
TORSDOF 11
ENDMDL
MODEL 6
REMARK VINA RESULT:      -8.0      3.435     10.015
REMARK  11 active torsions:
REMARK  status: ('A' for Active; 'I' for Inactive)
REMARK    1  A    between atoms: C_6  and  C_33 
REMARK    2  A    between atoms: C_9  and  N_16 
REMARK       I    between atoms: C_14  and  N_16 
REMARK    3  A    between atoms: C_18  and  C_14 
REMARK    4  A    between atoms: C_21  and  C_47 
REMARK    5  A    between atoms: C_35  and  C_23 
REMARK    6  A    between atoms: C_25  and  C_61 
REMARK    7  A    between atoms: C_30  and  S_31 
REMARK    8  A    between atoms: S_31  and  C_35 
REMARK    9  A    between atoms: C_56  and  C_33 
REMARK   10  A    between atoms: O_60  and  C_41 
REMARK   11  A    between atoms: N_45  and  C_43 
ROOT
HETATM    1  N   UNK N   1      34.394  13.994   8.615  0.00  0.00    -0.336 N 
HETATM    2  C   UNK N   1      33.563  12.906   8.433  0.00  0.00     0.243 C 
HETATM    3  N   UNK N   1      33.158  11.170   6.685  0.00  0.00    -0.341 N 
HETATM    4  C   UNK N   1      33.243  11.769   5.434  0.00  0.00     0.243 C 
HETATM    5  N   UNK N   1      31.325  10.754   4.016  0.00  0.00    -0.337 N 
HETATM    6  C   UNK N   1      33.994  11.586   7.813  0.00  0.00     0.183 C 
HETATM    7  C   UNK N   1      33.834  15.289   8.959  0.00  0.00     0.186 C 
HETATM    8  N   UNK N   1      32.898  16.013   6.762  0.00  0.00    -0.342 N 
HETATM    9  C   UNK N   1      29.693  14.367   3.136  0.00  0.00     0.206 C 
HETATM   10  C   UNK N   1      30.450  11.192   3.053  0.00  0.00     0.243 C 
HETATM   11  C   UNK N   1      33.882  16.122   7.691  0.00  0.00     0.242 C 
HETATM   12  C   UNK N   1      29.303  13.868   1.761  0.00  0.00     0.243 C 
HETATM   13  C   UNK N   1      30.995  14.767   5.872  0.00  0.00     0.286 C 
HETATM   14  N   UNK N   1      29.869  12.758   1.222  0.00  0.00    -0.346 N 
HETATM   15  C   UNK N   1      32.725  11.142   4.096  0.00  0.00     0.179 C 
HETATM   16  O   UNK N   1      31.540  14.992   4.651  0.00  0.00    -0.312 OA
HETATM   17  C   UNK N   1      35.801  13.977   8.258  0.00  0.00     0.139 C 
HETATM   18  C   UNK N   1      31.630  15.392   7.077  0.00  0.00     0.217 C 
HETATM   19  C   UNK N   1      34.547  15.934  10.140  0.00  0.00     0.113 C 
HETATM   20  C   UNK N   1      36.704  14.675   9.299  0.00  0.00     0.083 C 
HETATM   21  C   UNK N   1      36.024  15.706  10.172  0.00  0.00     0.135 C 
HETATM   22  C   UNK N   1      30.921  11.998   1.867  0.00  0.00     0.176 C 
HETATM   23  C   UNK N   1      31.208  14.344   3.480  0.00  0.00     0.159 C 
HETATM   24  O   UNK N   1      32.383  12.990   8.749  0.00  0.00    -0.271 OA
HETATM   25  O   UNK N   1      33.870  12.819   5.337  0.00  0.00    -0.271 OA
HETATM   26  O   UNK N   1      29.311  10.731   3.022  0.00  0.00    -0.271 OA
HETATM   27  O   UNK N   1      28.466  14.476   1.113  0.00  0.00    -0.271 OA
HETATM   28  O   UNK N   1      34.889  16.755   7.415  0.00  0.00    -0.271 OA
HETATM   29  O   UNK N   1      30.020  14.040   6.005  0.00  0.00    -0.263 OA
HETATM   30  O   UNK N   1      36.694  16.350  10.966  0.00  0.00    -0.297 OA
HETATM   31  C   UNK N   1      31.093   9.460   4.565  0.00  0.00     0.127 C 
HETATM   32  C   UNK N   1      32.377   9.992   6.929  0.00  0.00     0.153 C 
HETATM   33  C   UNK N   1      33.420   9.817   3.853  0.00  0.00     0.037 C 
HETATM   34  C   UNK N   1      32.410   8.733   4.271  0.00  0.00     0.022 C 
HETATM   35  C   UNK N   1      32.098  14.860   2.358  0.00  0.00     0.042 C 
HETATM   36  H   UNK N   1      33.051  16.364   5.856  0.00  0.00     0.163 HD
HETATM   37  H   UNK N   1      29.548  12.453   0.343  0.00  0.00     0.163 HD
ENDROOT
BRANCH   9  38
HETATM   38  N   UNK N   1      28.975  15.565   3.547  0.00  0.00    -0.340 N 
HETATM   39  C   UNK N   1      27.720  15.572   4.064  0.00  0.00     0.271 C 
HETATM   40  O   UNK N   1      27.139  14.526   4.296  0.00  0.00    -0.266 OA
HETATM   41  H   UNK N   1      29.433  16.430   3.443  0.00  0.00     0.163 HD
BRANCH  39  42
HETATM   42  C   UNK N   1      27.028  16.860   4.265  0.00  0.00     0.134 A 
HETATM   43  N   UNK N   1      25.717  16.863   4.640  0.00  0.00    -0.359 N 
HETATM   44  C   UNK N   1      25.038  18.021   4.858  0.00  0.00     0.088 A 
ATOM     45  HN  UNK N   1      25.233  15.973   4.759  1.00  0.00     0.165 HD
HETATM   46  C   UNK N   1      25.683  19.250   4.721  0.00  0.00     0.020 A 
HETATM   47  C   UNK N   1      27.027  19.279   4.358  0.00  0.00     0.040 A 
HETATM   48  C   UNK N   1      27.710  18.087   4.124  0.00  0.00     0.098 A 
BRANCH  48  49
HETATM   49  O   UNK N   1      29.017  18.128   3.807  0.00  0.00    -0.358 OA
HETATM   50  H   UNK N   1      29.905  18.403   3.921  0.00  0.00     0.217 HD
ENDBRANCH  48  49
ENDBRANCH  39  42
ENDBRANCH   9  38
BRANCH  22  51
HETATM   51  C   UNK N   1      31.583  11.067   0.847  0.00  0.00     0.030 C 
HETATM   52  C   UNK N   1      32.689  11.759   0.057  0.00  0.00     0.007 C 
ENDBRANCH  22  51
BRANCH  18  53
HETATM   53  C   UNK N   1      30.813  16.463   7.723  0.00  0.00    -0.026 A 
HETATM   54  C   UNK N   1      30.094  17.364   6.931  0.00  0.00     0.010 A 
HETATM   55  C   UNK N   1      29.149  18.209   7.518  0.00  0.00     0.001 A 
HETATM   56  C   UNK N   1      28.912  18.144   8.894  0.00  0.00     0.000 A 
HETATM   57  C   UNK N   1      29.636  17.253   9.689  0.00  0.00     0.001 A 
HETATM   58  C   UNK N   1      30.579  16.409   9.104  0.00  0.00     0.010 A 
ENDBRANCH  18  53
BRANCH   6  59
HETATM   59  C   UNK N   1      35.479  11.341   7.495  0.00  0.00     0.073 C 
BRANCH  59  60
HETATM   60  C   UNK N   1      35.790   9.885   7.597  0.00  0.00    -0.056 A 
HETATM   61  C   UNK N   1      36.131   9.177   6.445  0.00  0.00     0.009 A 
HETATM   62  C   UNK N   1      36.284   7.790   6.497  0.00  0.00     0.030 A 
HETATM   63  C   UNK N   1      36.100   7.098   7.705  0.00  0.00     0.029 A 
HETATM   64  C   UNK N   1      35.786   7.824   8.866  0.00  0.00     0.030 A 
HETATM   65  C   UNK N   1      35.622   9.208   8.809  0.00  0.00     0.009 A 
BRANCH  63  66
HETATM   66  N   UNK N   1      36.202   5.675   7.747  0.00  0.00    -0.390 N 
HETATM   67  C   UNK N   1      36.041   4.890   6.550  0.00  0.00     0.149 C 
HETATM   68  C   UNK N   1      36.407   4.986   8.996  0.00  0.00     0.149 C 
ENDBRANCH  63  66
ENDBRANCH  59  60
ENDBRANCH   6  59
BRANCH  20  69
HETATM   69  C   UNK N   1      37.462  13.675  10.165  0.00  0.00     0.088 C 
BRANCH  69  70
HETATM   70  S   UNK N   1      36.440  12.368  10.920  0.00  0.00    -0.161 SA
BRANCH  70  71
HETATM   71  C   UNK N   1      36.911  12.906  12.595  0.00  0.00     0.079 C 
HETATM   72  C   UNK N   1      37.401  11.714  13.444  0.00  0.00     0.287 C 
HETATM   73  N   UNK N   1      36.758  11.707  14.774  0.00  0.00     0.089 N 
HETATM   74  C   UNK N   1      36.976  13.003  15.447  0.00  0.00     0.273 C 
HETATM   75  C   UNK N   1      35.310  11.505  14.592  0.00  0.00     0.273 C 
HETATM   76  C   UNK N   1      36.378  14.173  14.634  0.00  0.00     0.036 C 
HETATM   77  C   UNK N   1      35.776  13.632  13.336  0.00  0.00     0.004 C 
HETATM   78  C   UNK N   1      34.692  12.614  13.711  0.00  0.00     0.036 C 
ENDBRANCH  70  71
ENDBRANCH  69  70
ENDBRANCH  20  69
TORSDOF 11
ENDMDL
MODEL 7
REMARK VINA RESULT:      -7.7      5.578     11.289
REMARK  11 active torsions:
REMARK  status: ('A' for Active; 'I' for Inactive)
REMARK    1  A    between atoms: C_6  and  C_33 
REMARK    2  A    between atoms: C_9  and  N_16 
REMARK       I    between atoms: C_14  and  N_16 
REMARK    3  A    between atoms: C_18  and  C_14 
REMARK    4  A    between atoms: C_21  and  C_47 
REMARK    5  A    between atoms: C_35  and  C_23 
REMARK    6  A    between atoms: C_25  and  C_61 
REMARK    7  A    between atoms: C_30  and  S_31 
REMARK    8  A    between atoms: S_31  and  C_35 
REMARK    9  A    between atoms: C_56  and  C_33 
REMARK   10  A    between atoms: O_60  and  C_41 
REMARK   11  A    between atoms: N_45  and  C_43 
ROOT
HETATM    1  N   UNK N   1      36.244  13.888   9.652  0.00  0.00    -0.336 N 
HETATM    2  C   UNK N   1      37.496  13.310   9.726  0.00  0.00     0.243 C 
HETATM    3  N   UNK N   1      38.571  11.154   9.075  0.00  0.00    -0.341 N 
HETATM    4  C   UNK N   1      37.684  10.117   9.333  0.00  0.00     0.243 C 
HETATM    5  N   UNK N   1      39.094   8.189  10.340  0.00  0.00    -0.337 N 
HETATM    6  C   UNK N   1      38.128  12.474   8.624  0.00  0.00     0.183 C 
HETATM    7  C   UNK N   1      35.620  14.432  10.845  0.00  0.00     0.186 C 
HETATM    8  N   UNK N   1      34.900  12.347  12.011  0.00  0.00    -0.342 N 
HETATM    9  C   UNK N   1      36.847   7.939  13.713  0.00  0.00     0.206 C 
HETATM   10  C   UNK N   1      38.932   7.226  11.303  0.00  0.00     0.243 C 
HETATM   11  C   UNK N   1      34.561  13.429  11.264  0.00  0.00     0.242 C 
HETATM   12  C   UNK N   1      37.046   6.438  13.746  0.00  0.00     0.243 C 
HETATM   13  C   UNK N   1      36.642  10.872  12.879  0.00  0.00     0.286 C 
HETATM   14  N   UNK N   1      37.463   5.754  12.651  0.00  0.00    -0.346 N 
HETATM   15  C   UNK N   1      38.061   8.599   9.400  0.00  0.00     0.179 C 
HETATM   16  O   UNK N   1      35.812   9.853  12.546  0.00  0.00    -0.312 OA
HETATM   17  C   UNK N   1      35.399  13.783   8.476  0.00  0.00     0.139 C 
HETATM   18  C   UNK N   1      36.162  12.283  12.713  0.00  0.00     0.217 C 
HETATM   19  C   UNK N   1      35.077  15.838  10.625  0.00  0.00     0.113 C 
HETATM   20  C   UNK N   1      34.670  15.100   8.127  0.00  0.00     0.083 C 
HETATM   21  C   UNK N   1      34.476  16.066   9.275  0.00  0.00     0.135 C 
HETATM   22  C   UNK N   1      37.692   6.367  11.358  0.00  0.00     0.176 C 
HETATM   23  C   UNK N   1      36.157   8.521  12.450  0.00  0.00     0.159 C 
HETATM   24  O   UNK N   1      38.154  13.431  10.752  0.00  0.00    -0.271 OA
HETATM   25  O   UNK N   1      36.488  10.384   9.403  0.00  0.00    -0.271 OA
HETATM   26  O   UNK N   1      39.897   6.890  11.986  0.00  0.00    -0.271 OA
HETATM   27  O   UNK N   1      36.821   5.823  14.777  0.00  0.00    -0.271 OA
HETATM   28  O   UNK N   1      33.439  13.490  10.785  0.00  0.00    -0.271 OA
HETATM   29  O   UNK N   1      37.778  10.657  13.279  0.00  0.00    -0.263 OA
HETATM   30  O   UNK N   1      33.842  17.094   9.088  0.00  0.00    -0.297 OA
HETATM   31  C   UNK N   1      40.405   8.363   9.809  0.00  0.00     0.127 C 
HETATM   32  C   UNK N   1      39.994  10.970   9.061  0.00  0.00     0.153 C 
HETATM   33  C   UNK N   1      38.668   8.167   8.079  0.00  0.00     0.037 C 
HETATM   34  C   UNK N   1      40.189   8.133   8.309  0.00  0.00     0.022 C 
HETATM   35  C   UNK N   1      34.942   7.725  11.995  0.00  0.00     0.042 C 
HETATM   36  H   UNK N   1      34.273  11.592  12.076  0.00  0.00     0.163 HD
HETATM   37  H   UNK N   1      37.617   4.785  12.740  0.00  0.00     0.163 HD
ENDROOT
BRANCH   9  38
HETATM   38  N   UNK N   1      36.405   8.497  14.983  0.00  0.00    -0.340 N 
HETATM   39  C   UNK N   1      37.224   8.784  16.027  0.00  0.00     0.271 C 
HETATM   40  O   UNK N   1      38.432   8.661  15.919  0.00  0.00    -0.266 OA
HETATM   41  H   UNK N   1      35.444   8.679  15.091  0.00  0.00     0.163 HD
BRANCH  39  42
HETATM   42  C   UNK N   1      36.635   9.166  17.325  0.00  0.00     0.134 A 
HETATM   43  N   UNK N   1      35.534   9.969  17.348  0.00  0.00    -0.359 N 
HETATM   44  C   UNK N   1      34.940  10.336  18.516  0.00  0.00     0.088 A 
ATOM     45  HN  UNK N   1      35.145  10.305  16.466  1.00  0.00     0.165 HD
HETATM   46  C   UNK N   1      35.440   9.875  19.733  0.00  0.00     0.020 A 
HETATM   47  C   UNK N   1      36.553   9.036  19.740  0.00  0.00     0.040 A 
HETATM   48  C   UNK N   1      37.162   8.678  18.539  0.00  0.00     0.098 A 
BRANCH  48  49
HETATM   49  O   UNK N   1      38.215   7.841  18.558  0.00  0.00    -0.358 OA
HETATM   50  H   UNK N   1      38.729   7.124  18.244  0.00  0.00     0.217 HD
ENDBRANCH  48  49
ENDBRANCH  39  42
ENDBRANCH   9  38
BRANCH  22  51
HETATM   51  C   UNK N   1      37.774   5.282  10.281  0.00  0.00     0.030 C 
HETATM   52  C   UNK N   1      36.513   5.212   9.426  0.00  0.00     0.007 C 
ENDBRANCH  22  51
BRANCH  18  53
HETATM   53  C   UNK N   1      35.943  13.017  13.995  0.00  0.00    -0.026 A 
HETATM   54  C   UNK N   1      34.970  12.571  14.896  0.00  0.00     0.010 A 
HETATM   55  C   UNK N   1      34.919  13.102  16.187  0.00  0.00     0.001 A 
HETATM   56  C   UNK N   1      35.850  14.066  16.584  0.00  0.00     0.000 A 
HETATM   57  C   UNK N   1      36.816  14.521  15.683  0.00  0.00     0.001 A 
HETATM   58  C   UNK N   1      36.867  13.992  14.395  0.00  0.00     0.010 A 
ENDBRANCH  18  53
BRANCH   6  59
HETATM   59  C   UNK N   1      37.433  12.365   7.257  0.00  0.00     0.073 C 
BRANCH  59  60
HETATM   60  C   UNK N   1      38.355  12.829   6.177  0.00  0.00    -0.056 A 
HETATM   61  C   UNK N   1      39.122  11.892   5.486  0.00  0.00     0.009 A 
HETATM   62  C   UNK N   1      40.092  12.319   4.576  0.00  0.00     0.030 A 
HETATM   63  C   UNK N   1      40.300  13.689   4.347  0.00  0.00     0.029 A 
HETATM   64  C   UNK N   1      39.500  14.623   5.026  0.00  0.00     0.030 A 
HETATM   65  C   UNK N   1      38.541  14.195   5.943  0.00  0.00     0.009 A 
BRANCH  63  66
HETATM   66  N   UNK N   1      41.327  14.126   3.459  0.00  0.00    -0.390 N 
HETATM   67  C   UNK N   1      42.574  14.638   3.968  0.00  0.00     0.149 C 
HETATM   68  C   UNK N   1      41.120  14.123   2.032  0.00  0.00     0.149 C 
ENDBRANCH  63  66
ENDBRANCH  59  60
ENDBRANCH   6  59
BRANCH  20  69
HETATM   69  C   UNK N   1      35.312  15.816   6.945  0.00  0.00     0.088 C 
BRANCH  69  70
HETATM   70  S   UNK N   1      34.711  15.302   5.302  0.00  0.00    -0.161 SA
BRANCH  70  71
HETATM   71  C   UNK N   1      32.982  15.600   5.792  0.00  0.00     0.079 C 
HETATM   72  C   UNK N   1      32.006  14.806   4.899  0.00  0.00     0.287 C 
HETATM   73  N   UNK N   1      30.906  15.666   4.416  0.00  0.00     0.089 N 
HETATM   74  C   UNK N   1      30.226  16.306   5.560  0.00  0.00     0.273 C 
HETATM   75  C   UNK N   1      31.478  16.717   3.556  0.00  0.00     0.273 C 
HETATM   76  C   UNK N   1      31.197  17.187   6.377  0.00  0.00     0.036 C 
HETATM   77  C   UNK N   1      32.600  17.089   5.774  0.00  0.00     0.004 C 
HETATM   78  C   UNK N   1      32.518  17.568   4.319  0.00  0.00     0.036 C 
ENDBRANCH  70  71
ENDBRANCH  69  70
ENDBRANCH  20  69
TORSDOF 11
ENDMDL
MODEL 8
REMARK VINA RESULT:      -7.6      5.298     12.803
REMARK  11 active torsions:
REMARK  status: ('A' for Active; 'I' for Inactive)
REMARK    1  A    between atoms: C_6  and  C_33 
REMARK    2  A    between atoms: C_9  and  N_16 
REMARK       I    between atoms: C_14  and  N_16 
REMARK    3  A    between atoms: C_18  and  C_14 
REMARK    4  A    between atoms: C_21  and  C_47 
REMARK    5  A    between atoms: C_35  and  C_23 
REMARK    6  A    between atoms: C_25  and  C_61 
REMARK    7  A    between atoms: C_30  and  S_31 
REMARK    8  A    between atoms: S_31  and  C_35 
REMARK    9  A    between atoms: C_56  and  C_33 
REMARK   10  A    between atoms: O_60  and  C_41 
REMARK   11  A    between atoms: N_45  and  C_43 
ROOT
HETATM    1  N   UNK N   1      35.781  11.557  12.012  0.00  0.00    -0.336 N 
HETATM    2  C   UNK N   1      34.895  10.645  11.473  0.00  0.00     0.243 C 
HETATM    3  N   UNK N   1      34.975   8.707   9.903  0.00  0.00    -0.341 N 
HETATM    4  C   UNK N   1      35.852   9.006   8.869  0.00  0.00     0.243 C 
HETATM    5  N   UNK N   1      34.738   8.131   6.698  0.00  0.00    -0.337 N 
HETATM    6  C   UNK N   1      35.192   9.167  11.276  0.00  0.00     0.183 C 
HETATM    7  C   UNK N   1      35.514  12.981  11.911  0.00  0.00     0.186 C 
HETATM    8  N   UNK N   1      36.083  13.413   9.521  0.00  0.00    -0.342 N 
HETATM    9  C   UNK N   1      34.879  11.741   4.843  0.00  0.00     0.206 C 
HETATM   10  C   UNK N   1      34.644   8.530   5.388  0.00  0.00     0.243 C 
HETATM   11  C   UNK N   1      36.437  13.509  10.828  0.00  0.00     0.242 C 
HETATM   12  C   UNK N   1      35.127  11.059   3.513  0.00  0.00     0.243 C 
HETATM   13  C   UNK N   1      34.646  12.421   7.813  0.00  0.00     0.286 C 
HETATM   14  N   UNK N   1      35.551   9.772   3.444  0.00  0.00    -0.346 N 
HETATM   15  C   UNK N   1      35.942   8.237   7.508  0.00  0.00     0.179 C 
HETATM   16  O   UNK N   1      35.777  12.277   7.080  0.00  0.00    -0.312 OA
HETATM   17  C   UNK N   1      37.102  11.184  12.487  0.00  0.00     0.139 C 
HETATM   18  C   UNK N   1      34.719  13.139   9.127  0.00  0.00     0.217 C 
HETATM   19  C   UNK N   1      35.669  13.696  13.247  0.00  0.00     0.113 C 
HETATM   20  C   UNK N   1      37.497  11.883  13.807  0.00  0.00     0.083 C 
HETATM   21  C   UNK N   1      36.787  13.186  14.098  0.00  0.00     0.135 C 
HETATM   22  C   UNK N   1      35.860   8.964   4.607  0.00  0.00     0.176 C 
HETATM   23  C   UNK N   1      35.926  11.484   5.961  0.00  0.00     0.159 C 
HETATM   24  O   UNK N   1      33.799  11.029  11.085  0.00  0.00    -0.271 OA
HETATM   25  O   UNK N   1      36.706   9.866   9.066  0.00  0.00    -0.271 OA
HETATM   26  O   UNK N   1      33.606   8.312   4.767  0.00  0.00    -0.271 OA
HETATM   27  O   UNK N   1      34.950  11.679   2.476  0.00  0.00    -0.271 OA
HETATM   28  O   UNK N   1      37.574  13.856  11.110  0.00  0.00    -0.271 OA
HETATM   29  O   UNK N   1      33.582  11.950   7.435  0.00  0.00    -0.263 OA
HETATM   30  O   UNK N   1      37.105  13.830  15.086  0.00  0.00    -0.297 OA
HETATM   31  C   UNK N   1      33.905   7.051   7.110  0.00  0.00     0.127 C 
HETATM   32  C   UNK N   1      33.885   7.786   9.752  0.00  0.00     0.153 C 
HETATM   33  C   UNK N   1      36.258   6.777   7.770  0.00  0.00     0.037 C 
HETATM   34  C   UNK N   1      34.920   6.029   7.633  0.00  0.00     0.022 C 
HETATM   35  C   UNK N   1      37.368  11.567   5.482  0.00  0.00     0.042 C 
HETATM   36  H   UNK N   1      36.771  13.533   8.826  0.00  0.00     0.163 HD
HETATM   37  H   UNK N   1      35.655   9.365   2.554  0.00  0.00     0.163 HD
ENDROOT
BRANCH   9  38
HETATM   38  N   UNK N   1      34.422  13.117   4.717  0.00  0.00    -0.340 N 
HETATM   39  C   UNK N   1      33.120  13.493   4.636  0.00  0.00     0.271 C 
HETATM   40  O   UNK N   1      32.228  12.670   4.753  0.00  0.00    -0.266 OA
HETATM   41  H   UNK N   1      35.106  13.825   4.688  0.00  0.00     0.163 HD
BRANCH  39  42
HETATM   42  C   UNK N   1      32.791  14.897   4.320  0.00  0.00     0.134 A 
HETATM   43  N   UNK N   1      32.156  15.660   5.254  0.00  0.00    -0.359 N 
HETATM   44  C   UNK N   1      31.847  16.964   5.022  0.00  0.00     0.088 A 
ATOM     45  HN  UNK N   1      31.905  15.242   6.151  1.00  0.00     0.165 HD
HETATM   46  C   UNK N   1      32.196  17.564   3.813  0.00  0.00     0.020 A 
HETATM   47  C   UNK N   1      32.863  16.815   2.846  0.00  0.00     0.040 A 
HETATM   48  C   UNK N   1      33.162  15.476   3.089  0.00  0.00     0.098 A 
BRANCH  48  49
HETATM   49  O   UNK N   1      33.837  14.774   2.161  0.00  0.00    -0.358 OA
HETATM   50  H   UNK N   1      34.322  14.673   1.366  0.00  0.00     0.217 HD
ENDBRANCH  48  49
ENDBRANCH  39  42
ENDBRANCH   9  38
BRANCH  22  51
HETATM   51  C   UNK N   1      36.659   7.730   4.177  0.00  0.00     0.030 C 
HETATM   52  C   UNK N   1      38.144   7.852   4.504  0.00  0.00     0.007 C 
ENDBRANCH  22  51
BRANCH  18  53
HETATM   53  C   UNK N   1      34.026  14.462   9.150  0.00  0.00    -0.026 A 
HETATM   54  C   UNK N   1      34.693  15.606   8.702  0.00  0.00     0.010 A 
HETATM   55  C   UNK N   1      33.984  16.792   8.498  0.00  0.00     0.001 A 
HETATM   56  C   UNK N   1      32.605  16.831   8.727  0.00  0.00     0.000 A 
HETATM   57  C   UNK N   1      31.938  15.693   9.185  0.00  0.00     0.001 A 
HETATM   58  C   UNK N   1      32.645  14.509   9.388  0.00  0.00     0.010 A 
ENDBRANCH  18  53
BRANCH   6  59
HETATM   59  C   UNK N   1      36.491   8.568  11.840  0.00  0.00     0.073 C 
BRANCH  59  60
HETATM   60  C   UNK N   1      36.174   7.435  12.759  0.00  0.00    -0.056 A 
HETATM   61  C   UNK N   1      35.819   6.198  12.222  0.00  0.00     0.009 A 
HETATM   62  C   UNK N   1      35.380   5.172  13.062  0.00  0.00     0.030 A 
HETATM   63  C   UNK N   1      35.298   5.374  14.450  0.00  0.00     0.029 A 
HETATM   64  C   UNK N   1      35.688   6.613  14.983  0.00  0.00     0.030 A 
HETATM   65  C   UNK N   1      36.113   7.640  14.141  0.00  0.00     0.009 A 
BRANCH  63  66
HETATM   66  N   UNK N   1      34.798   4.344  15.301  0.00  0.00    -0.390 N 
HETATM   67  C   UNK N   1      35.165   4.297  16.694  0.00  0.00     0.149 C 
HETATM   68  C   UNK N   1      33.965   3.291  14.777  0.00  0.00     0.149 C 
ENDBRANCH  63  66
ENDBRANCH  59  60
ENDBRANCH   6  59
BRANCH  20  69
HETATM   69  C   UNK N   1      37.388  10.949  15.007  0.00  0.00     0.088 C 
BRANCH  69  70
HETATM   70  S   UNK N   1      35.708  10.752  15.689  0.00  0.00    -0.161 SA
BRANCH  70  71
HETATM   71  C   UNK N   1      36.373  10.461  17.359  0.00  0.00     0.079 C 
HETATM   72  C   UNK N   1      36.980   9.047  17.478  0.00  0.00     0.287 C 
HETATM   73  N   UNK N   1      36.504   8.364  18.698  0.00  0.00     0.089 N 
HETATM   74  C   UNK N   1      36.785   9.196  19.885  0.00  0.00     0.273 C 
HETATM   75  C   UNK N   1      35.047   8.171  18.588  0.00  0.00     0.273 C 
HETATM   76  C   UNK N   1      36.076  10.566  19.798  0.00  0.00     0.036 C 
HETATM   77  C   UNK N   1      35.327  10.665  18.468  0.00  0.00     0.004 C 
HETATM   78  C   UNK N   1      34.311   9.518  18.416  0.00  0.00     0.036 C 
ENDBRANCH  70  71
ENDBRANCH  69  70
ENDBRANCH  20  69
TORSDOF 11
ENDMDL
MODEL 9
REMARK VINA RESULT:      -7.5      5.158     10.625
REMARK  11 active torsions:
REMARK  status: ('A' for Active; 'I' for Inactive)
REMARK    1  A    between atoms: C_6  and  C_33 
REMARK    2  A    between atoms: C_9  and  N_16 
REMARK       I    between atoms: C_14  and  N_16 
REMARK    3  A    between atoms: C_18  and  C_14 
REMARK    4  A    between atoms: C_21  and  C_47 
REMARK    5  A    between atoms: C_35  and  C_23 
REMARK    6  A    between atoms: C_25  and  C_61 
REMARK    7  A    between atoms: C_30  and  S_31 
REMARK    8  A    between atoms: S_31  and  C_35 
REMARK    9  A    between atoms: C_56  and  C_33 
REMARK   10  A    between atoms: O_60  and  C_41 
REMARK   11  A    between atoms: N_45  and  C_43 
ROOT
HETATM    1  N   UNK N   1      35.729  14.392   8.738  0.00  0.00    -0.336 N 
HETATM    2  C   UNK N   1      37.069  14.061   8.794  0.00  0.00     0.243 C 
HETATM    3  N   UNK N   1      38.592  12.370   7.769  0.00  0.00    -0.341 N 
HETATM    4  C   UNK N   1      37.926  11.154   7.700  0.00  0.00     0.243 C 
HETATM    5  N   UNK N   1      39.656   9.341   8.366  0.00  0.00    -0.337 N 
HETATM    6  C   UNK N   1      37.907  13.652   7.594  0.00  0.00     0.183 C 
HETATM    7  C   UNK N   1      34.953  14.503   9.960  0.00  0.00     0.186 C 
HETATM    8  N   UNK N   1      34.625  12.100  10.546  0.00  0.00    -0.342 N 
HETATM    9  C   UNK N   1      37.358   7.860  11.369  0.00  0.00     0.206 C 
HETATM   10  C   UNK N   1      39.652   8.160   9.064  0.00  0.00     0.243 C 
HETATM   11  C   UNK N   1      34.104  13.247  10.038  0.00  0.00     0.242 C 
HETATM   12  C   UNK N   1      37.859   6.461  11.075  0.00  0.00     0.243 C 
HETATM   13  C   UNK N   1      36.592  10.814  11.212  0.00  0.00     0.286 C 
HETATM   14  N   UNK N   1      38.457   6.154   9.896  0.00  0.00    -0.346 N 
HETATM   15  C   UNK N   1      38.604   9.764   7.453  0.00  0.00     0.179 C 
HETATM   16  O   UNK N   1      36.005   9.768  10.579  0.00  0.00    -0.312 OA
HETATM   17  C   UNK N   1      34.978  14.419   7.495  0.00  0.00     0.139 C 
HETATM   18  C   UNK N   1      35.840  12.106  11.329  0.00  0.00     0.217 C 
HETATM   19  C   UNK N   1      34.143  15.792  10.018  0.00  0.00     0.113 C 
HETATM   20  C   UNK N   1      34.010  15.619   7.391  0.00  0.00     0.083 C 
HETATM   21  C   UNK N   1      33.570  16.223   8.706  0.00  0.00     0.135 C 
HETATM   22  C   UNK N   1      38.613   7.095   8.805  0.00  0.00     0.176 C 
HETATM   23  C   UNK N   1      36.620   8.590  10.213  0.00  0.00     0.159 C 
HETATM   24  O   UNK N   1      37.641  14.052   9.877  0.00  0.00    -0.271 OA
HETATM   25  O   UNK N   1      36.699  11.165   7.718  0.00  0.00    -0.271 OA
HETATM   26  O   UNK N   1      40.633   7.857   9.739  0.00  0.00    -0.271 OA
HETATM   27  O   UNK N   1      37.719   5.583  11.912  0.00  0.00    -0.271 OA
HETATM   28  O   UNK N   1      33.017  13.209   9.483  0.00  0.00    -0.271 OA
HETATM   29  O   UNK N   1      37.728  10.727  11.656  0.00  0.00    -0.263 OA
HETATM   30  O   UNK N   1      32.747  17.127   8.701  0.00  0.00    -0.297 OA
HETATM   31  C   UNK N   1      40.925   9.883   8.013  0.00  0.00     0.127 C 
HETATM   32  C   UNK N   1      40.022  12.467   7.846  0.00  0.00     0.153 C 
HETATM   33  C   UNK N   1      39.345   9.789   6.131  0.00  0.00     0.037 C 
HETATM   34  C   UNK N   1      40.830   9.987   6.486  0.00  0.00     0.022 C 
HETATM   35  C   UNK N   1      35.616   7.714   9.477  0.00  0.00     0.042 C 
HETATM   36  H   UNK N   1      34.164  11.247  10.378  0.00  0.00     0.163 HD
HETATM   37  H   UNK N   1      38.802   5.241   9.775  0.00  0.00     0.163 HD
ENDROOT
BRANCH   9  38
HETATM   38  N   UNK N   1      36.753   7.999  12.685  0.00  0.00    -0.340 N 
HETATM   39  C   UNK N   1      37.444   8.221  13.832  0.00  0.00     0.271 C 
HETATM   40  O   UNK N   1      38.650   8.405  13.804  0.00  0.00    -0.266 OA
HETATM   41  H   UNK N   1      35.773   7.927  12.747  0.00  0.00     0.163 HD
BRANCH  39  42
HETATM   42  C   UNK N   1      36.739   8.154  15.127  0.00  0.00     0.134 A 
HETATM   43  N   UNK N   1      36.131   6.992  15.498  0.00  0.00    -0.359 N 
HETATM   44  C   UNK N   1      35.485   6.871  16.688  0.00  0.00     0.088 A 
ATOM     45  HN  UNK N   1      36.161   6.192  14.865  1.00  0.00     0.165 HD
HETATM   46  C   UNK N   1      35.447   7.943  17.579  0.00  0.00     0.020 A 
HETATM   47  C   UNK N   1      36.075   9.138  17.236  0.00  0.00     0.040 A 
HETATM   48  C   UNK N   1      36.723   9.256  16.008  0.00  0.00     0.098 A 
BRANCH  48  49
HETATM   49  O   UNK N   1      37.356  10.404  15.704  0.00  0.00    -0.358 OA
HETATM   50  H   UNK N   1      37.790  11.208  15.909  0.00  0.00     0.217 HD
ENDBRANCH  48  49
ENDBRANCH  39  42
ENDBRANCH   9  38
BRANCH  22  51
HETATM   51  C   UNK N   1      38.965   6.339   7.521  0.00  0.00     0.030 C 
HETATM   52  C   UNK N   1      37.780   6.224   6.568  0.00  0.00     0.007 C 
ENDBRANCH  22  51
BRANCH  18  53
HETATM   53  C   UNK N   1      35.417  12.453  12.719  0.00  0.00    -0.026 A 
HETATM   54  C   UNK N   1      34.514  11.628  13.398  0.00  0.00     0.010 A 
HETATM   55  C   UNK N   1      34.296  11.809  14.766  0.00  0.00     0.001 A 
HETATM   56  C   UNK N   1      34.992  12.804  15.459  0.00  0.00     0.000 A 
HETATM   57  C   UNK N   1      35.886  13.635  14.781  0.00  0.00     0.001 A 
HETATM   58  C   UNK N   1      36.104  13.455  13.416  0.00  0.00     0.010 A 
ENDBRANCH  18  53
BRANCH   6  59
HETATM   59  C   UNK N   1      37.313  13.750   6.179  0.00  0.00     0.073 C 
BRANCH  59  60
HETATM   60  C   UNK N   1      38.409  13.793   5.166  0.00  0.00    -0.056 A 
HETATM   61  C   UNK N   1      38.477  12.798   4.191  0.00  0.00     0.009 A 
HETATM   62  C   UNK N   1      39.573  12.741   3.327  0.00  0.00     0.030 A 
HETATM   63  C   UNK N   1      40.611  13.682   3.430  0.00  0.00     0.029 A 
HETATM   64  C   UNK N   1      40.517  14.698   4.395  0.00  0.00     0.030 A 
HETATM   65  C   UNK N   1      39.428  14.746   5.264  0.00  0.00     0.009 A 
BRANCH  63  66
HETATM   66  N   UNK N   1      41.756  13.591   2.584  0.00  0.00    -0.390 N 
HETATM   67  C   UNK N   1      42.864  12.738   2.932  0.00  0.00     0.149 C 
HETATM   68  C   UNK N   1      41.860  14.396   1.392  0.00  0.00     0.149 C 
ENDBRANCH  63  66
ENDBRANCH  59  60
ENDBRANCH   6  59
BRANCH  20  69
HETATM   69  C   UNK N   1      34.544  16.709   6.469  0.00  0.00     0.088 C 
BRANCH  69  70
HETATM   70  S   UNK N   1      33.304  17.483   5.378  0.00  0.00    -0.161 SA
BRANCH  70  71
HETATM   71  C   UNK N   1      32.429  15.899   5.176  0.00  0.00     0.079 C 
HETATM   72  C   UNK N   1      32.588  15.355   3.741  0.00  0.00     0.287 C 
HETATM   73  N   UNK N   1      31.287  14.933   3.183  0.00  0.00     0.089 N 
HETATM   74  C   UNK N   1      30.644  13.956   4.085  0.00  0.00     0.273 C 
HETATM   75  C   UNK N   1      30.419  16.119   3.073  0.00  0.00     0.273 C 
HETATM   76  C   UNK N   1      30.391  14.558   5.486  0.00  0.00     0.036 C 
HETATM   77  C   UNK N   1      30.935  15.987   5.529  0.00  0.00     0.004 C 
HETATM   78  C   UNK N   1      30.211  16.796   4.446  0.00  0.00     0.036 C 
ENDBRANCH  70  71
ENDBRANCH  69  70
ENDBRANCH  20  69
TORSDOF 11
ENDMDL
