REMARK  11 active torsions:
REMARK  status: ('A' for Active; 'I' for Inactive)
REMARK    1  A    between atoms: O_1  and  C_2 
REMARK    2  A    between atoms: C_2  and  C_3 
REMARK    3  A    between atoms: C_3  and  O_4 
REMARK    4  A    between atoms: C_3  and  C_5 
REMARK    5  A    between atoms: C_5  and  O_6 
REMARK    6  A    between atoms: C_5  and  C_7 
REMARK    7  A    between atoms: C_7  and  O_8 
REMARK    8  A    between atoms: C_7  and  C_9 
REMARK    9  A    between atoms: C_9  and  O_10 
REMARK   10  A    between atoms: C_9  and  C_11 
REMARK   11  A    between atoms: C_11  and  O_12 
ROOT
HETATM    1  C   UNK N   1       2.785   1.748  -0.835  0.00  0.00     0.180 C 
ENDROOT
BRANCH   1   2
HETATM    2  C   UNK N   1       2.041   1.140   0.368  0.00  0.00     0.173 C 
BRANCH   2   3
HETATM    3  C   UNK N   1       0.533   1.319   0.234  0.00  0.00     0.198 C 
BRANCH   3   4
HETATM    4  O   UNK N   1       0.173   2.654   0.419  0.00  0.00    -0.398 OA
HETATM    5  H   UNK N   1       0.851   3.335   0.548  0.00  0.00     0.209 HD
ENDBRANCH   3   4
ENDBRANCH   2   3
BRANCH   2   6
HETATM    6  O   UNK N   1       2.302  -0.230   0.450  0.00  0.00    -0.391 OA
HETATM    7  H   UNK N   1       1.569  -0.862   0.507  0.00  0.00     0.210 HD
ENDBRANCH   2   6
ENDBRANCH   1   2
BRANCH   1   8
HETATM    8  O   UNK N   1       2.508   3.115  -0.946  0.00  0.00    -0.390 OA
HETATM    9  H   UNK N   1       3.233   3.755  -1.023  0.00  0.00     0.210 HD
ENDBRANCH   1   8
BRANCH   1  10
HETATM   10  C   UNK N   1       4.309   1.523  -0.834  0.00  0.00     0.180 C 
BRANCH  10  11
HETATM   11  O   UNK N   1       4.585   0.156  -0.946  0.00  0.00    -0.390 OA
HETATM   12  H   UNK N   1       3.860  -0.484  -1.023  0.00  0.00     0.210 HD
ENDBRANCH  10  11
BRANCH  10  13
HETATM   13  C   UNK N   1       5.052   2.130   0.368  0.00  0.00     0.173 C 
BRANCH  13  14
HETATM   14  O   UNK N   1       4.792   3.500   0.450  0.00  0.00    -0.391 OA
HETATM   15  H   UNK N   1       5.525   4.132   0.508  0.00  0.00     0.210 HD
ENDBRANCH  13  14
BRANCH  13  16
HETATM   16  C   UNK N   1       6.561   1.952   0.235  0.00  0.00     0.198 C 
BRANCH  16  17
HETATM   17  O   UNK N   1       6.921   0.616   0.420  0.00  0.00    -0.398 OA
HETATM   18  H   UNK N   1       6.242  -0.065   0.548  0.00  0.00     0.209 HD
ENDBRANCH  16  17
ENDBRANCH  13  16
ENDBRANCH  10  13
ENDBRANCH   1  10
TORSDOF 11
