MODEL 1
REMARK VINA RESULT:      -7.4      0.000      0.000
REMARK  3 active torsions:
REMARK  status: ('A' for Active; 'I' for Inactive)
REMARK    1  A    between atoms: O_1  and  C_9 
REMARK    2  A    between atoms: C_10  and  O_1 
REMARK       I    between atoms: N_3  and  C_9 
REMARK    3  A    between atoms: C_5  and  C_8 
ROOT
HETATM    1  O   UNK N   1      34.672  16.319   6.738  0.00  0.00    -0.238 OA
HETATM    2  N   UNK N   1      32.756  17.288   7.416  0.00  0.00    -0.315 N 
HETATM    3  C   UNK N   1      32.004  17.078   6.165  0.00  0.00     0.156 C 
HETATM    4  C   UNK N   1      30.508  17.301   6.261  0.00  0.00    -0.024 A 
HETATM    5  C   UNK N   1      29.911  17.547   7.515  0.00  0.00    -0.048 A 
HETATM    6  C   UNK N   1      34.046  16.876   7.624  0.00  0.00     0.364 C 
HETATM    7  C   UNK N   1      32.115  18.055   8.470  0.00  0.00     0.134 C 
HETATM    8  C   UNK N   1      30.733  17.500   8.762  0.00  0.00     0.059 C 
HETATM    9  C   UNK N   1      29.716  17.332   5.106  0.00  0.00     0.010 A 
HETATM   10  C   UNK N   1      28.545  17.836   7.597  0.00  0.00     0.008 A 
HETATM   11  C   UNK N   1      28.348  17.607   5.195  0.00  0.00     0.001 A 
HETATM   12  C   UNK N   1      27.766  17.869   6.439  0.00  0.00     0.001 A 
ENDROOT
BRANCH   3  13
HETATM   13  C   UNK N   1      32.517  16.154   5.087  0.00  0.00    -0.031 A 
HETATM   14  C   UNK N   1      32.455  14.757   5.215  0.00  0.00     0.009 A 
HETATM   15  C   UNK N   1      32.958  13.938   4.196  0.00  0.00     0.001 A 
HETATM   16  C   UNK N   1      33.503  14.510   3.041  0.00  0.00     0.000 A 
HETATM   17  C   UNK N   1      33.546  15.899   2.903  0.00  0.00     0.001 A 
HETATM   18  C   UNK N   1      33.057  16.716   3.925  0.00  0.00     0.009 A 
ENDBRANCH   3  13
BRANCH   6  19
HETATM   19  O   UNK N   1      34.623  17.104   8.839  0.00  0.00    -0.296 OA
BRANCH  19  20
HETATM   20  C   UNK N   1      34.716  16.292   9.963  0.00  0.00     0.166 C 
HETATM   21  C   UNK N   1      36.104  15.771  10.393  0.00  0.00     0.020 C 
HETATM   22  C   UNK N   1      35.902  15.120  11.768  0.00  0.00     0.037 C 
HETATM   23  C   UNK N   1      36.555  14.651   9.443  0.00  0.00     0.037 C 
HETATM   24  C   UNK N   1      34.838  14.001  11.665  0.00  0.00     0.273 C 
HETATM   25  N   UNK N   1      34.350  13.848  10.281  0.00  0.00     0.090 N 
HETATM   26  C   UNK N   1      33.732  15.110   9.834  0.00  0.00     0.305 C 
HETATM   27  C   UNK N   1      35.489  13.538   9.399  0.00  0.00     0.273 C 
ENDBRANCH  19  20
ENDBRANCH   6  19
TORSDOF 3
ENDMDL
MODEL 2
REMARK VINA RESULT:      -7.3      6.073     11.064
REMARK  3 active torsions:
REMARK  status: ('A' for Active; 'I' for Inactive)
REMARK    1  A    between atoms: O_1  and  C_9 
REMARK    2  A    between atoms: C_10  and  O_1 
REMARK       I    between atoms: N_3  and  C_9 
REMARK    3  A    between atoms: C_5  and  C_8 
ROOT
HETATM    1  O   UNK N   1      35.812   9.621  13.230  0.00  0.00    -0.238 OA
HETATM    2  N   UNK N   1      35.095  11.117  14.753  0.00  0.00    -0.315 N 
HETATM    3  C   UNK N   1      35.475  10.341  15.948  0.00  0.00     0.156 C 
HETATM    4  C   UNK N   1      35.465  11.112  17.254  0.00  0.00    -0.024 A 
HETATM    5  C   UNK N   1      35.244  12.504  17.248  0.00  0.00    -0.048 A 
HETATM    6  C   UNK N   1      35.307  10.706  13.464  0.00  0.00     0.364 C 
HETATM    7  C   UNK N   1      34.376  12.362  14.956  0.00  0.00     0.134 C 
HETATM    8  C   UNK N   1      35.108  13.240  15.954  0.00  0.00     0.059 C 
HETATM    9  C   UNK N   1      35.606  10.444  18.477  0.00  0.00     0.010 A 
HETATM   10  C   UNK N   1      35.150  13.205  18.455  0.00  0.00     0.008 A 
HETATM   11  C   UNK N   1      35.527  11.152  19.681  0.00  0.00     0.001 A 
HETATM   12  C   UNK N   1      35.289  12.529  19.669  0.00  0.00     0.001 A 
ENDROOT
BRANCH   3  13
HETATM   13  C   UNK N   1      36.369   9.128  15.847  0.00  0.00    -0.031 A 
HETATM   14  C   UNK N   1      37.763   9.242  15.726  0.00  0.00     0.009 A 
HETATM   15  C   UNK N   1      38.552   8.090  15.618  0.00  0.00     0.001 A 
HETATM   16  C   UNK N   1      37.956   6.825  15.650  0.00  0.00     0.000 A 
HETATM   17  C   UNK N   1      36.571   6.710  15.792  0.00  0.00     0.001 A 
HETATM   18  C   UNK N   1      35.782   7.858  15.886  0.00  0.00     0.009 A 
ENDBRANCH   3  13
BRANCH   6  19
HETATM   19  O   UNK N   1      34.937  11.530  12.441  0.00  0.00    -0.296 OA
BRANCH  19  20
HETATM   20  C   UNK N   1      35.706  12.221  11.513  0.00  0.00     0.166 C 
HETATM   21  C   UNK N   1      36.862  13.111  12.016  0.00  0.00     0.020 C 
HETATM   22  C   UNK N   1      37.645  13.532  10.766  0.00  0.00     0.037 C 
HETATM   23  C   UNK N   1      36.294  14.399  12.630  0.00  0.00     0.037 C 
HETATM   24  C   UNK N   1      36.701  14.262   9.780  0.00  0.00     0.273 C 
HETATM   25  N   UNK N   1      35.337  14.382  10.329  0.00  0.00     0.090 N 
HETATM   26  C   UNK N   1      34.787  13.036  10.580  0.00  0.00     0.305 C 
HETATM   27  C   UNK N   1      35.393  15.117  11.605  0.00  0.00     0.273 C 
ENDBRANCH  19  20
ENDBRANCH   6  19
TORSDOF 3
ENDMDL
MODEL 3
REMARK VINA RESULT:      -7.3      2.456      3.657
REMARK  3 active torsions:
REMARK  status: ('A' for Active; 'I' for Inactive)
REMARK    1  A    between atoms: O_1  and  C_9 
REMARK    2  A    between atoms: C_10  and  O_1 
REMARK       I    between atoms: N_3  and  C_9 
REMARK    3  A    between atoms: C_5  and  C_8 
ROOT
HETATM    1  O   UNK N   1      30.656  15.476   6.192  0.00  0.00    -0.238 OA
HETATM    2  N   UNK N   1      29.806  17.447   6.876  0.00  0.00    -0.315 N 
HETATM    3  C   UNK N   1      29.164  17.809   5.599  0.00  0.00     0.156 C 
HETATM    4  C   UNK N   1      28.174  18.955   5.673  0.00  0.00    -0.024 A 
HETATM    5  C   UNK N   1      27.821  19.502   6.923  0.00  0.00    -0.048 A 
HETATM    6  C   UNK N   1      30.501  16.286   7.091  0.00  0.00     0.364 C 
HETATM    7  C   UNK N   1      29.770  18.421   7.952  0.00  0.00     0.134 C 
HETATM    8  C   UNK N   1      28.349  18.899   8.185  0.00  0.00     0.059 C 
HETATM    9  C   UNK N   1      27.654  19.525   4.503  0.00  0.00     0.010 A 
HETATM   10  C   UNK N   1      26.973  20.613   6.990  0.00  0.00     0.008 A 
HETATM   11  C   UNK N   1      26.795  20.626   4.576  0.00  0.00     0.001 A 
HETATM   12  C   UNK N   1      26.464  21.175   5.817  0.00  0.00     0.001 A 
ENDROOT
BRANCH   3  13
HETATM   13  C   UNK N   1      29.002  16.802   4.487  0.00  0.00    -0.031 A 
HETATM   14  C   UNK N   1      29.933  16.694   3.442  0.00  0.00     0.009 A 
HETATM   15  C   UNK N   1      29.735  15.755   2.422  0.00  0.00     0.001 A 
HETATM   16  C   UNK N   1      28.619  14.911   2.452  0.00  0.00     0.000 A 
HETATM   17  C   UNK N   1      27.703  15.003   3.502  0.00  0.00     0.001 A 
HETATM   18  C   UNK N   1      27.893  15.948   4.513  0.00  0.00     0.009 A 
ENDBRANCH   3  13
BRANCH   6  19
HETATM   19  O   UNK N   1      31.025  16.052   8.329  0.00  0.00    -0.296 OA
BRANCH  19  20
HETATM   20  C   UNK N   1      32.344  16.052   8.767  0.00  0.00     0.166 C 
HETATM   21  C   UNK N   1      33.217  17.298   8.506  0.00  0.00     0.020 C 
HETATM   22  C   UNK N   1      34.510  17.081   9.303  0.00  0.00     0.037 C 
HETATM   23  C   UNK N   1      33.621  17.346   7.024  0.00  0.00     0.037 C 
HETATM   24  C   UNK N   1      35.184  15.762   8.856  0.00  0.00     0.273 C 
HETATM   25  N   UNK N   1      34.425  15.109   7.772  0.00  0.00     0.090 N 
HETATM   26  C   UNK N   1      33.066  14.791   8.247  0.00  0.00     0.305 C 
HETATM   27  C   UNK N   1      34.325  16.032   6.628  0.00  0.00     0.273 C 
ENDBRANCH  19  20
ENDBRANCH   6  19
TORSDOF 3
ENDMDL
MODEL 4
REMARK VINA RESULT:      -7.3      2.612      7.870
REMARK  3 active torsions:
REMARK  status: ('A' for Active; 'I' for Inactive)
REMARK    1  A    between atoms: O_1  and  C_9 
REMARK    2  A    between atoms: C_10  and  O_1 
REMARK       I    between atoms: N_3  and  C_9 
REMARK    3  A    between atoms: C_5  and  C_8 
ROOT
HETATM    1  O   UNK N   1      36.448  13.999   8.206  0.00  0.00    -0.238 OA
HETATM    2  N   UNK N   1      35.876  14.192  10.376  0.00  0.00    -0.315 N 
HETATM    3  C   UNK N   1      36.643  13.029  10.860  0.00  0.00     0.156 C 
HETATM    4  C   UNK N   1      36.815  12.945  12.364  0.00  0.00    -0.024 A 
HETATM    5  C   UNK N   1      36.378  14.006  13.183  0.00  0.00    -0.048 A 
HETATM    6  C   UNK N   1      35.844  14.610   9.072  0.00  0.00     0.364 C 
HETATM    7  C   UNK N   1      35.033  14.891  11.330  0.00  0.00     0.134 C 
HETATM    8  C   UNK N   1      35.828  15.254  12.571  0.00  0.00     0.059 C 
HETATM    9  C   UNK N   1      37.343  11.791  12.958  0.00  0.00     0.010 A 
HETATM   10  C   UNK N   1      36.457  13.896  14.576  0.00  0.00     0.008 A 
HETATM   11  C   UNK N   1      37.434  11.693  14.350  0.00  0.00     0.001 A 
HETATM   12  C   UNK N   1      36.982  12.740  15.157  0.00  0.00     0.001 A 
ENDROOT
BRANCH   3  13
HETATM   13  C   UNK N   1      37.672  12.348   9.989  0.00  0.00    -0.031 A 
HETATM   14  C   UNK N   1      38.975  12.851   9.848  0.00  0.00     0.009 A 
HETATM   15  C   UNK N   1      39.891  12.196   9.017  0.00  0.00     0.001 A 
HETATM   16  C   UNK N   1      39.517  11.029   8.341  0.00  0.00     0.000 A 
HETATM   17  C   UNK N   1      38.227  10.516   8.497  0.00  0.00     0.001 A 
HETATM   18  C   UNK N   1      37.308  11.177   9.315  0.00  0.00     0.009 A 
ENDBRANCH   3  13
BRANCH   6  19
HETATM   19  O   UNK N   1      35.118  15.720   8.754  0.00  0.00    -0.296 OA
BRANCH  19  20
HETATM   20  C   UNK N   1      34.336  16.001   7.640  0.00  0.00     0.166 C 
HETATM   21  C   UNK N   1      34.213  17.464   7.164  0.00  0.00     0.020 C 
HETATM   22  C   UNK N   1      33.497  17.408   5.808  0.00  0.00     0.037 C 
HETATM   23  C   UNK N   1      33.289  18.242   8.114  0.00  0.00     0.037 C 
HETATM   24  C   UNK N   1      32.128  16.703   5.970  0.00  0.00     0.273 C 
HETATM   25  N   UNK N   1      31.880  16.324   7.374  0.00  0.00     0.090 N 
HETATM   26  C   UNK N   1      32.930  15.392   7.824  0.00  0.00     0.305 C 
HETATM   27  C   UNK N   1      31.923  17.532   8.216  0.00  0.00     0.273 C 
ENDBRANCH  19  20
ENDBRANCH   6  19
TORSDOF 3
ENDMDL
MODEL 5
REMARK VINA RESULT:      -7.2      5.004     10.226
REMARK  3 active torsions:
REMARK  status: ('A' for Active; 'I' for Inactive)
REMARK    1  A    between atoms: O_1  and  C_9 
REMARK    2  A    between atoms: C_10  and  O_1 
REMARK       I    between atoms: N_3  and  C_9 
REMARK    3  A    between atoms: C_5  and  C_8 
ROOT
HETATM    1  O   UNK N   1      37.117  10.797  12.441  0.00  0.00    -0.238 OA
HETATM    2  N   UNK N   1      36.368  12.358  13.882  0.00  0.00    -0.315 N 
HETATM    3  C   UNK N   1      36.070  11.436  14.994  0.00  0.00     0.156 C 
HETATM    4  C   UNK N   1      35.824  12.097  16.337  0.00  0.00    -0.024 A 
HETATM    5  C   UNK N   1      36.022  13.484  16.486  0.00  0.00    -0.048 A 
HETATM    6  C   UNK N   1      36.891  11.973  12.676  0.00  0.00     0.364 C 
HETATM    7  C   UNK N   1      36.007  13.755  14.046  0.00  0.00     0.134 C 
HETATM    8  C   UNK N   1      36.562  14.295  15.351  0.00  0.00     0.059 C 
HETATM    9  C   UNK N   1      35.334  11.353  17.418  0.00  0.00     0.010 A 
HETATM   10  C   UNK N   1      35.716  14.111  17.698  0.00  0.00     0.008 A 
HETATM   11  C   UNK N   1      35.043  11.982  18.633  0.00  0.00     0.001 A 
HETATM   12  C   UNK N   1      35.224  13.361  18.769  0.00  0.00     0.001 A 
ENDROOT
BRANCH   3  13
HETATM   13  C   UNK N   1      36.561  10.008  14.985  0.00  0.00    -0.031 A 
HETATM   14  C   UNK N   1      37.880   9.675  15.331  0.00  0.00     0.009 A 
HETATM   15  C   UNK N   1      38.296   8.338  15.292  0.00  0.00     0.001 A 
HETATM   16  C   UNK N   1      37.394   7.332  14.929  0.00  0.00     0.000 A 
HETATM   17  C   UNK N   1      36.076   7.661  14.605  0.00  0.00     0.001 A 
HETATM   18  C   UNK N   1      35.663   8.995  14.630  0.00  0.00     0.009 A 
ENDBRANCH   3  13
BRANCH   6  19
HETATM   19  O   UNK N   1      37.151  12.926  11.736  0.00  0.00    -0.296 OA
BRANCH  19  20
HETATM   20  C   UNK N   1      36.507  13.214  10.538  0.00  0.00     0.166 C 
HETATM   21  C   UNK N   1      36.715  14.602   9.895  0.00  0.00     0.020 C 
HETATM   22  C   UNK N   1      36.080  14.519   8.501  0.00  0.00     0.037 C 
HETATM   23  C   UNK N   1      35.919  15.659  10.675  0.00  0.00     0.037 C 
HETATM   24  C   UNK N   1      34.589  14.125   8.628  0.00  0.00     0.273 C 
HETATM   25  N   UNK N   1      34.189  13.980  10.041  0.00  0.00     0.090 N 
HETATM   26  C   UNK N   1      34.998  12.923  10.676  0.00  0.00     0.305 C 
HETATM   27  C   UNK N   1      34.433  15.252  10.745  0.00  0.00     0.273 C 
ENDBRANCH  19  20
ENDBRANCH   6  19
TORSDOF 3
ENDMDL
MODEL 6
REMARK VINA RESULT:      -7.1     13.123     15.989
REMARK  3 active torsions:
REMARK  status: ('A' for Active; 'I' for Inactive)
REMARK    1  A    between atoms: O_1  and  C_9 
REMARK    2  A    between atoms: C_10  and  O_1 
REMARK       I    between atoms: N_3  and  C_9 
REMARK    3  A    between atoms: C_5  and  C_8 
ROOT
HETATM    1  O   UNK N   1      29.078  22.589  -7.368  0.00  0.00    -0.238 OA
HETATM    2  N   UNK N   1      28.792  24.501  -6.213  0.00  0.00    -0.315 N 
HETATM    3  C   UNK N   1      27.397  24.745  -6.626  0.00  0.00     0.156 C 
HETATM    4  C   UNK N   1      26.656  25.795  -5.823  0.00  0.00    -0.024 A 
HETATM    5  C   UNK N   1      27.256  26.362  -4.681  0.00  0.00    -0.048 A 
HETATM    6  C   UNK N   1      29.538  23.421  -6.603  0.00  0.00     0.364 C 
HETATM    7  C   UNK N   1      29.444  25.515  -5.403  0.00  0.00     0.134 C 
HETATM    8  C   UNK N   1      28.584  25.868  -4.204  0.00  0.00     0.059 C 
HETATM    9  C   UNK N   1      25.403  26.261  -6.243  0.00  0.00     0.010 A 
HETATM   10  C   UNK N   1      26.612  27.391  -3.986  0.00  0.00     0.008 A 
HETATM   11  C   UNK N   1      24.756  27.280  -5.537  0.00  0.00     0.001 A 
HETATM   12  C   UNK N   1      25.364  27.851  -4.416  0.00  0.00     0.001 A 
ENDROOT
BRANCH   3  13
HETATM   13  C   UNK N   1      26.585  23.677  -7.320  0.00  0.00    -0.031 A 
HETATM   14  C   UNK N   1      25.864  22.710  -6.602  0.00  0.00     0.009 A 
HETATM   15  C   UNK N   1      25.137  21.728  -7.288  0.00  0.00     0.001 A 
HETATM   16  C   UNK N   1      25.113  21.722  -8.686  0.00  0.00     0.000 A 
HETATM   17  C   UNK N   1      25.813  22.696  -9.401  0.00  0.00     0.001 A 
HETATM   18  C   UNK N   1      26.549  23.667  -8.719  0.00  0.00     0.009 A 
ENDBRANCH   3  13
BRANCH   6  19
HETATM   19  O   UNK N   1      30.810  23.292  -6.128  0.00  0.00    -0.296 OA
BRANCH  19  20
HETATM   20  C   UNK N   1      31.514  22.165  -5.723  0.00  0.00     0.166 C 
HETATM   21  C   UNK N   1      30.762  21.045  -4.971  0.00  0.00     0.020 C 
HETATM   22  C   UNK N   1      31.742  19.868  -4.879  0.00  0.00     0.037 C 
HETATM   23  C   UNK N   1      30.479  21.490  -3.528  0.00  0.00     0.037 C 
HETATM   24  C   UNK N   1      33.036  20.319  -4.161  0.00  0.00     0.273 C 
HETATM   25  N   UNK N   1      32.951  21.729  -3.734  0.00  0.00     0.090 N 
HETATM   26  C   UNK N   1      32.759  22.590  -4.916  0.00  0.00     0.305 C 
HETATM   27  C   UNK N   1      31.796  21.893  -2.834  0.00  0.00     0.273 C 
ENDBRANCH  19  20
ENDBRANCH   6  19
TORSDOF 3
ENDMDL
MODEL 7
REMARK VINA RESULT:      -7.1      4.069      9.965
REMARK  3 active torsions:
REMARK  status: ('A' for Active; 'I' for Inactive)
REMARK    1  A    between atoms: O_1  and  C_9 
REMARK    2  A    between atoms: C_10  and  O_1 
REMARK       I    between atoms: N_3  and  C_9 
REMARK    3  A    between atoms: C_5  and  C_8 
ROOT
HETATM    1  O   UNK N   1      34.984  14.206  12.907  0.00  0.00    -0.238 OA
HETATM    2  N   UNK N   1      36.282  12.528  12.153  0.00  0.00    -0.315 N 
HETATM    3  C   UNK N   1      36.881  12.175  13.453  0.00  0.00     0.156 C 
HETATM    4  C   UNK N   1      37.615  10.849  13.492  0.00  0.00    -0.024 A 
HETATM    5  C   UNK N   1      37.572   9.987  12.378  0.00  0.00    -0.048 A 
HETATM    6  C   UNK N   1      35.353  13.518  11.970  0.00  0.00     0.364 C 
HETATM    7  C   UNK N   1      36.770  11.834  10.973  0.00  0.00     0.134 C 
HETATM    8  C   UNK N   1      36.732  10.332  11.190  0.00  0.00     0.059 C 
HETATM    9  C   UNK N   1      38.395  10.498  14.602  0.00  0.00     0.010 A 
HETATM   10  C   UNK N   1      38.316   8.802  12.377  0.00  0.00     0.008 A 
HETATM   11  C   UNK N   1      39.126   9.305  14.603  0.00  0.00     0.001 A 
HETATM   12  C   UNK N   1      39.094   8.464  13.487  0.00  0.00     0.001 A 
ENDROOT
BRANCH   3  13
HETATM   13  C   UNK N   1      36.323  12.716  14.748  0.00  0.00    -0.031 A 
HETATM   14  C   UNK N   1      35.216  12.130  15.381  0.00  0.00     0.009 A 
HETATM   15  C   UNK N   1      34.722  12.675  16.573  0.00  0.00     0.001 A 
HETATM   16  C   UNK N   1      35.342  13.791  17.144  0.00  0.00     0.000 A 
HETATM   17  C   UNK N   1      36.457  14.363  16.526  0.00  0.00     0.001 A 
HETATM   18  C   UNK N   1      36.942  13.828  15.331  0.00  0.00     0.009 A 
ENDBRANCH   3  13
BRANCH   6  19
HETATM   19  O   UNK N   1      34.852  13.728  10.720  0.00  0.00    -0.296 OA
BRANCH  19  20
HETATM   20  C   UNK N   1      34.069  14.763  10.222  0.00  0.00     0.166 C 
HETATM   21  C   UNK N   1      33.084  14.466   9.071  0.00  0.00     0.020 C 
HETATM   22  C   UNK N   1      32.222  15.726   8.918  0.00  0.00     0.037 C 
HETATM   23  C   UNK N   1      33.860  14.307   7.754  0.00  0.00     0.037 C 
HETATM   24  C   UNK N   1      33.128  16.950   8.643  0.00  0.00     0.273 C 
HETATM   25  N   UNK N   1      34.550  16.560   8.565  0.00  0.00     0.090 N 
HETATM   26  C   UNK N   1      34.966  15.960   9.846  0.00  0.00     0.305 C 
HETATM   27  C   UNK N   1      34.719  15.562   7.495  0.00  0.00     0.273 C 
ENDBRANCH  19  20
ENDBRANCH   6  19
TORSDOF 3
ENDMDL
MODEL 8
REMARK VINA RESULT:      -7.0     14.520     17.372
REMARK  3 active torsions:
REMARK  status: ('A' for Active; 'I' for Inactive)
REMARK    1  A    between atoms: O_1  and  C_9 
REMARK    2  A    between atoms: C_10  and  O_1 
REMARK       I    between atoms: N_3  and  C_9 
REMARK    3  A    between atoms: C_5  and  C_8 
ROOT
HETATM    1  O   UNK N   1      25.634  24.643  -6.583  0.00  0.00    -0.238 OA
HETATM    2  N   UNK N   1      27.388  23.992  -5.329  0.00  0.00    -0.315 N 
HETATM    3  C   UNK N   1      27.783  22.845  -6.167  0.00  0.00     0.156 C 
HETATM    4  C   UNK N   1      29.153  22.266  -5.872  0.00  0.00    -0.024 A 
HETATM    5  C   UNK N   1      30.006  22.908  -4.952  0.00  0.00    -0.048 A 
HETATM    6  C   UNK N   1      26.340  24.830  -5.606  0.00  0.00     0.364 C 
HETATM    7  C   UNK N   1      28.106  24.199  -4.084  0.00  0.00     0.134 C 
HETATM    8  C   UNK N   1      29.603  24.208  -4.332  0.00  0.00     0.059 C 
HETATM    9  C   UNK N   1      29.556  21.057  -6.455  0.00  0.00     0.010 A 
HETATM   10  C   UNK N   1      31.235  22.332  -4.614  0.00  0.00     0.008 A 
HETATM   11  C   UNK N   1      30.793  20.493  -6.125  0.00  0.00     0.001 A 
HETATM   12  C   UNK N   1      31.626  21.125  -5.198  0.00  0.00     0.001 A 
ENDROOT
BRANCH   3  13
HETATM   13  C   UNK N   1      27.213  22.651  -7.552  0.00  0.00    -0.031 A 
HETATM   14  C   UNK N   1      26.151  21.767  -7.800  0.00  0.00     0.009 A 
HETATM   15  C   UNK N   1      25.664  21.607  -9.104  0.00  0.00     0.001 A 
HETATM   16  C   UNK N   1      26.223  22.339 -10.156  0.00  0.00     0.000 A 
HETATM   17  C   UNK N   1      27.266  23.234  -9.908  0.00  0.00     0.001 A 
HETATM   18  C   UNK N   1      27.760  23.385  -8.610  0.00  0.00     0.009 A 
ENDBRANCH   3  13
BRANCH   6  19
HETATM   19  O   UNK N   1      26.093  25.876  -4.767  0.00  0.00    -0.296 OA
BRANCH  19  20
HETATM   20  C   UNK N   1      26.257  27.244  -4.954  0.00  0.00     0.166 C 
HETATM   21  C   UNK N   1      27.670  27.794  -5.238  0.00  0.00     0.020 C 
HETATM   22  C   UNK N   1      27.479  29.267  -5.624  0.00  0.00     0.037 C 
HETATM   23  C   UNK N   1      28.499  27.787  -3.944  0.00  0.00     0.037 C 
HETATM   24  C   UNK N   1      26.752  30.017  -4.482  0.00  0.00     0.273 C 
HETATM   25  N   UNK N   1      26.486  29.125  -3.337  0.00  0.00     0.090 N 
HETATM   26  C   UNK N   1      25.626  28.009  -3.772  0.00  0.00     0.305 C 
HETATM   27  C   UNK N   1      27.762  28.578  -2.844  0.00  0.00     0.273 C 
ENDBRANCH  19  20
ENDBRANCH   6  19
TORSDOF 3
ENDMDL
MODEL 9
REMARK VINA RESULT:      -7.0     13.031     16.583
REMARK  3 active torsions:
REMARK  status: ('A' for Active; 'I' for Inactive)
REMARK    1  A    between atoms: O_1  and  C_9 
REMARK    2  A    between atoms: C_10  and  O_1 
REMARK       I    between atoms: N_3  and  C_9 
REMARK    3  A    between atoms: C_5  and  C_8 
ROOT
HETATM    1  O   UNK N   1      27.089  24.280  -5.810  0.00  0.00    -0.238 OA
HETATM    2  N   UNK N   1      28.556  23.457  -4.313  0.00  0.00    -0.315 N 
HETATM    3  C   UNK N   1      29.204  22.492  -5.220  0.00  0.00     0.156 C 
HETATM    4  C   UNK N   1      30.509  21.904  -4.719  0.00  0.00    -0.024 A 
HETATM    5  C   UNK N   1      31.089  22.389  -3.530  0.00  0.00    -0.048 A 
HETATM    6  C   UNK N   1      27.544  24.304  -4.679  0.00  0.00     0.364 C 
HETATM    7  C   UNK N   1      28.962  23.452  -2.919  0.00  0.00     0.134 C 
HETATM    8  C   UNK N   1      30.473  23.544  -2.807  0.00  0.00     0.059 C 
HETATM    9  C   UNK N   1      31.112  20.832  -5.390  0.00  0.00     0.010 A 
HETATM   10  C   UNK N   1      32.247  21.793  -3.019  0.00  0.00     0.008 A 
HETATM   11  C   UNK N   1      32.278  20.249  -4.883  0.00  0.00     0.001 A 
HETATM   12  C   UNK N   1      32.838  20.723  -3.694  0.00  0.00     0.001 A 
ENDROOT
BRANCH   3  13
HETATM   13  C   UNK N   1      28.973  22.538  -6.712  0.00  0.00    -0.031 A 
HETATM   14  C   UNK N   1      28.054  21.688  -7.347  0.00  0.00     0.009 A 
HETATM   15  C   UNK N   1      27.884  21.755  -8.736  0.00  0.00     0.001 A 
HETATM   16  C   UNK N   1      28.615  22.680  -9.489  0.00  0.00     0.000 A 
HETATM   17  C   UNK N   1      29.514  23.540  -8.855  0.00  0.00     0.001 A 
HETATM   18  C   UNK N   1      29.695  23.466  -7.472  0.00  0.00     0.009 A 
ENDBRANCH   3  13
BRANCH   6  19
HETATM   19  O   UNK N   1      27.046  25.174  -3.753  0.00  0.00    -0.296 OA
BRANCH  19  20
HETATM   20  C   UNK N   1      27.070  26.563  -3.713  0.00  0.00     0.166 C 
HETATM   21  C   UNK N   1      25.793  27.342  -4.093  0.00  0.00     0.020 C 
HETATM   22  C   UNK N   1      26.067  28.806  -3.724  0.00  0.00     0.037 C 
HETATM   23  C   UNK N   1      25.598  27.306  -5.616  0.00  0.00     0.037 C 
HETATM   24  C   UNK N   1      27.328  29.305  -4.468  0.00  0.00     0.273 C 
HETATM   25  N   UNK N   1      27.885  28.258  -5.346  0.00  0.00     0.090 N 
HETATM   26  C   UNK N   1      28.265  27.087  -4.535  0.00  0.00     0.305 C 
HETATM   27  C   UNK N   1      26.858  27.848  -6.320  0.00  0.00     0.273 C 
ENDBRANCH  19  20
ENDBRANCH   6  19
TORSDOF 3
ENDMDL
