REMARK  3 active torsions:
REMARK  status: ('A' for Active; 'I' for Inactive)
REMARK    1  A    between atoms: O_1  and  C_9 
REMARK    2  A    between atoms: C_10  and  O_1 
REMARK       I    between atoms: N_3  and  C_9 
REMARK    3  A    between atoms: C_5  and  C_8 
ROOT
HETATM    1  O   UNK N   1       0.714   0.748   0.660  0.00  0.00    -0.238 OA
HETATM    2  N   UNK N   1      -0.644  -1.047   0.586  0.00  0.00    -0.315 N 
HETATM    3  C   UNK N   1      -1.912  -0.300   0.494  0.00  0.00     0.156 C 
HETATM    4  C   UNK N   1      -3.123  -1.122   0.098  0.00  0.00    -0.024 A 
HETATM    5  C   UNK N   1      -2.965  -2.469  -0.286  0.00  0.00    -0.048 A 
HETATM    6  C   UNK N   1       0.595  -0.466   0.647  0.00  0.00     0.364 C 
HETATM    7  C   UNK N   1      -0.718  -2.493   0.702  0.00  0.00     0.134 C 
HETATM    8  C   UNK N   1      -1.599  -3.067  -0.392  0.00  0.00     0.059 C 
HETATM    9  C   UNK N   1      -4.411  -0.576   0.174  0.00  0.00     0.010 A 
HETATM   10  C   UNK N   1      -4.087  -3.254  -0.571  0.00  0.00     0.008 A 
HETATM   11  C   UNK N   1      -5.529  -1.361  -0.126  0.00  0.00     0.001 A 
HETATM   12  C   UNK N   1      -5.367  -2.701  -0.488  0.00  0.00     0.001 A 
ENDROOT
BRANCH   3  13
HETATM   13  C   UNK N   1      -1.932   1.181   0.200  0.00  0.00    -0.031 A 
HETATM   14  C   UNK N   1      -1.351   1.715  -0.961  0.00  0.00     0.009 A 
HETATM   15  C   UNK N   1      -1.379   3.097  -1.185  0.00  0.00     0.001 A 
HETATM   16  C   UNK N   1      -2.002   3.945  -0.263  0.00  0.00     0.000 A 
HETATM   17  C   UNK N   1      -2.599   3.413   0.882  0.00  0.00     0.001 A 
HETATM   18  C   UNK N   1      -2.560   2.036   1.113  0.00  0.00     0.009 A 
ENDBRANCH   3  13
BRANCH   6  19
HETATM   19  O   UNK N   1       1.697  -1.268   0.700  0.00  0.00    -0.296 OA
BRANCH  19  20
HETATM   20  C   UNK N   1       3.049  -0.947   0.718  0.00  0.00     0.166 C 
HETATM   21  C   UNK N   1       3.463   0.530   0.889  0.00  0.00     0.020 C 
HETATM   22  C   UNK N   1       4.982   0.520   1.104  0.00  0.00     0.037 C 
HETATM   23  C   UNK N   1       3.213   1.293  -0.421  0.00  0.00     0.037 C 
HETATM   24  C   UNK N   1       5.675  -0.171  -0.095  0.00  0.00     0.273 C 
HETATM   25  N   UNK N   1       4.695  -0.586  -1.117  0.00  0.00     0.090 N 
HETATM   26  C   UNK N   1       3.742  -1.543  -0.525  0.00  0.00     0.305 C 
HETATM   27  C   UNK N   1       3.952   0.598  -1.583  0.00  0.00     0.273 C 
ENDBRANCH  19  20
ENDBRANCH   6  19
TORSDOF 3
