MODEL 1
REMARK VINA RESULT:      -6.7      0.000      0.000
REMARK  9 active torsions:
REMARK  status: ('A' for Active; 'I' for Inactive)
REMARK    1  A    between atoms: C_13  and  O_3 
REMARK    2  A    between atoms: O_5  and  C_19 
REMARK    3  A    between atoms: O_5  and  C_26 
REMARK    4  A    between atoms: O_6  and  C_21 
REMARK    5  A    between atoms: N_11  and  C_13 
REMARK       I    between atoms: N_11  and  C_20 
REMARK       I    between atoms: N_12  and  C_26 
REMARK    6  A    between atoms: C_16  and  C_21 
REMARK    7  A    between atoms: C_17  and  C_19 
REMARK    8  A    between atoms: C_20  and  C_23 
REMARK    9  A    between atoms: C_23  and  C_24 
ROOT
HETATM    1  S   UNK N   1      31.609  16.912   3.309  0.00  0.00    -0.133 SA
HETATM    2  O   UNK N   1      30.093  13.322   5.321  0.00  0.00    -0.267 OA
HETATM    3  N   UNK N   1      30.854  15.466   5.339  0.00  0.00    -0.288 N 
HETATM    4  C   UNK N   1      29.270  15.242   3.977  0.00  0.00     0.250 A 
HETATM    5  C   UNK N   1      30.286  16.430   4.459  0.00  0.00     0.221 A 
HETATM    6  C   UNK N   1      30.059  14.494   4.990  0.00  0.00     0.285 A 
HETATM    7  C   UNK N   1      32.046  15.544   6.123  0.00  0.00     0.118 C 
HETATM    8  C   UNK N   1      32.951  16.510   5.791  0.00  0.00    -0.013 C 
HETATM    9  C   UNK N   1      32.664  17.511   4.684  0.00  0.00     0.115 C 
ENDROOT
BRANCH   4  10
HETATM   10  O   UNK N   1      29.469  14.752   2.671  0.00  0.00    -0.355 OA
HETATM   11  C   UNK N   1      28.293  14.093   2.287  0.00  0.00     0.205 C 
ENDBRANCH   4  10
BRANCH   4  12
HETATM   12  N   UNK N   1      27.884  15.390   4.381  0.00  0.00    -0.319 N 
HETATM   13  C   UNK N   1      27.151  16.521   4.202  0.00  0.00     0.225 C 
HETATM   14  O   UNK N   1      25.980  16.529   4.544  0.00  0.00    -0.273 OA
HETATM   15  H   UNK N   1      27.445  14.622   4.813  0.00  0.00     0.166 HD
BRANCH  13  16
HETATM   16  C   UNK N   1      27.741  17.768   3.602  0.00  0.00     0.148 C 
BRANCH  16  17
HETATM   17  C   UNK N   1      27.596  18.903   4.563  0.00  0.00    -0.009 A 
HETATM   18  S   UNK N   1      27.974  18.885   6.170  0.00  0.00    -0.106 SA
HETATM   19  C   UNK N   1      27.484  20.410   6.598  0.00  0.00     0.050 A 
HETATM   20  C   UNK N   1      26.983  20.995   5.425  0.00  0.00     0.008 A 
HETATM   21  C   UNK N   1      27.044  20.149   4.281  0.00  0.00     0.015 A 
ENDBRANCH  16  17
ENDBRANCH  13  16
ENDBRANCH   4  12
BRANCH   7  22
HETATM   22  C   UNK N   1      32.271  14.570   7.243  0.00  0.00     0.194 C 
HETATM   23  O   UNK N   1      32.218  14.949   8.401  0.00  0.00    -0.645 OA
BRANCH  22  24
HETATM   24  O   UNK N   1      32.626  13.293   7.001  0.00  0.00    -0.772 OA
HETATM   25  H   UNK N   1      32.278  12.826   6.267  0.00  0.00     0.167 HD
ENDBRANCH  22  24
ENDBRANCH   7  22
BRANCH   8  26
HETATM   26  C   UNK N   1      34.284  16.624   6.474  0.00  0.00     0.218 C 
BRANCH  26  27
HETATM   27  O   UNK N   1      34.517  17.909   6.906  0.00  0.00    -0.300 OA
BRANCH  27  28
HETATM   28  C   UNK N   1      34.574  18.257   8.214  0.00  0.00     0.358 C 
HETATM   29  O   UNK N   1      35.261  19.205   8.552  0.00  0.00    -0.239 OA
HETATM   30  N   UNK N   1      33.887  17.566   9.149  0.00  0.00    -0.346 N 
HETATM   31  H   UNK N   1      33.199  17.815   9.808  0.00  0.00     0.161 HD
HETATM   32  H   UNK N   1      34.125  16.612   9.178  0.00  0.00     0.161 HD
ENDBRANCH  27  28
ENDBRANCH  26  27
ENDBRANCH   8  26
TORSDOF 9
ENDMDL
MODEL 2
REMARK VINA RESULT:      -6.3      5.183     10.089
REMARK  9 active torsions:
REMARK  status: ('A' for Active; 'I' for Inactive)
REMARK    1  A    between atoms: C_13  and  O_3 
REMARK    2  A    between atoms: O_5  and  C_19 
REMARK    3  A    between atoms: O_5  and  C_26 
REMARK    4  A    between atoms: O_6  and  C_21 
REMARK    5  A    between atoms: N_11  and  C_13 
REMARK       I    between atoms: N_11  and  C_20 
REMARK       I    between atoms: N_12  and  C_26 
REMARK    6  A    between atoms: C_16  and  C_21 
REMARK    7  A    between atoms: C_17  and  C_19 
REMARK    8  A    between atoms: C_20  and  C_23 
REMARK    9  A    between atoms: C_23  and  C_24 
ROOT
HETATM    1  S   UNK N   1      24.075  16.776   4.052  0.00  0.00    -0.133 SA
HETATM    2  O   UNK N   1      24.523  20.876   2.561  0.00  0.00    -0.267 OA
HETATM    3  N   UNK N   1      23.463  19.296   3.806  0.00  0.00    -0.288 N 
HETATM    4  C   UNK N   1      25.517  19.343   4.243  0.00  0.00     0.250 A 
HETATM    5  C   UNK N   1      24.209  18.472   4.696  0.00  0.00     0.221 A 
HETATM    6  C   UNK N   1      24.477  20.020   3.426  0.00  0.00     0.285 A 
HETATM    7  C   UNK N   1      22.116  19.155   3.353  0.00  0.00     0.118 C 
HETATM    8  C   UNK N   1      21.526  17.934   3.513  0.00  0.00    -0.013 C 
HETATM    9  C   UNK N   1      22.249  16.797   4.217  0.00  0.00     0.115 C 
ENDROOT
BRANCH   4  10
HETATM   10  O   UNK N   1      26.467  18.666   3.453  0.00  0.00    -0.355 OA
HETATM   11  C   UNK N   1      27.649  19.420   3.481  0.00  0.00     0.205 C 
ENDBRANCH   4  10
BRANCH   4  12
HETATM   12  N   UNK N   1      26.067  20.231   5.252  0.00  0.00    -0.319 N 
HETATM   13  C   UNK N   1      26.814  19.818   6.310  0.00  0.00     0.225 C 
HETATM   14  O   UNK N   1      27.261  20.651   7.081  0.00  0.00    -0.273 OA
HETATM   15  H   UNK N   1      25.887  21.195   5.164  0.00  0.00     0.166 HD
BRANCH  13  16
HETATM   16  C   UNK N   1      27.102  18.364   6.565  0.00  0.00     0.148 C 
BRANCH  16  17
HETATM   17  C   UNK N   1      28.233  18.240   7.532  0.00  0.00    -0.009 A 
HETATM   18  S   UNK N   1      29.786  17.801   7.177  0.00  0.00    -0.106 SA
HETATM   19  C   UNK N   1      30.438  17.793   8.702  0.00  0.00     0.050 A 
HETATM   20  C   UNK N   1      29.393  18.150   9.568  0.00  0.00     0.008 A 
HETATM   21  C   UNK N   1      28.153  18.400   8.912  0.00  0.00     0.015 A 
ENDBRANCH  16  17
ENDBRANCH  13  16
ENDBRANCH   4  12
BRANCH   7  22
HETATM   22  C   UNK N   1      21.416  20.315   2.709  0.00  0.00     0.194 C 
HETATM   23  O   UNK N   1      20.629  20.988   3.354  0.00  0.00    -0.645 OA
BRANCH  22  24
HETATM   24  O   UNK N   1      21.563  20.583   1.396  0.00  0.00    -0.772 OA
HETATM   25  H   UNK N   1      21.012  21.207   0.966  0.00  0.00     0.167 HD
ENDBRANCH  22  24
ENDBRANCH   7  22
BRANCH   8  26
HETATM   26  C   UNK N   1      20.153  17.634   2.984  0.00  0.00     0.218 C 
BRANCH  26  27
HETATM   27  O   UNK N   1      20.206  16.760   1.922  0.00  0.00    -0.300 OA
BRANCH  27  28
HETATM   28  C   UNK N   1      19.841  17.096   0.662  0.00  0.00     0.358 C 
HETATM   29  O   UNK N   1      20.515  17.897   0.037  0.00  0.00    -0.239 OA
HETATM   30  N   UNK N   1      18.739  16.565   0.090  0.00  0.00    -0.346 N 
HETATM   31  H   UNK N   1      18.584  16.038  -0.727  0.00  0.00     0.161 HD
HETATM   32  H   UNK N   1      17.915  16.743   0.599  0.00  0.00     0.161 HD
ENDBRANCH  27  28
ENDBRANCH  26  27
ENDBRANCH   8  26
TORSDOF 9
ENDMDL
MODEL 3
REMARK VINA RESULT:      -6.3      3.042      7.577
REMARK  9 active torsions:
REMARK  status: ('A' for Active; 'I' for Inactive)
REMARK    1  A    between atoms: C_13  and  O_3 
REMARK    2  A    between atoms: O_5  and  C_19 
REMARK    3  A    between atoms: O_5  and  C_26 
REMARK    4  A    between atoms: O_6  and  C_21 
REMARK    5  A    between atoms: N_11  and  C_13 
REMARK       I    between atoms: N_11  and  C_20 
REMARK       I    between atoms: N_12  and  C_26 
REMARK    6  A    between atoms: C_16  and  C_21 
REMARK    7  A    between atoms: C_17  and  C_19 
REMARK    8  A    between atoms: C_20  and  C_23 
REMARK    9  A    between atoms: C_23  and  C_24 
ROOT
HETATM    1  S   UNK N   1      31.298  16.611   5.594  0.00  0.00    -0.133 SA
HETATM    2  O   UNK N   1      30.892  18.934   9.292  0.00  0.00    -0.267 OA
HETATM    3  N   UNK N   1      30.348  17.179   7.952  0.00  0.00    -0.288 N 
HETATM    4  C   UNK N   1      32.426  17.291   8.235  0.00  0.00     0.250 A 
HETATM    5  C   UNK N   1      31.373  16.363   7.394  0.00  0.00     0.221 A 
HETATM    6  C   UNK N   1      31.151  17.935   8.644  0.00  0.00     0.285 A 
HETATM    7  C   UNK N   1      28.959  17.241   7.623  0.00  0.00     0.118 C 
HETATM    8  C   UNK N   1      28.574  16.704   6.428  0.00  0.00    -0.013 C 
HETATM    9  C   UNK N   1      29.572  15.998   5.525  0.00  0.00     0.115 C 
ENDROOT
BRANCH   4  10
HETATM   10  O   UNK N   1      33.241  18.149   7.469  0.00  0.00    -0.355 OA
HETATM   11  C   UNK N   1      34.456  18.293   8.153  0.00  0.00     0.205 C 
ENDBRANCH   4  10
BRANCH   4  12
HETATM   12  N   UNK N   1      33.084  16.646   9.356  0.00  0.00    -0.319 N 
HETATM   13  C   UNK N   1      33.557  15.372   9.337  0.00  0.00     0.225 C 
HETATM   14  O   UNK N   1      34.129  14.937  10.323  0.00  0.00    -0.273 OA
HETATM   15  H   UNK N   1      33.195  17.166  10.186  0.00  0.00     0.166 HD
BRANCH  13  16
HETATM   16  C   UNK N   1      33.391  14.477   8.140  0.00  0.00     0.148 C 
BRANCH  16  17
HETATM   17  C   UNK N   1      34.691  14.364   7.415  0.00  0.00    -0.009 A 
HETATM   18  S   UNK N   1      35.124  15.169   6.039  0.00  0.00    -0.106 SA
HETATM   19  C   UNK N   1      36.618  14.501   5.772  0.00  0.00     0.050 A 
HETATM   20  C   UNK N   1      36.817  13.580   6.812  0.00  0.00     0.008 A 
HETATM   21  C   UNK N   1      35.735  13.501   7.735  0.00  0.00     0.015 A 
ENDBRANCH  16  17
ENDBRANCH  13  16
ENDBRANCH   4  12
BRANCH   7  22
HETATM   22  C   UNK N   1      27.995  17.902   8.564  0.00  0.00     0.194 C 
HETATM   23  O   UNK N   1      27.544  17.280   9.512  0.00  0.00    -0.645 OA
BRANCH  22  24
HETATM   24  O   UNK N   1      27.534  19.148   8.337  0.00  0.00    -0.772 OA
HETATM   25  H   UNK N   1      28.060  19.899   8.529  0.00  0.00     0.167 HD
ENDBRANCH  22  24
ENDBRANCH   7  22
BRANCH   8  26
HETATM   26  C   UNK N   1      27.161  16.802   5.926  0.00  0.00     0.218 C 
BRANCH  26  27
HETATM   27  O   UNK N   1      27.091  17.551   4.775  0.00  0.00    -0.300 OA
BRANCH  27  28
HETATM   28  C   UNK N   1      27.141  18.905   4.763  0.00  0.00     0.358 C 
HETATM   29  O   UNK N   1      26.552  19.533   5.625  0.00  0.00    -0.239 OA
HETATM   30  N   UNK N   1      27.826  19.569   3.807  0.00  0.00    -0.346 N 
HETATM   31  H   UNK N   1      28.571  20.213   3.829  0.00  0.00     0.161 HD
HETATM   32  H   UNK N   1      27.516  19.365   2.896  0.00  0.00     0.161 HD
ENDBRANCH  27  28
ENDBRANCH  26  27
ENDBRANCH   8  26
TORSDOF 9
ENDMDL
MODEL 4
REMARK VINA RESULT:      -6.3      3.703      6.152
REMARK  9 active torsions:
REMARK  status: ('A' for Active; 'I' for Inactive)
REMARK    1  A    between atoms: C_13  and  O_3 
REMARK    2  A    between atoms: O_5  and  C_19 
REMARK    3  A    between atoms: O_5  and  C_26 
REMARK    4  A    between atoms: O_6  and  C_21 
REMARK    5  A    between atoms: N_11  and  C_13 
REMARK       I    between atoms: N_11  and  C_20 
REMARK       I    between atoms: N_12  and  C_26 
REMARK    6  A    between atoms: C_16  and  C_21 
REMARK    7  A    between atoms: C_17  and  C_19 
REMARK    8  A    between atoms: C_20  and  C_23 
REMARK    9  A    between atoms: C_23  and  C_24 
ROOT
HETATM    1  S   UNK N   1      32.704  13.971   8.741  0.00  0.00    -0.133 SA
HETATM    2  O   UNK N   1      35.050  17.577   9.596  0.00  0.00    -0.267 OA
HETATM    3  N   UNK N   1      34.840  15.461   8.788  0.00  0.00    -0.288 N 
HETATM    4  C   UNK N   1      33.390  16.731   7.954  0.00  0.00     0.250 A 
HETATM    5  C   UNK N   1      33.791  15.147   7.878  0.00  0.00     0.221 A 
HETATM    6  C   UNK N   1      34.560  16.730   8.869  0.00  0.00     0.285 A 
HETATM    7  C   UNK N   1      35.706  14.585   9.511  0.00  0.00     0.118 C 
HETATM    8  C   UNK N   1      35.325  13.279   9.623  0.00  0.00    -0.013 C 
HETATM    9  C   UNK N   1      34.070  12.764   8.936  0.00  0.00     0.115 C 
ENDROOT
BRANCH   4  10
HETATM   10  O   UNK N   1      32.185  17.032   8.619  0.00  0.00    -0.355 OA
HETATM   11  C   UNK N   1      31.937  18.400   8.437  0.00  0.00     0.205 C 
ENDBRANCH   4  10
BRANCH   4  12
HETATM   12  N   UNK N   1      33.648  17.507   6.754  0.00  0.00    -0.319 N 
HETATM   13  C   UNK N   1      33.116  17.232   5.535  0.00  0.00     0.225 C 
HETATM   14  O   UNK N   1      33.368  17.972   4.597  0.00  0.00    -0.273 OA
HETATM   15  H   UNK N   1      34.249  18.284   6.830  0.00  0.00     0.166 HD
BRANCH  13  16
HETATM   16  C   UNK N   1      32.230  16.039   5.300  0.00  0.00     0.148 C 
BRANCH  16  17
HETATM   17  C   UNK N   1      30.882  16.497   4.851  0.00  0.00    -0.009 A 
HETATM   18  S   UNK N   1      30.177  16.196   3.388  0.00  0.00    -0.106 SA
HETATM   19  C   UNK N   1      28.774  17.061   3.561  0.00  0.00     0.050 A 
HETATM   20  C   UNK N   1      28.834  17.639   4.838  0.00  0.00     0.008 A 
HETATM   21  C   UNK N   1      30.019  17.324   5.564  0.00  0.00     0.015 A 
ENDBRANCH  16  17
ENDBRANCH  13  16
ENDBRANCH   4  12
BRANCH   7  22
HETATM   22  C   UNK N   1      36.964  15.118  10.132  0.00  0.00     0.194 C 
HETATM   23  O   UNK N   1      38.051  14.746   9.724  0.00  0.00    -0.645 OA
BRANCH  22  24
HETATM   24  O   UNK N   1      36.926  15.937  11.202  0.00  0.00    -0.772 OA
HETATM   25  H   UNK N   1      36.628  16.822  11.123  0.00  0.00     0.167 HD
ENDBRANCH  22  24
ENDBRANCH   7  22
BRANCH   8  26
HETATM   26  C   UNK N   1      36.099  12.288  10.445  0.00  0.00     0.218 C 
BRANCH  26  27
HETATM   27  O   UNK N   1      35.498  12.073  11.664  0.00  0.00    -0.300 OA
BRANCH  27  28
HETATM   28  C   UNK N   1      35.682  12.880  12.737  0.00  0.00     0.358 C 
HETATM   29  O   UNK N   1      34.718  13.230  13.395  0.00  0.00    -0.239 OA
HETATM   30  N   UNK N   1      36.915  13.308  13.084  0.00  0.00    -0.346 N 
HETATM   31  H   UNK N   1      37.458  13.224  13.902  0.00  0.00     0.161 HD
HETATM   32  H   UNK N   1      37.366  13.809  12.368  0.00  0.00     0.161 HD
ENDBRANCH  27  28
ENDBRANCH  26  27
ENDBRANCH   8  26
TORSDOF 9
ENDMDL
MODEL 5
REMARK VINA RESULT:      -6.2      5.099      8.981
REMARK  9 active torsions:
REMARK  status: ('A' for Active; 'I' for Inactive)
REMARK    1  A    between atoms: C_13  and  O_3 
REMARK    2  A    between atoms: O_5  and  C_19 
REMARK    3  A    between atoms: O_5  and  C_26 
REMARK    4  A    between atoms: O_6  and  C_21 
REMARK    5  A    between atoms: N_11  and  C_13 
REMARK       I    between atoms: N_11  and  C_20 
REMARK       I    between atoms: N_12  and  C_26 
REMARK    6  A    between atoms: C_16  and  C_21 
REMARK    7  A    between atoms: C_17  and  C_19 
REMARK    8  A    between atoms: C_20  and  C_23 
REMARK    9  A    between atoms: C_23  and  C_24 
ROOT
HETATM    1  S   UNK N   1      33.032  13.570   8.992  0.00  0.00    -0.133 SA
HETATM    2  O   UNK N   1      36.107  15.219   6.335  0.00  0.00    -0.267 OA
HETATM    3  N   UNK N   1      34.717  15.359   8.130  0.00  0.00    -0.288 N 
HETATM    4  C   UNK N   1      35.878  13.611   8.213  0.00  0.00     0.250 A 
HETATM    5  C   UNK N   1      34.690  14.311   9.093  0.00  0.00     0.221 A 
HETATM    6  C   UNK N   1      35.668  14.841   7.406  0.00  0.00     0.285 A 
HETATM    7  C   UNK N   1      33.811  16.449   7.949  0.00  0.00     0.118 C 
HETATM    8  C   UNK N   1      32.585  16.349   8.542  0.00  0.00    -0.013 C 
HETATM    9  C   UNK N   1      32.232  15.162   9.423  0.00  0.00     0.115 C 
ENDROOT
BRANCH   4  10
HETATM   10  O   UNK N   1      35.521  12.440   7.515  0.00  0.00    -0.355 OA
HETATM   11  C   UNK N   1      36.704  11.862   7.034  0.00  0.00     0.205 C 
ENDBRANCH   4  10
BRANCH   4  12
HETATM   12  N   UNK N   1      37.193  13.591   8.827  0.00  0.00    -0.319 N 
HETATM   13  C   UNK N   1      37.485  12.956   9.993  0.00  0.00     0.225 C 
HETATM   14  O   UNK N   1      38.634  12.969  10.404  0.00  0.00    -0.273 OA
HETATM   15  H   UNK N   1      37.922  14.070   8.369  0.00  0.00     0.166 HD
BRANCH  13  16
HETATM   16  C   UNK N   1      36.434  12.242  10.798  0.00  0.00     0.148 C 
BRANCH  16  17
HETATM   17  C   UNK N   1      36.463  12.734  12.207  0.00  0.00    -0.009 A 
HETATM   18  S   UNK N   1      36.060  14.248  12.729  0.00  0.00    -0.106 SA
HETATM   19  C   UNK N   1      36.408  14.098  14.343  0.00  0.00     0.050 A 
HETATM   20  C   UNK N   1      36.877  12.787  14.515  0.00  0.00     0.008 A 
HETATM   21  C   UNK N   1      36.909  12.019  13.315  0.00  0.00     0.015 A 
ENDBRANCH  16  17
ENDBRANCH  13  16
ENDBRANCH   4  12
BRANCH   7  22
HETATM   22  C   UNK N   1      34.214  17.629   7.113  0.00  0.00     0.194 C 
HETATM   23  O   UNK N   1      34.687  18.620   7.645  0.00  0.00    -0.645 OA
BRANCH  22  24
HETATM   24  O   UNK N   1      33.981  17.662   5.786  0.00  0.00    -0.772 OA
HETATM   25  H   UNK N   1      33.110  17.738   5.452  0.00  0.00     0.167 HD
ENDBRANCH  22  24
ENDBRANCH   7  22
BRANCH   8  26
HETATM   26  C   UNK N   1      31.513  17.381   8.338  0.00  0.00     0.218 C 
BRANCH  26  27
HETATM   27  O   UNK N   1      30.282  16.908   8.732  0.00  0.00    -0.300 OA
BRANCH  27  28
HETATM   28  C   UNK N   1      29.445  17.596   9.544  0.00  0.00     0.358 C 
HETATM   29  O   UNK N   1      28.316  17.177   9.734  0.00  0.00    -0.239 OA
HETATM   30  N   UNK N   1      29.837  18.743  10.139  0.00  0.00    -0.346 N 
HETATM   31  H   UNK N   1      29.900  19.034  11.078  0.00  0.00     0.161 HD
HETATM   32  H   UNK N   1      30.120  19.435   9.498  0.00  0.00     0.161 HD
ENDBRANCH  27  28
ENDBRANCH  26  27
ENDBRANCH   8  26
TORSDOF 9
ENDMDL
MODEL 6
REMARK VINA RESULT:      -6.1     12.195     15.310
REMARK  9 active torsions:
REMARK  status: ('A' for Active; 'I' for Inactive)
REMARK    1  A    between atoms: C_13  and  O_3 
REMARK    2  A    between atoms: O_5  and  C_19 
REMARK    3  A    between atoms: O_5  and  C_26 
REMARK    4  A    between atoms: O_6  and  C_21 
REMARK    5  A    between atoms: N_11  and  C_13 
REMARK       I    between atoms: N_11  and  C_20 
REMARK       I    between atoms: N_12  and  C_26 
REMARK    6  A    between atoms: C_16  and  C_21 
REMARK    7  A    between atoms: C_17  and  C_19 
REMARK    8  A    between atoms: C_20  and  C_23 
REMARK    9  A    between atoms: C_23  and  C_24 
ROOT
HETATM    1  S   UNK N   1      29.054  22.289  -7.051  0.00  0.00    -0.133 SA
HETATM    2  O   UNK N   1      28.677  26.252  -5.209  0.00  0.00    -0.267 OA
HETATM    3  N   UNK N   1      27.885  24.173  -5.684  0.00  0.00    -0.288 N 
HETATM    4  C   UNK N   1      29.796  24.069  -4.818  0.00  0.00     0.250 A 
HETATM    5  C   UNK N   1      28.692  23.028  -5.429  0.00  0.00     0.221 A 
HETATM    6  C   UNK N   1      28.732  25.034  -5.197  0.00  0.00     0.285 A 
HETATM    7  C   UNK N   1      26.679  24.282  -6.441  0.00  0.00     0.118 C 
HETATM    8  C   UNK N   1      26.388  23.266  -7.304  0.00  0.00    -0.013 C 
HETATM    9  C   UNK N   1      27.271  22.032  -7.395  0.00  0.00     0.115 C 
ENDROOT
BRANCH   4  10
HETATM   10  O   UNK N   1      30.972  24.237  -5.575  0.00  0.00    -0.355 OA
HETATM   11  C   UNK N   1      31.935  24.810  -4.732  0.00  0.00     0.205 C 
ENDBRANCH   4  10
BRANCH   4  12
HETATM   12  N   UNK N   1      29.985  24.019  -3.379  0.00  0.00    -0.319 N 
HETATM   13  C   UNK N   1      30.258  22.885  -2.682  0.00  0.00     0.225 C 
HETATM   14  O   UNK N   1      30.437  22.958  -1.477  0.00  0.00    -0.273 OA
HETATM   15  H   UNK N   1      29.911  24.862  -2.876  0.00  0.00     0.166 HD
BRANCH  13  16
HETATM   16  C   UNK N   1      30.339  21.538  -3.347  0.00  0.00     0.148 C 
BRANCH  16  17
HETATM   17  C   UNK N   1      31.748  21.270  -3.762  0.00  0.00    -0.009 A 
HETATM   18  S   UNK N   1      32.257  20.782  -5.256  0.00  0.00    -0.106 SA
HETATM   19  C   UNK N   1      33.879  20.604  -4.964  0.00  0.00     0.050 A 
HETATM   20  C   UNK N   1      34.064  20.938  -3.613  0.00  0.00     0.008 A 
HETATM   21  C   UNK N   1      32.867  21.311  -2.937  0.00  0.00     0.015 A 
ENDBRANCH  16  17
ENDBRANCH  13  16
ENDBRANCH   4  12
BRANCH   7  22
HETATM   22  C   UNK N   1      25.805  25.492  -6.288  0.00  0.00     0.194 C 
HETATM   23  O   UNK N   1      24.825  25.449  -5.562  0.00  0.00    -0.645 OA
BRANCH  22  24
HETATM   24  O   UNK N   1      26.020  26.610  -7.009  0.00  0.00    -0.772 OA
HETATM   25  H   UNK N   1      26.310  27.401  -6.598  0.00  0.00     0.167 HD
ENDBRANCH  22  24
ENDBRANCH   7  22
BRANCH   8  26
HETATM   26  C   UNK N   1      25.204  23.316  -8.228  0.00  0.00     0.218 C 
BRANCH  26  27
HETATM   27  O   UNK N   1      25.587  23.616  -9.516  0.00  0.00    -0.300 OA
BRANCH  27  28
HETATM   28  C   UNK N   1      25.426  24.840 -10.074  0.00  0.00     0.358 C 
HETATM   29  O   UNK N   1      24.438  25.063 -10.751  0.00  0.00    -0.239 OA
HETATM   30  N   UNK N   1      26.346  25.813  -9.899  0.00  0.00    -0.346 N 
HETATM   31  H   UNK N   1      26.309  26.723  -9.524  0.00  0.00     0.161 HD
HETATM   32  H   UNK N   1      27.243  25.558 -10.213  0.00  0.00     0.161 HD
ENDBRANCH  27  28
ENDBRANCH  26  27
ENDBRANCH   8  26
TORSDOF 9
ENDMDL
MODEL 7
REMARK VINA RESULT:      -5.9      8.344     11.189
REMARK  9 active torsions:
REMARK  status: ('A' for Active; 'I' for Inactive)
REMARK    1  A    between atoms: C_13  and  O_3 
REMARK    2  A    between atoms: O_5  and  C_19 
REMARK    3  A    between atoms: O_5  and  C_26 
REMARK    4  A    between atoms: O_6  and  C_21 
REMARK    5  A    between atoms: N_11  and  C_13 
REMARK       I    between atoms: N_11  and  C_20 
REMARK       I    between atoms: N_12  and  C_26 
REMARK    6  A    between atoms: C_16  and  C_21 
REMARK    7  A    between atoms: C_17  and  C_19 
REMARK    8  A    between atoms: C_20  and  C_23 
REMARK    9  A    between atoms: C_23  and  C_24 
ROOT
HETATM    1  S   UNK N   1      20.835  16.611   5.953  0.00  0.00    -0.133 SA
HETATM    2  O   UNK N   1      20.370  13.133   3.320  0.00  0.00    -0.267 OA
HETATM    3  N   UNK N   1      21.173  15.211   3.783  0.00  0.00    -0.288 N 
HETATM    4  C   UNK N   1      21.673  13.856   5.308  0.00  0.00     0.250 A 
HETATM    5  C   UNK N   1      21.865  15.451   5.003  0.00  0.00     0.221 A 
HETATM    6  C   UNK N   1      21.007  13.934   3.982  0.00  0.00     0.285 A 
HETATM    7  C   UNK N   1      20.658  16.145   2.833  0.00  0.00     0.118 C 
HETATM    8  C   UNK N   1      20.506  17.437   3.245  0.00  0.00    -0.013 C 
HETATM    9  C   UNK N   1      20.944  17.878   4.632  0.00  0.00     0.115 C 
ENDROOT
BRANCH   4  10
HETATM   10  O   UNK N   1      20.775  13.529   6.343  0.00  0.00    -0.355 OA
HETATM   11  C   UNK N   1      20.732  12.131   6.435  0.00  0.00     0.205 C 
ENDBRANCH   4  10
BRANCH   4  12
HETATM   12  N   UNK N   1      22.880  13.050   5.255  0.00  0.00    -0.319 N 
HETATM   13  C   UNK N   1      23.869  13.091   6.186  0.00  0.00     0.225 C 
HETATM   14  O   UNK N   1      24.826  12.343   6.066  0.00  0.00    -0.273 OA
HETATM   15  H   UNK N   1      22.989  12.435   4.494  0.00  0.00     0.166 HD
BRANCH  13  16
HETATM   16  C   UNK N   1      23.825  14.033   7.357  0.00  0.00     0.148 C 
BRANCH  16  17
HETATM   17  C   UNK N   1      23.363  13.299   8.573  0.00  0.00    -0.009 A 
HETATM   18  S   UNK N   1      23.891  11.823   9.091  0.00  0.00    -0.106 SA
HETATM   19  C   UNK N   1      22.905  11.609  10.406  0.00  0.00     0.050 A 
HETATM   20  C   UNK N   1      22.092  12.752  10.467  0.00  0.00     0.008 A 
HETATM   21  C   UNK N   1      22.348  13.702   9.436  0.00  0.00     0.015 A 
ENDBRANCH  16  17
ENDBRANCH  13  16
ENDBRANCH   4  12
BRANCH   7  22
HETATM   22  C   UNK N   1      20.284  15.683   1.455  0.00  0.00     0.194 C 
HETATM   23  O   UNK N   1      21.055  15.854   0.524  0.00  0.00    -0.645 OA
BRANCH  22  24
HETATM   24  O   UNK N   1      19.069  15.163   1.193  0.00  0.00    -0.772 OA
HETATM   25  H   UNK N   1      18.777  14.381   1.620  0.00  0.00     0.167 HD
ENDBRANCH  22  24
ENDBRANCH   7  22
BRANCH   8  26
HETATM   26  C   UNK N   1      19.878  18.486   2.371  0.00  0.00     0.218 C 
BRANCH  26  27
HETATM   27  O   UNK N   1      20.799  19.035   1.508  0.00  0.00    -0.300 OA
BRANCH  27  28
HETATM   28  C   UNK N   1      20.904  20.366   1.280  0.00  0.00     0.358 C 
HETATM   29  O   UNK N   1      21.045  20.768   0.138  0.00  0.00    -0.239 OA
HETATM   30  N   UNK N   1      20.863  21.253   2.297  0.00  0.00    -0.346 N 
HETATM   31  H   UNK N   1      20.281  22.018   2.508  0.00  0.00     0.161 HD
HETATM   32  H   UNK N   1      21.565  21.102   2.971  0.00  0.00     0.161 HD
ENDBRANCH  27  28
ENDBRANCH  26  27
ENDBRANCH   8  26
TORSDOF 9
ENDMDL
MODEL 8
REMARK VINA RESULT:      -5.8      6.806     10.624
REMARK  9 active torsions:
REMARK  status: ('A' for Active; 'I' for Inactive)
REMARK    1  A    between atoms: C_13  and  O_3 
REMARK    2  A    between atoms: O_5  and  C_19 
REMARK    3  A    between atoms: O_5  and  C_26 
REMARK    4  A    between atoms: O_6  and  C_21 
REMARK    5  A    between atoms: N_11  and  C_13 
REMARK       I    between atoms: N_11  and  C_20 
REMARK       I    between atoms: N_12  and  C_26 
REMARK    6  A    between atoms: C_16  and  C_21 
REMARK    7  A    between atoms: C_17  and  C_19 
REMARK    8  A    between atoms: C_20  and  C_23 
REMARK    9  A    between atoms: C_23  and  C_24 
ROOT
HETATM    1  S   UNK N   1      21.650  15.116   4.489  0.00  0.00    -0.133 SA
HETATM    2  O   UNK N   1      20.472  13.584   0.552  0.00  0.00    -0.267 OA
HETATM    3  N   UNK N   1      21.379  15.177   1.899  0.00  0.00    -0.288 N 
HETATM    4  C   UNK N   1      22.270  13.305   2.243  0.00  0.00     0.250 A 
HETATM    5  C   UNK N   1      22.379  14.821   2.849  0.00  0.00     0.221 A 
HETATM    6  C   UNK N   1      21.268  13.986   1.382  0.00  0.00     0.285 A 
HETATM    7  C   UNK N   1      20.628  16.386   1.783  0.00  0.00     0.118 C 
HETATM    8  C   UNK N   1      20.600  17.213   2.869  0.00  0.00    -0.013 C 
HETATM    9  C   UNK N   1      21.401  16.895   4.121  0.00  0.00     0.115 C 
ENDROOT
BRANCH   4  10
HETATM   10  O   UNK N   1      21.686  12.342   3.090  0.00  0.00    -0.355 OA
HETATM   11  C   UNK N   1      21.912  11.085   2.512  0.00  0.00     0.205 C 
ENDBRANCH   4  10
BRANCH   4  12
HETATM   12  N   UNK N   1      23.413  12.846   1.475  0.00  0.00    -0.319 N 
HETATM   13  C   UNK N   1      24.670  12.717   1.975  0.00  0.00     0.225 C 
HETATM   14  O   UNK N   1      25.554  12.286   1.253  0.00  0.00    -0.273 OA
HETATM   15  H   UNK N   1      23.268  12.614   0.528  0.00  0.00     0.166 HD
BRANCH  13  16
HETATM   16  C   UNK N   1      25.008  13.096   3.391  0.00  0.00     0.148 C 
BRANCH  16  17
HETATM   17  C   UNK N   1      26.117  14.097   3.390  0.00  0.00    -0.009 A 
HETATM   18  S   UNK N   1      27.613  13.908   4.062  0.00  0.00    -0.106 SA
HETATM   19  C   UNK N   1      28.255  15.407   3.762  0.00  0.00     0.050 A 
HETATM   20  C   UNK N   1      27.252  16.127   3.096  0.00  0.00     0.008 A 
HETATM   21  C   UNK N   1      26.049  15.392   2.887  0.00  0.00     0.015 A 
ENDBRANCH  16  17
ENDBRANCH  13  16
ENDBRANCH   4  12
BRANCH   7  22
HETATM   22  C   UNK N   1      19.892  16.691   0.511  0.00  0.00     0.194 C 
HETATM   23  O   UNK N   1      20.357  17.487  -0.288  0.00  0.00    -0.645 OA
BRANCH  22  24
HETATM   24  O   UNK N   1      18.671  16.177   0.266  0.00  0.00    -0.772 OA
HETATM   25  H   UNK N   1      18.397  15.980  -0.608  0.00  0.00     0.167 HD
ENDBRANCH  22  24
ENDBRANCH   7  22
BRANCH   8  26
HETATM   26  C   UNK N   1      19.762  18.459   2.903  0.00  0.00     0.218 C 
BRANCH  26  27
HETATM   27  O   UNK N   1      20.524  19.565   3.204  0.00  0.00    -0.300 OA
BRANCH  27  28
HETATM   28  C   UNK N   1      21.025  20.402   2.264  0.00  0.00     0.358 C 
HETATM   29  O   UNK N   1      21.842  21.246   2.588  0.00  0.00    -0.239 OA
HETATM   30  N   UNK N   1      20.629  20.321   0.975  0.00  0.00    -0.346 N 
HETATM   31  H   UNK N   1      21.104  20.169   0.126  0.00  0.00     0.161 HD
HETATM   32  H   UNK N   1      19.658  20.438   0.861  0.00  0.00     0.161 HD
ENDBRANCH  27  28
ENDBRANCH  26  27
ENDBRANCH   8  26
TORSDOF 9
ENDMDL
MODEL 9
REMARK VINA RESULT:      -5.8      4.436      7.109
REMARK  9 active torsions:
REMARK  status: ('A' for Active; 'I' for Inactive)
REMARK    1  A    between atoms: C_13  and  O_3 
REMARK    2  A    between atoms: O_5  and  C_19 
REMARK    3  A    between atoms: O_5  and  C_26 
REMARK    4  A    between atoms: O_6  and  C_21 
REMARK    5  A    between atoms: N_11  and  C_13 
REMARK       I    between atoms: N_11  and  C_20 
REMARK       I    between atoms: N_12  and  C_26 
REMARK    6  A    between atoms: C_16  and  C_21 
REMARK    7  A    between atoms: C_17  and  C_19 
REMARK    8  A    between atoms: C_20  and  C_23 
REMARK    9  A    between atoms: C_23  and  C_24 
ROOT
HETATM    1  S   UNK N   1      32.768  13.741   8.701  0.00  0.00    -0.133 SA
HETATM    2  O   UNK N   1      34.706  17.440  10.043  0.00  0.00    -0.267 OA
HETATM    3  N   UNK N   1      34.764  15.360   9.124  0.00  0.00    -0.288 N 
HETATM    4  C   UNK N   1      33.363  16.576   8.140  0.00  0.00     0.250 A 
HETATM    5  C   UNK N   1      33.882  15.027   8.058  0.00  0.00     0.221 A 
HETATM    6  C   UNK N   1      34.387  16.603   9.216  0.00  0.00     0.285 A 
HETATM    7  C   UNK N   1      35.577  14.504   9.930  0.00  0.00     0.118 C 
HETATM    8  C   UNK N   1      35.277  13.173   9.929  0.00  0.00    -0.013 C 
HETATM    9  C   UNK N   1      34.174  12.615   9.044  0.00  0.00     0.115 C 
ENDROOT
BRANCH   4  10
HETATM   10  O   UNK N   1      32.057  16.765   8.633  0.00  0.00    -0.355 OA
HETATM   11  C   UNK N   1      31.712  18.104   8.405  0.00  0.00     0.205 C 
ENDBRANCH   4  10
BRANCH   4  12
HETATM   12  N   UNK N   1      33.735  17.429   7.025  0.00  0.00    -0.319 N 
HETATM   13  C   UNK N   1      33.379  17.200   5.734  0.00  0.00     0.225 C 
HETATM   14  O   UNK N   1      33.714  18.001   4.876  0.00  0.00    -0.273 OA
HETATM   15  H   UNK N   1      34.282  18.225   7.218  0.00  0.00     0.166 HD
BRANCH  13  16
HETATM   16  C   UNK N   1      32.591  15.986   5.326  0.00  0.00     0.148 C 
BRANCH  16  17
HETATM   17  C   UNK N   1      33.377  15.188   4.338  0.00  0.00    -0.009 A 
HETATM   18  S   UNK N   1      34.649  14.188   4.671  0.00  0.00    -0.106 SA
HETATM   19  C   UNK N   1      35.065  13.728   3.134  0.00  0.00     0.050 A 
HETATM   20  C   UNK N   1      34.168  14.389   2.280  0.00  0.00     0.008 A 
HETATM   21  C   UNK N   1      33.220  15.211   2.956  0.00  0.00     0.015 A 
ENDBRANCH  16  17
ENDBRANCH  13  16
ENDBRANCH   4  12
BRANCH   7  22
HETATM   22  C   UNK N   1      36.691  15.084  10.751  0.00  0.00     0.194 C 
HETATM   23  O   UNK N   1      36.460  15.539  11.859  0.00  0.00    -0.645 OA
BRANCH  22  24
HETATM   24  O   UNK N   1      37.939  15.204  10.256  0.00  0.00    -0.772 OA
HETATM   25  H   UNK N   1      38.461  14.447  10.077  0.00  0.00     0.167 HD
ENDBRANCH  22  24
ENDBRANCH   7  22
BRANCH   8  26
HETATM   26  C   UNK N   1      35.993  12.192  10.813  0.00  0.00     0.218 C 
BRANCH  26  27
HETATM   27  O   UNK N   1      35.303  11.979  11.985  0.00  0.00    -0.300 OA
BRANCH  27  28
HETATM   28  C   UNK N   1      35.598  12.609  13.147  0.00  0.00     0.358 C 
HETATM   29  O   UNK N   1      34.693  12.974  13.877  0.00  0.00    -0.239 OA
HETATM   30  N   UNK N   1      36.878  12.844  13.507  0.00  0.00    -0.346 N 
HETATM   31  H   UNK N   1      37.422  12.591  14.288  0.00  0.00     0.161 HD
HETATM   32  H   UNK N   1      37.372  13.383  12.848  0.00  0.00     0.161 HD
ENDBRANCH  27  28
ENDBRANCH  26  27
ENDBRANCH   8  26
TORSDOF 9
ENDMDL
