MODEL 1
REMARK VINA RESULT:      -3.9      0.000      0.000
REMARK  6 active torsions:
REMARK  status: ('A' for Active; 'I' for Inactive)
REMARK    1  A    between atoms: C_2  and  C_1 
REMARK    2  A    between atoms: C_4  and  C_1 
REMARK    3  A    between atoms: C_4  and  C_3 
REMARK    4  A    between atoms: C_3  and  O_9 
REMARK    5  A    between atoms: O_7  and  N_5 
REMARK    6  A    between atoms: O_9  and  N_5 
ROOT
HETATM    1  C   UNK N   1      20.724  20.272   2.741  0.00  0.00     0.203 C 
ENDROOT
BRANCH   1   2
HETATM    2  C   UNK N   1      22.000  19.686   3.293  0.00  0.00     0.029 C 
BRANCH   2   3
HETATM    3  C   UNK N   1      23.147  20.517   2.776  0.00  0.00     0.002 C 
BRANCH   3   4
HETATM    4  C   UNK N   1      24.436  20.077   3.425  0.00  0.00    -0.004 C 
HETATM    5  C   UNK N   1      24.215  18.719   4.049  0.00  0.00     0.005 C 
ENDBRANCH   3   4
ENDBRANCH   2   3
ENDBRANCH   1   2
BRANCH   1   6
HETATM    6  O   UNK N   1      21.025  21.220   1.803  0.00  0.00    -0.260 OA
BRANCH   6   7
HETATM    7  N   UNK N   1      20.363  21.244   0.670  0.00  0.00    -0.174 N 
ATOM      8  HN  UNK N   1      19.656  21.961   0.507  1.00  0.00     0.223 HD
BRANCH   7   9
HETATM    9  O   UNK N   1      20.590  20.426  -0.170  0.00  0.00    -0.269 OA
ATOM     10  HO  UNK N   1      20.015  20.347  -0.922  1.00  0.00     0.246 HD
ENDBRANCH   7   9
ENDBRANCH   6   7
ENDBRANCH   1   6
TORSDOF 6
ENDMDL
MODEL 2
REMARK VINA RESULT:      -3.8      1.723      2.919
REMARK  6 active torsions:
REMARK  status: ('A' for Active; 'I' for Inactive)
REMARK    1  A    between atoms: C_2  and  C_1 
REMARK    2  A    between atoms: C_4  and  C_1 
REMARK    3  A    between atoms: C_4  and  C_3 
REMARK    4  A    between atoms: C_3  and  O_9 
REMARK    5  A    between atoms: O_7  and  N_5 
REMARK    6  A    between atoms: O_9  and  N_5 
ROOT
HETATM    1  C   UNK N   1      21.796  20.425   2.528  0.00  0.00     0.203 C 
ENDROOT
BRANCH   1   2
HETATM    2  C   UNK N   1      20.888  19.786   3.550  0.00  0.00     0.029 C 
BRANCH   2   3
HETATM    3  C   UNK N   1      20.888  18.299   3.296  0.00  0.00     0.002 C 
BRANCH   3   4
HETATM    4  C   UNK N   1      19.673  17.913   2.491  0.00  0.00    -0.004 C 
HETATM    5  C   UNK N   1      20.139  17.325   1.179  0.00  0.00     0.005 C 
ENDBRANCH   3   4
ENDBRANCH   2   3
ENDBRANCH   1   2
BRANCH   1   6
HETATM    6  O   UNK N   1      21.116  21.406   1.863  0.00  0.00    -0.260 OA
BRANCH   6   7
HETATM    7  N   UNK N   1      20.332  21.087   0.860  0.00  0.00    -0.174 N 
ATOM      8  HN  UNK N   1      19.319  21.082   0.984  1.00  0.00     0.223 HD
BRANCH   7   9
HETATM    9  O   UNK N   1      20.805  20.803  -0.199  0.00  0.00    -0.269 OA
ATOM     10  HO  UNK N   1      20.807  19.900  -0.491  1.00  0.00     0.246 HD
ENDBRANCH   7   9
ENDBRANCH   6   7
ENDBRANCH   1   6
TORSDOF 6
ENDMDL
MODEL 3
REMARK VINA RESULT:      -3.7     10.743     11.593
REMARK  6 active torsions:
REMARK  status: ('A' for Active; 'I' for Inactive)
REMARK    1  A    between atoms: C_2  and  C_1 
REMARK    2  A    between atoms: C_4  and  C_1 
REMARK    3  A    between atoms: C_4  and  C_3 
REMARK    4  A    between atoms: C_3  and  O_9 
REMARK    5  A    between atoms: O_7  and  N_5 
REMARK    6  A    between atoms: O_9  and  N_5 
ROOT
HETATM    1  C   UNK N   1      22.897  11.736  10.564  0.00  0.00     0.203 C 
ENDROOT
BRANCH   1   2
HETATM    2  C   UNK N   1      21.672  12.604  10.706  0.00  0.00     0.029 C 
BRANCH   2   3
HETATM    3  C   UNK N   1      21.754  13.687   9.660  0.00  0.00     0.002 C 
BRANCH   3   4
HETATM    4  C   UNK N   1      20.404  14.336   9.481  0.00  0.00    -0.004 C 
HETATM    5  C   UNK N   1      20.610  15.703   8.872  0.00  0.00     0.005 C 
ENDBRANCH   3   4
ENDBRANCH   2   3
ENDBRANCH   1   2
BRANCH   1   6
HETATM    6  O   UNK N   1      23.844  12.131  11.467  0.00  0.00    -0.260 OA
BRANCH   6   7
HETATM    7  N   UNK N   1      25.101  12.212  11.096  0.00  0.00    -0.174 N 
ATOM      8  HN  UNK N   1      25.571  11.395  10.704  1.00  0.00     0.223 HD
BRANCH   7   9
HETATM    9  O   UNK N   1      25.693  13.241  11.217  0.00  0.00    -0.269 OA
ATOM     10  HO  UNK N   1      26.189  13.413  12.008  1.00  0.00     0.246 HD
ENDBRANCH   7   9
ENDBRANCH   6   7
ENDBRANCH   1   6
TORSDOF 6
ENDMDL
MODEL 4
REMARK VINA RESULT:      -3.7     12.520     13.283
REMARK  6 active torsions:
REMARK  status: ('A' for Active; 'I' for Inactive)
REMARK    1  A    between atoms: C_2  and  C_1 
REMARK    2  A    between atoms: C_4  and  C_1 
REMARK    3  A    between atoms: C_4  and  C_3 
REMARK    4  A    between atoms: C_3  and  O_9 
REMARK    5  A    between atoms: O_7  and  N_5 
REMARK    6  A    between atoms: O_9  and  N_5 
ROOT
HETATM    1  C   UNK N   1      34.135  17.156   6.813  0.00  0.00     0.203 C 
ENDROOT
BRANCH   1   2
HETATM    2  C   UNK N   1      32.633  17.293   6.799  0.00  0.00     0.029 C 
BRANCH   2   3
HETATM    3  C   UNK N   1      32.183  17.248   5.360  0.00  0.00     0.002 C 
BRANCH   3   4
HETATM    4  C   UNK N   1      33.198  16.510   4.524  0.00  0.00    -0.004 C 
HETATM    5  C   UNK N   1      32.861  16.726   3.067  0.00  0.00     0.005 C 
ENDBRANCH   3   4
ENDBRANCH   2   3
ENDBRANCH   1   2
BRANCH   1   6
HETATM    6  O   UNK N   1      34.700  18.343   7.186  0.00  0.00    -0.260 OA
BRANCH   6   7
HETATM    7  N   UNK N   1      34.709  18.687   8.453  0.00  0.00    -0.174 N 
ATOM      8  HN  UNK N   1      33.968  18.362   9.076  1.00  0.00     0.223 HD
BRANCH   7   9
HETATM    9  O   UNK N   1      35.583  19.381   8.876  0.00  0.00    -0.269 OA
ATOM     10  HO  UNK N   1      36.334  18.989   9.304  1.00  0.00     0.246 HD
ENDBRANCH   7   9
ENDBRANCH   6   7
ENDBRANCH   1   6
TORSDOF 6
ENDMDL
MODEL 5
REMARK VINA RESULT:      -3.7      1.892      2.264
REMARK  6 active torsions:
REMARK  status: ('A' for Active; 'I' for Inactive)
REMARK    1  A    between atoms: C_2  and  C_1 
REMARK    2  A    between atoms: C_4  and  C_1 
REMARK    3  A    between atoms: C_4  and  C_3 
REMARK    4  A    between atoms: C_3  and  O_9 
REMARK    5  A    between atoms: O_7  and  N_5 
REMARK    6  A    between atoms: O_9  and  N_5 
ROOT
HETATM    1  C   UNK N   1      20.617  20.607   3.034  0.00  0.00     0.203 C 
ENDROOT
BRANCH   1   2
HETATM    2  C   UNK N   1      19.876  19.322   2.763  0.00  0.00     0.029 C 
BRANCH   2   3
HETATM    3  C   UNK N   1      20.502  18.245   3.612  0.00  0.00     0.002 C 
BRANCH   3   4
HETATM    4  C   UNK N   1      21.501  18.853   4.565  0.00  0.00    -0.004 C 
HETATM    5  C   UNK N   1      21.460  18.073   5.858  0.00  0.00     0.005 C 
ENDBRANCH   3   4
ENDBRANCH   2   3
ENDBRANCH   1   2
BRANCH   1   6
HETATM    6  O   UNK N   1      21.083  21.123   1.857  0.00  0.00    -0.260 OA
BRANCH   6   7
HETATM    7  N   UNK N   1      20.312  21.113   0.794  0.00  0.00    -0.174 N 
ATOM      8  HN  UNK N   1      19.310  21.281   0.888  1.00  0.00     0.223 HD
BRANCH   7   9
HETATM    9  O   UNK N   1      20.785  20.908  -0.283  0.00  0.00    -0.269 OA
ATOM     10  HO  UNK N   1      21.547  20.349  -0.368  1.00  0.00     0.246 HD
ENDBRANCH   7   9
ENDBRANCH   6   7
ENDBRANCH   1   6
TORSDOF 6
ENDMDL
MODEL 6
REMARK VINA RESULT:      -3.7     13.837     14.949
REMARK  6 active torsions:
REMARK  status: ('A' for Active; 'I' for Inactive)
REMARK    1  A    between atoms: C_2  and  C_1 
REMARK    2  A    between atoms: C_4  and  C_1 
REMARK    3  A    between atoms: C_4  and  C_3 
REMARK    4  A    between atoms: C_3  and  O_9 
REMARK    5  A    between atoms: O_7  and  N_5 
REMARK    6  A    between atoms: O_9  and  N_5 
ROOT
HETATM    1  C   UNK N   1      34.522  17.094   9.305  0.00  0.00     0.203 C 
ENDROOT
BRANCH   1   2
HETATM    2  C   UNK N   1      34.538  18.160   8.238  0.00  0.00     0.029 C 
BRANCH   2   3
HETATM    3  C   UNK N   1      33.286  18.002   7.414  0.00  0.00     0.002 C 
BRANCH   3   4
HETATM    4  C   UNK N   1      32.097  17.787   8.318  0.00  0.00    -0.004 C 
HETATM    5  C   UNK N   1      30.991  17.155   7.506  0.00  0.00     0.005 C 
ENDBRANCH   3   4
ENDBRANCH   2   3
ENDBRANCH   1   2
BRANCH   1   6
HETATM    6  O   UNK N   1      35.490  17.361  10.233  0.00  0.00    -0.260 OA
BRANCH   6   7
HETATM    7  N   UNK N   1      35.947  16.391  10.991  0.00  0.00    -0.174 N 
ATOM      8  HN  UNK N   1      35.335  15.950  11.679  1.00  0.00     0.223 HD
BRANCH   7   9
HETATM    9  O   UNK N   1      37.078  16.026  10.876  0.00  0.00    -0.269 OA
ATOM     10  HO  UNK N   1      37.275  15.243  10.378  1.00  0.00     0.246 HD
ENDBRANCH   7   9
ENDBRANCH   6   7
ENDBRANCH   1   6
TORSDOF 6
ENDMDL
MODEL 7
REMARK VINA RESULT:      -3.6      1.989      2.711
REMARK  6 active torsions:
REMARK  status: ('A' for Active; 'I' for Inactive)
REMARK    1  A    between atoms: C_2  and  C_1 
REMARK    2  A    between atoms: C_4  and  C_1 
REMARK    3  A    between atoms: C_4  and  C_3 
REMARK    4  A    between atoms: C_3  and  O_9 
REMARK    5  A    between atoms: O_7  and  N_5 
REMARK    6  A    between atoms: O_9  and  N_5 
ROOT
HETATM    1  C   UNK N   1      23.336  20.226   3.082  0.00  0.00     0.203 C 
ENDROOT
BRANCH   1   2
HETATM    2  C   UNK N   1      24.775  20.546   2.760  0.00  0.00     0.029 C 
BRANCH   2   3
HETATM    3  C   UNK N   1      25.592  20.279   3.999  0.00  0.00     0.002 C 
BRANCH   3   4
HETATM    4  C   UNK N   1      27.038  20.067   3.627  0.00  0.00    -0.004 C 
HETATM    5  C   UNK N   1      27.855  20.034   4.898  0.00  0.00     0.005 C 
ENDBRANCH   3   4
ENDBRANCH   2   3
ENDBRANCH   1   2
BRANCH   1   6
HETATM    6  O   UNK N   1      22.560  21.327   2.851  0.00  0.00    -0.260 OA
BRANCH   6   7
HETATM    7  N   UNK N   1      21.289  21.175   2.561  0.00  0.00    -0.174 N 
ATOM      8  HN  UNK N   1      20.709  20.547   3.119  1.00  0.00     0.223 HD
BRANCH   7   9
HETATM    9  O   UNK N   1      20.811  21.773   1.645  0.00  0.00    -0.269 OA
ATOM     10  HO  UNK N   1      20.487  21.300   0.888  1.00  0.00     0.246 HD
ENDBRANCH   7   9
ENDBRANCH   6   7
ENDBRANCH   1   6
TORSDOF 6
ENDMDL
MODEL 8
REMARK VINA RESULT:      -3.6      7.614      8.255
REMARK  6 active torsions:
REMARK  status: ('A' for Active; 'I' for Inactive)
REMARK    1  A    between atoms: C_2  and  C_1 
REMARK    2  A    between atoms: C_4  and  C_1 
REMARK    3  A    between atoms: C_4  and  C_3 
REMARK    4  A    between atoms: C_3  and  O_9 
REMARK    5  A    between atoms: O_7  and  N_5 
REMARK    6  A    between atoms: O_9  and  N_5 
ROOT
HETATM    1  C   UNK N   1      28.664  18.145   6.661  0.00  0.00     0.203 C 
ENDROOT
BRANCH   1   2
HETATM    2  C   UNK N   1      27.493  18.565   5.809  0.00  0.00     0.029 C 
BRANCH   2   3
HETATM    3  C   UNK N   1      27.936  19.735   4.966  0.00  0.00     0.002 C 
BRANCH   3   4
HETATM    4  C   UNK N   1      26.881  20.813   4.984  0.00  0.00    -0.004 C 
HETATM    5  C   UNK N   1      27.055  21.627   6.245  0.00  0.00     0.005 C 
ENDBRANCH   3   4
ENDBRANCH   2   3
ENDBRANCH   1   2
BRANCH   1   6
HETATM    6  O   UNK N   1      28.675  18.877   7.816  0.00  0.00    -0.260 OA
BRANCH   6   7
HETATM    7  N   UNK N   1      27.611  18.893   8.584  0.00  0.00    -0.174 N 
ATOM      8  HN  UNK N   1      26.906  19.621   8.466  1.00  0.00     0.223 HD
BRANCH   7   9
HETATM    9  O   UNK N   1      27.469  18.054   9.422  0.00  0.00    -0.269 OA
ATOM     10  HO  UNK N   1      27.486  17.136   9.182  1.00  0.00     0.246 HD
ENDBRANCH   7   9
ENDBRANCH   6   7
ENDBRANCH   1   6
TORSDOF 6
ENDMDL
MODEL 9
REMARK VINA RESULT:      -3.6      6.047      6.829
REMARK  6 active torsions:
REMARK  status: ('A' for Active; 'I' for Inactive)
REMARK    1  A    between atoms: C_2  and  C_1 
REMARK    2  A    between atoms: C_4  and  C_1 
REMARK    3  A    between atoms: C_4  and  C_3 
REMARK    4  A    between atoms: C_3  and  O_9 
REMARK    5  A    between atoms: O_7  and  N_5 
REMARK    6  A    between atoms: O_9  and  N_5 
ROOT
HETATM    1  C   UNK N   1      27.228  21.356   6.495  0.00  0.00     0.203 C 
ENDROOT
BRANCH   1   2
HETATM    2  C   UNK N   1      26.853  20.830   5.132  0.00  0.00     0.029 C 
BRANCH   2   3
HETATM    3  C   UNK N   1      27.969  19.928   4.667  0.00  0.00     0.002 C 
BRANCH   3   4
HETATM    4  C   UNK N   1      27.397  18.712   3.982  0.00  0.00    -0.004 C 
HETATM    5  C   UNK N   1      25.943  18.980   3.672  0.00  0.00     0.005 C 
ENDBRANCH   3   4
ENDBRANCH   2   3
ENDBRANCH   1   2
BRANCH   1   6
HETATM    6  O   UNK N   1      26.095  21.680   7.188  0.00  0.00    -0.260 OA
BRANCH   6   7
HETATM    7  N   UNK N   1      25.809  21.042   8.299  0.00  0.00    -0.174 N 
ATOM      8  HN  UNK N   1      26.368  20.238   8.585  1.00  0.00     0.223 HD
BRANCH   7   9
HETATM    9  O   UNK N   1      24.894  21.403   8.976  0.00  0.00    -0.269 OA
ATOM     10  HO  UNK N   1      24.263  22.022   8.629  1.00  0.00     0.246 HD
ENDBRANCH   7   9
ENDBRANCH   6   7
ENDBRANCH   1   6
TORSDOF 6
ENDMDL
