MODEL 1
REMARK VINA RESULT:      -7.8      0.000      0.000
REMARK  12 active torsions:
REMARK  status: ('A' for Active; 'I' for Inactive)
REMARK    1  A    between atoms: C_4  and  C_9 
REMARK    2  A    between atoms: C_5  and  C_18 
REMARK    3  A    between atoms: C_7  and  N_13 
REMARK    4  A    between atoms: C_9  and  O_11 
REMARK       I    between atoms: N_13  and  C_14 
REMARK    5  A    between atoms: C_14  and  C_15 
REMARK    6  A    between atoms: C_15  and  C_16 
REMARK    7  A    between atoms: C_15  and  O_33 
REMARK    8  A    between atoms: C_18  and  S_19 
REMARK    9  A    between atoms: S_19  and  C_24 
REMARK   10  A    between atoms: N_23  and  C_27 
REMARK   11  A    between atoms: C_27  and  S_34 
REMARK   12  A    between atoms: S_34  and  O_35 
ROOT
HETATM    1  S   UNK N   1      35.530  10.913   9.826  0.00  0.00    -0.136 SA
HETATM    2  C   UNK N   1      36.304  11.505  11.368  0.00  0.00     0.187 A 
HETATM    3  N   UNK N   1      36.140  12.931  11.465  0.00  0.00    -0.293 N 
HETATM    4  C   UNK N   1      36.110  13.926  10.436  0.00  0.00     0.116 C 
HETATM    5  C   UNK N   1      36.205  13.498   9.147  0.00  0.00    -0.027 C 
HETATM    6  C   UNK N   1      36.535  12.064   8.839  0.00  0.00     0.113 C 
HETATM    7  C   UNK N   1      35.280  11.384  12.626  0.00  0.00     0.210 A 
HETATM    8  C   UNK N   1      35.311  12.857  12.471  0.00  0.00     0.251 A 
HETATM    9  O   UNK N   1      34.523  13.705  12.861  0.00  0.00    -0.271 OA
ENDROOT
BRANCH   5  10
HETATM   10  C   UNK N   1      35.858  14.380   7.997  0.00  0.00     0.120 C 
BRANCH  10  11
HETATM   11  S   UNK N   1      34.359  13.620   7.278  0.00  0.00    -0.087 SA
BRANCH  11  12
HETATM   12  C   UNK N   1      33.230  14.405   8.402  0.00  0.00     0.176 A 
HETATM   13  N   UNK N   1      32.824  15.681   8.364  0.00  0.00    -0.241 N 
HETATM   14  N   UNK N   1      31.983  15.839   9.367  0.00  0.00    -0.221 N 
HETATM   15  N   UNK N   1      31.866  14.682  10.009  0.00  0.00    -0.004 NA
ATOM     16  HN  UNK N   1      31.502  16.705   9.610  1.00  0.00     0.206 HD
HETATM   17  N   UNK N   1      32.633  13.771   9.425  0.00  0.00    -0.261 N 
ATOM     18  HN  UNK N   1      32.745  12.795   9.697  1.00  0.00     0.186 HD
BRANCH  13  19
HETATM   19  C   UNK N   1      33.224  16.733   7.435  0.00  0.00     0.307 C 
BRANCH  19  20
HETATM   20  S   UNK N   1      34.727  17.577   8.020  0.00  0.00     0.114 S 
HETATM   21  O   UNK N   1      33.574  17.960   8.962  0.00  0.00    -0.600 OA
HETATM   22  O   UNK N   1      34.252  18.242   6.720  0.00  0.00    -0.600 OA
BRANCH  20  23
HETATM   23  O   UNK N   1      35.040  19.243   8.288  0.00  0.00    -0.294 OA
HETATM   24  H   UNK N   1      34.711  19.907   7.662  0.00  0.00     0.232 HD
ENDBRANCH  20  23
ENDBRANCH  19  20
ENDBRANCH  13  19
ENDBRANCH  11  12
ENDBRANCH  10  11
ENDBRANCH   5  10
BRANCH   4  25
HETATM   25  C   UNK N   1      35.867  15.374  10.793  0.00  0.00     0.194 C 
HETATM   26  O   UNK N   1      36.792  16.171  10.772  0.00  0.00    -0.645 OA
BRANCH  25  27
HETATM   27  O   UNK N   1      34.628  15.841  11.036  0.00  0.00    -0.772 OA
HETATM   28  H   UNK N   1      34.286  16.592  10.592  0.00  0.00     0.167 HD
ENDBRANCH  25  27
ENDBRANCH   4  25
BRANCH   7  29
HETATM   29  N   UNK N   1      35.786  11.079  13.952  0.00  0.00    -0.343 N 
HETATM   30  C   UNK N   1      35.113  10.570  15.013  0.00  0.00     0.251 C 
HETATM   31  O   UNK N   1      33.904  10.398  14.983  0.00  0.00    -0.270 OA
HETATM   32  H   UNK N   1      36.741  11.264  14.101  0.00  0.00     0.163 HD
BRANCH  30  33
HETATM   33  C   UNK N   1      35.903  10.128  16.202  0.00  0.00     0.243 C 
BRANCH  33  34
HETATM   34  C   UNK N   1      35.639  11.044  17.370  0.00  0.00    -0.021 A 
HETATM   35  C   UNK N   1      35.384  12.408  17.144  0.00  0.00     0.010 A 
HETATM   36  C   UNK N   1      35.172  13.274  18.220  0.00  0.00     0.001 A 
HETATM   37  C   UNK N   1      35.203  12.783  19.527  0.00  0.00     0.000 A 
HETATM   38  C   UNK N   1      35.444  11.426  19.760  0.00  0.00     0.001 A 
HETATM   39  C   UNK N   1      35.667  10.560  18.687  0.00  0.00     0.010 A 
ENDBRANCH  33  34
BRANCH  33  40
HETATM   40  O   UNK N   1      37.262  10.073  15.882  0.00  0.00    -0.381 OA
HETATM   41  H   UNK N   1      37.679   9.665  15.106  0.00  0.00     0.211 HD
ENDBRANCH  33  40
ENDBRANCH  30  33
ENDBRANCH   7  29
TORSDOF 12
ENDMDL
MODEL 2
REMARK VINA RESULT:      -7.7      2.506      3.249
REMARK  12 active torsions:
REMARK  status: ('A' for Active; 'I' for Inactive)
REMARK    1  A    between atoms: C_4  and  C_9 
REMARK    2  A    between atoms: C_5  and  C_18 
REMARK    3  A    between atoms: C_7  and  N_13 
REMARK    4  A    between atoms: C_9  and  O_11 
REMARK       I    between atoms: N_13  and  C_14 
REMARK    5  A    between atoms: C_14  and  C_15 
REMARK    6  A    between atoms: C_15  and  C_16 
REMARK    7  A    between atoms: C_15  and  O_33 
REMARK    8  A    between atoms: C_18  and  S_19 
REMARK    9  A    between atoms: S_19  and  C_24 
REMARK   10  A    between atoms: N_23  and  C_27 
REMARK   11  A    between atoms: C_27  and  S_34 
REMARK   12  A    between atoms: S_34  and  O_35 
ROOT
HETATM    1  S   UNK N   1      35.485  12.512   8.438  0.00  0.00    -0.136 SA
HETATM    2  C   UNK N   1      36.181  13.357   9.897  0.00  0.00     0.187 A 
HETATM    3  N   UNK N   1      35.617  14.677   9.995  0.00  0.00    -0.293 N 
HETATM    4  C   UNK N   1      35.212  15.584   8.963  0.00  0.00     0.116 C 
HETATM    5  C   UNK N   1      35.318  15.156   7.675  0.00  0.00    -0.027 C 
HETATM    6  C   UNK N   1      36.024  13.868   7.353  0.00  0.00     0.113 C 
HETATM    7  C   UNK N   1      35.347  12.990  11.245  0.00  0.00     0.210 A 
HETATM    8  C   UNK N   1      34.934  14.403  11.073  0.00  0.00     0.251 A 
HETATM    9  O   UNK N   1      33.970  15.001  11.526  0.00  0.00    -0.271 OA
ENDROOT
BRANCH   5  10
HETATM   10  C   UNK N   1      34.634  15.857   6.554  0.00  0.00     0.120 C 
BRANCH  10  11
HETATM   11  S   UNK N   1      33.700  14.541   5.696  0.00  0.00    -0.087 SA
BRANCH  11  12
HETATM   12  C   UNK N   1      32.452  15.627   5.050  0.00  0.00     0.176 A 
HETATM   13  N   UNK N   1      31.421  16.148   5.728  0.00  0.00    -0.241 N 
HETATM   14  N   UNK N   1      30.754  16.902   4.876  0.00  0.00    -0.221 N 
HETATM   15  N   UNK N   1      31.364  16.853   3.698  0.00  0.00    -0.004 NA
ATOM     16  HN  UNK N   1      29.910  17.435   5.088  1.00  0.00     0.206 HD
HETATM   17  N   UNK N   1      32.427  16.065   3.781  0.00  0.00    -0.261 N 
ATOM     18  HN  UNK N   1      33.086  15.840   3.037  1.00  0.00     0.186 HD
BRANCH  13  19
HETATM   19  C   UNK N   1      31.050  15.935   7.123  0.00  0.00     0.307 C 
BRANCH  19  20
HETATM   20  S   UNK N   1      30.280  17.428   7.823  0.00  0.00     0.114 S 
HETATM   21  O   UNK N   1      31.720  17.785   7.424  0.00  0.00    -0.600 OA
HETATM   22  O   UNK N   1      30.549  16.425   8.955  0.00  0.00    -0.600 OA
BRANCH  20  23
HETATM   23  O   UNK N   1      30.763  18.425   9.134  0.00  0.00    -0.294 OA
HETATM   24  H   UNK N   1      30.742  18.082  10.041  0.00  0.00     0.232 HD
ENDBRANCH  20  23
ENDBRANCH  19  20
ENDBRANCH  13  19
ENDBRANCH  11  12
ENDBRANCH  10  11
ENDBRANCH   5  10
BRANCH   4  25
HETATM   25  C   UNK N   1      34.590  16.912   9.327  0.00  0.00     0.194 C 
HETATM   26  O   UNK N   1      35.273  17.923   9.339  0.00  0.00    -0.645 OA
BRANCH  25  27
HETATM   27  O   UNK N   1      33.266  17.034   9.540  0.00  0.00    -0.772 OA
HETATM   28  H   UNK N   1      32.801  16.454  10.111  0.00  0.00     0.167 HD
ENDBRANCH  25  27
ENDBRANCH   4  25
BRANCH   7  29
HETATM   29  N   UNK N   1      36.030  12.892  12.522  0.00  0.00    -0.343 N 
HETATM   30  C   UNK N   1      35.508  12.577  13.733  0.00  0.00     0.251 C 
HETATM   31  O   UNK N   1      34.307  12.430  13.896  0.00  0.00    -0.270 OA
HETATM   32  H   UNK N   1      36.996  13.078  12.507  0.00  0.00     0.163 HD
BRANCH  30  33
HETATM   33  C   UNK N   1      36.455  12.316  14.859  0.00  0.00     0.243 C 
BRANCH  33  34
HETATM   34  C   UNK N   1      36.384  13.435  15.867  0.00  0.00    -0.021 A 
HETATM   35  C   UNK N   1      37.177  14.582  15.692  0.00  0.00     0.010 A 
HETATM   36  C   UNK N   1      37.147  15.611  16.637  0.00  0.00     0.001 A 
HETATM   37  C   UNK N   1      36.318  15.507  17.756  0.00  0.00     0.000 A 
HETATM   38  C   UNK N   1      35.517  14.375  17.932  0.00  0.00     0.001 A 
HETATM   39  C   UNK N   1      35.554  13.340  16.994  0.00  0.00     0.010 A 
ENDBRANCH  33  34
BRANCH  33  40
HETATM   40  O   UNK N   1      37.751  12.140  14.368  0.00  0.00    -0.381 OA
HETATM   41  H   UNK N   1      38.081  11.435  13.788  0.00  0.00     0.211 HD
ENDBRANCH  33  40
ENDBRANCH  30  33
ENDBRANCH   7  29
TORSDOF 12
ENDMDL
MODEL 3
REMARK VINA RESULT:      -7.7      2.862      3.850
REMARK  12 active torsions:
REMARK  status: ('A' for Active; 'I' for Inactive)
REMARK    1  A    between atoms: C_4  and  C_9 
REMARK    2  A    between atoms: C_5  and  C_18 
REMARK    3  A    between atoms: C_7  and  N_13 
REMARK    4  A    between atoms: C_9  and  O_11 
REMARK       I    between atoms: N_13  and  C_14 
REMARK    5  A    between atoms: C_14  and  C_15 
REMARK    6  A    between atoms: C_15  and  C_16 
REMARK    7  A    between atoms: C_15  and  O_33 
REMARK    8  A    between atoms: C_18  and  S_19 
REMARK    9  A    between atoms: S_19  and  C_24 
REMARK   10  A    between atoms: N_23  and  C_27 
REMARK   11  A    between atoms: C_27  and  S_34 
REMARK   12  A    between atoms: S_34  and  O_35 
ROOT
HETATM    1  S   UNK N   1      35.799  16.022  10.877  0.00  0.00    -0.136 SA
HETATM    2  C   UNK N   1      34.567  14.748  11.309  0.00  0.00     0.187 A 
HETATM    3  N   UNK N   1      34.164  14.054  10.115  0.00  0.00    -0.293 N 
HETATM    4  C   UNK N   1      34.026  14.534   8.773  0.00  0.00     0.116 C 
HETATM    5  C   UNK N   1      34.359  15.833   8.534  0.00  0.00    -0.027 C 
HETATM    6  C   UNK N   1      34.658  16.767   9.673  0.00  0.00     0.113 C 
HETATM    7  C   UNK N   1      35.286  13.364  11.772  0.00  0.00     0.210 A 
HETATM    8  C   UNK N   1      34.739  12.935  10.463  0.00  0.00     0.251 A 
HETATM    9  O   UNK N   1      35.057  11.997   9.748  0.00  0.00    -0.271 OA
ENDROOT
BRANCH   5  10
HETATM   10  C   UNK N   1      34.575  16.348   7.154  0.00  0.00     0.120 C 
BRANCH  10  11
HETATM   11  S   UNK N   1      33.493  17.818   7.043  0.00  0.00    -0.087 SA
BRANCH  11  12
HETATM   12  C   UNK N   1      32.040  16.910   6.575  0.00  0.00     0.176 A 
HETATM   13  N   UNK N   1      30.848  16.945   7.184  0.00  0.00    -0.241 N 
HETATM   14  N   UNK N   1      30.056  16.136   6.508  0.00  0.00    -0.221 N 
HETATM   15  N   UNK N   1      30.743  15.617   5.497  0.00  0.00    -0.004 NA
ATOM     16  HN  UNK N   1      29.078  15.942   6.724  1.00  0.00     0.206 HD
HETATM   17  N   UNK N   1      31.983  16.085   5.517  0.00  0.00    -0.261 N 
ATOM     18  HN  UNK N   1      32.736  15.865   4.865  1.00  0.00     0.186 HD
BRANCH  13  19
HETATM   19  C   UNK N   1      30.459  17.691   8.377  0.00  0.00     0.307 C 
BRANCH  19  20
HETATM   20  S   UNK N   1      28.700  17.420   8.765  0.00  0.00     0.114 S 
HETATM   21  O   UNK N   1      28.781  18.514   7.689  0.00  0.00    -0.600 OA
HETATM   22  O   UNK N   1      29.369  18.143   9.943  0.00  0.00    -0.600 OA
BRANCH  20  23
HETATM   23  O   UNK N   1      27.492  18.515   9.296  0.00  0.00    -0.294 OA
HETATM   24  H   UNK N   1      27.697  19.458   9.393  0.00  0.00     0.232 HD
ENDBRANCH  20  23
ENDBRANCH  19  20
ENDBRANCH  13  19
ENDBRANCH  11  12
ENDBRANCH  10  11
ENDBRANCH   5  10
BRANCH   4  25
HETATM   25  C   UNK N   1      33.632  13.582   7.668  0.00  0.00     0.194 C 
HETATM   26  O   UNK N   1      32.461  13.477   7.341  0.00  0.00    -0.645 OA
BRANCH  25  27
HETATM   27  O   UNK N   1      34.557  12.915   6.951  0.00  0.00    -0.772 OA
HETATM   28  H   UNK N   1      34.730  12.005   7.093  0.00  0.00     0.167 HD
ENDBRANCH  25  27
ENDBRANCH   4  25
BRANCH   7  29
HETATM   29  N   UNK N   1      34.676  12.529  12.790  0.00  0.00    -0.343 N 
HETATM   30  C   UNK N   1      35.276  11.886  13.821  0.00  0.00     0.251 C 
HETATM   31  O   UNK N   1      36.490  11.866  13.946  0.00  0.00    -0.270 OA
HETATM   32  H   UNK N   1      33.700  12.416  12.724  0.00  0.00     0.163 HD
BRANCH  30  33
HETATM   33  C   UNK N   1      34.404  11.274  14.870  0.00  0.00     0.243 C 
BRANCH  33  34
HETATM   34  C   UNK N   1      34.768  11.819  16.229  0.00  0.00    -0.021 A 
HETATM   35  C   UNK N   1      35.148  10.937  17.255  0.00  0.00     0.010 A 
HETATM   36  C   UNK N   1      35.453  11.425  18.528  0.00  0.00     0.001 A 
HETATM   37  C   UNK N   1      35.391  12.797  18.782  0.00  0.00     0.000 A 
HETATM   38  C   UNK N   1      35.025  13.682  17.764  0.00  0.00     0.001 A 
HETATM   39  C   UNK N   1      34.709  13.195  16.493  0.00  0.00     0.010 A 
ENDBRANCH  33  34
BRANCH  33  40
HETATM   40  O   UNK N   1      34.503   9.881  14.825  0.00  0.00    -0.381 OA
HETATM   41  H   UNK N   1      34.692   9.270  15.555  0.00  0.00     0.211 HD
ENDBRANCH  33  40
ENDBRANCH  30  33
ENDBRANCH   7  29
TORSDOF 12
ENDMDL
MODEL 4
REMARK VINA RESULT:      -7.5      2.439      2.929
REMARK  12 active torsions:
REMARK  status: ('A' for Active; 'I' for Inactive)
REMARK    1  A    between atoms: C_4  and  C_9 
REMARK    2  A    between atoms: C_5  and  C_18 
REMARK    3  A    between atoms: C_7  and  N_13 
REMARK    4  A    between atoms: C_9  and  O_11 
REMARK       I    between atoms: N_13  and  C_14 
REMARK    5  A    between atoms: C_14  and  C_15 
REMARK    6  A    between atoms: C_15  and  C_16 
REMARK    7  A    between atoms: C_15  and  O_33 
REMARK    8  A    between atoms: C_18  and  S_19 
REMARK    9  A    between atoms: S_19  and  C_24 
REMARK   10  A    between atoms: N_23  and  C_27 
REMARK   11  A    between atoms: C_27  and  S_34 
REMARK   12  A    between atoms: S_34  and  O_35 
ROOT
HETATM    1  S   UNK N   1      35.393  12.332   8.531  0.00  0.00    -0.136 SA
HETATM    2  C   UNK N   1      36.196  13.054  10.001  0.00  0.00     0.187 A 
HETATM    3  N   UNK N   1      35.739  14.407  10.175  0.00  0.00    -0.293 N 
HETATM    4  C   UNK N   1      35.373  15.388   9.198  0.00  0.00     0.116 C 
HETATM    5  C   UNK N   1      35.405  15.013   7.890  0.00  0.00    -0.027 C 
HETATM    6  C   UNK N   1      36.000  13.692   7.488  0.00  0.00     0.113 C 
HETATM    7  C   UNK N   1      35.379  12.690  11.360  0.00  0.00     0.210 A 
HETATM    8  C   UNK N   1      35.070  14.136  11.264  0.00  0.00     0.251 A 
HETATM    9  O   UNK N   1      34.170  14.784  11.774  0.00  0.00    -0.271 OA
ENDROOT
BRANCH   5  10
HETATM   10  C   UNK N   1      34.742  15.815   6.824  0.00  0.00     0.120 C 
BRANCH  10  11
HETATM   11  S   UNK N   1      33.341  14.776   6.279  0.00  0.00    -0.087 SA
BRANCH  11  12
HETATM   12  C   UNK N   1      32.086  15.831   6.961  0.00  0.00     0.176 A 
HETATM   13  N   UNK N   1      31.475  16.849   6.339  0.00  0.00    -0.241 N 
HETATM   14  N   UNK N   1      30.610  17.350   7.199  0.00  0.00    -0.221 N 
HETATM   15  N   UNK N   1      30.680  16.654   8.327  0.00  0.00    -0.004 NA
ATOM     16  HN  UNK N   1      29.990  18.141   7.026  1.00  0.00     0.206 HD
HETATM   17  N   UNK N   1      31.593  15.699   8.203  0.00  0.00    -0.261 N 
ATOM     18  HN  UNK N   1      31.863  15.010   8.905  1.00  0.00     0.186 HD
BRANCH  13  19
HETATM   19  C   UNK N   1      31.704  17.357   4.990  0.00  0.00     0.307 C 
BRANCH  19  20
HETATM   20  S   UNK N   1      30.835  16.335   3.759  0.00  0.00     0.114 S 
HETATM   21  O   UNK N   1      31.861  17.201   3.012  0.00  0.00    -0.600 OA
HETATM   22  O   UNK N   1      29.880  17.422   4.273  0.00  0.00    -0.600 OA
BRANCH  20  23
HETATM   23  O   UNK N   1      29.952  16.784   2.358  0.00  0.00    -0.294 OA
HETATM   24  H   UNK N   1      29.220  17.418   2.425  0.00  0.00     0.232 HD
ENDBRANCH  20  23
ENDBRANCH  19  20
ENDBRANCH  13  19
ENDBRANCH  11  12
ENDBRANCH  10  11
ENDBRANCH   5  10
BRANCH   4  25
HETATM   25  C   UNK N   1      34.866  16.741   9.641  0.00  0.00     0.194 C 
HETATM   26  O   UNK N   1      35.654  17.650   9.847  0.00  0.00    -0.645 OA
BRANCH  25  27
HETATM   27  O   UNK N   1      33.548  17.009   9.715  0.00  0.00    -0.772 OA
HETATM   28  H   UNK N   1      33.221  17.763  10.165  0.00  0.00     0.167 HD
ENDBRANCH  25  27
ENDBRANCH   4  25
BRANCH   7  29
HETATM   29  N   UNK N   1      36.091  12.482  12.607  0.00  0.00    -0.343 N 
HETATM   30  C   UNK N   1      35.588  12.132  13.816  0.00  0.00     0.251 C 
HETATM   31  O   UNK N   1      34.385  12.046  14.009  0.00  0.00    -0.270 OA
HETATM   32  H   UNK N   1      37.067  12.612  12.571  0.00  0.00     0.163 HD
BRANCH  30  33
HETATM   33  C   UNK N   1      36.549  11.754  14.895  0.00  0.00     0.243 C 
BRANCH  33  34
HETATM   34  C   UNK N   1      36.008  12.168  16.241  0.00  0.00    -0.021 A 
HETATM   35  C   UNK N   1      35.809  13.531  16.523  0.00  0.00     0.010 A 
HETATM   36  C   UNK N   1      35.341  13.930  17.778  0.00  0.00     0.001 A 
HETATM   37  C   UNK N   1      35.059  12.972  18.754  0.00  0.00     0.000 A 
HETATM   38  C   UNK N   1      35.243  11.615  18.478  0.00  0.00     0.001 A 
HETATM   39  C   UNK N   1      35.721  11.214  17.227  0.00  0.00     0.010 A 
ENDBRANCH  33  34
BRANCH  33  40
HETATM   40  O   UNK N   1      37.802  12.319  14.643  0.00  0.00    -0.381 OA
HETATM   41  H   UNK N   1      38.665  12.042  14.990  0.00  0.00     0.211 HD
ENDBRANCH  33  40
ENDBRANCH  30  33
ENDBRANCH   7  29
TORSDOF 12
ENDMDL
MODEL 5
REMARK VINA RESULT:      -7.4      2.274      3.030
REMARK  12 active torsions:
REMARK  status: ('A' for Active; 'I' for Inactive)
REMARK    1  A    between atoms: C_4  and  C_9 
REMARK    2  A    between atoms: C_5  and  C_18 
REMARK    3  A    between atoms: C_7  and  N_13 
REMARK    4  A    between atoms: C_9  and  O_11 
REMARK       I    between atoms: N_13  and  C_14 
REMARK    5  A    between atoms: C_14  and  C_15 
REMARK    6  A    between atoms: C_15  and  C_16 
REMARK    7  A    between atoms: C_15  and  O_33 
REMARK    8  A    between atoms: C_18  and  S_19 
REMARK    9  A    between atoms: S_19  and  C_24 
REMARK   10  A    between atoms: N_23  and  C_27 
REMARK   11  A    between atoms: C_27  and  S_34 
REMARK   12  A    between atoms: S_34  and  O_35 
ROOT
HETATM    1  S   UNK N   1      35.087  11.003   9.502  0.00  0.00    -0.136 SA
HETATM    2  C   UNK N   1      35.963  11.540  11.009  0.00  0.00     0.187 A 
HETATM    3  N   UNK N   1      36.025  12.977  11.037  0.00  0.00    -0.293 N 
HETATM    4  C   UNK N   1      36.137  13.914   9.960  0.00  0.00     0.116 C 
HETATM    5  C   UNK N   1      36.148  13.416   8.692  0.00  0.00    -0.027 C 
HETATM    6  C   UNK N   1      36.246  11.934   8.454  0.00  0.00     0.113 C 
HETATM    7  C   UNK N   1      34.949  11.641  12.277  0.00  0.00     0.210 A 
HETATM    8  C   UNK N   1      35.207  13.083  12.049  0.00  0.00     0.251 A 
HETATM    9  O   UNK N   1      34.567  14.061  12.401  0.00  0.00    -0.271 OA
ENDROOT
BRANCH   5  10
HETATM   10  C   UNK N   1      35.928  14.285   7.503  0.00  0.00     0.120 C 
BRANCH  10  11
HETATM   11  S   UNK N   1      34.139  14.139   7.158  0.00  0.00    -0.087 SA
BRANCH  11  12
HETATM   12  C   UNK N   1      33.966  15.788   6.523  0.00  0.00     0.176 A 
HETATM   13  N   UNK N   1      33.341  16.146   5.393  0.00  0.00    -0.241 N 
HETATM   14  N   UNK N   1      33.437  17.459   5.309  0.00  0.00    -0.221 N 
HETATM   15  N   UNK N   1      34.103  17.904   6.368  0.00  0.00    -0.004 NA
ATOM     16  HN  UNK N   1      33.063  18.036   4.556  1.00  0.00     0.206 HD
HETATM   17  N   UNK N   1      34.443  16.881   7.141  0.00  0.00    -0.261 N 
ATOM     18  HN  UNK N   1      34.958  16.918   8.020  1.00  0.00     0.186 HD
BRANCH  13  19
HETATM   19  C   UNK N   1      32.689  15.291   4.406  0.00  0.00     0.307 C 
BRANCH  19  20
HETATM   20  S   UNK N   1      33.915  14.558   3.276  0.00  0.00     0.114 S 
HETATM   21  O   UNK N   1      33.344  15.816   2.601  0.00  0.00    -0.600 OA
HETATM   22  O   UNK N   1      32.662  13.670   3.303  0.00  0.00    -0.600 OA
BRANCH  20  23
HETATM   23  O   UNK N   1      33.761  14.037   1.649  0.00  0.00    -0.294 OA
HETATM   24  H   UNK N   1      34.374  13.376   1.289  0.00  0.00     0.232 HD
ENDBRANCH  20  23
ENDBRANCH  19  20
ENDBRANCH  13  19
ENDBRANCH  11  12
ENDBRANCH  10  11
ENDBRANCH   5  10
BRANCH   4  25
HETATM   25  C   UNK N   1      36.129  15.398  10.246  0.00  0.00     0.194 C 
HETATM   26  O   UNK N   1      35.130  16.059  10.012  0.00  0.00    -0.645 OA
BRANCH  25  27
HETATM   27  O   UNK N   1      37.165  16.003  10.857  0.00  0.00    -0.772 OA
HETATM   28  H   UNK N   1      38.034  15.653  10.820  0.00  0.00     0.167 HD
ENDBRANCH  25  27
ENDBRANCH   4  25
BRANCH   7  29
HETATM   29  N   UNK N   1      35.418  11.325  13.614  0.00  0.00    -0.343 N 
HETATM   30  C   UNK N   1      34.706  10.849  14.665  0.00  0.00     0.251 C 
HETATM   31  O   UNK N   1      33.492  10.725  14.613  0.00  0.00    -0.270 OA
HETATM   32  H   UNK N   1      36.377  11.473  13.779  0.00  0.00     0.163 HD
BRANCH  30  33
HETATM   33  C   UNK N   1      35.457  10.384  15.870  0.00  0.00     0.243 C 
BRANCH  33  34
HETATM   34  C   UNK N   1      35.372  11.419  16.965  0.00  0.00    -0.021 A 
HETATM   35  C   UNK N   1      35.392  11.013  18.310  0.00  0.00     0.010 A 
HETATM   36  C   UNK N   1      35.279  11.958  19.333  0.00  0.00     0.001 A 
HETATM   37  C   UNK N   1      35.156  13.314  19.020  0.00  0.00     0.000 A 
HETATM   38  C   UNK N   1      35.147  13.726  17.685  0.00  0.00     0.001 A 
HETATM   39  C   UNK N   1      35.249  12.782  16.660  0.00  0.00     0.010 A 
ENDBRANCH  33  34
BRANCH  33  40
HETATM   40  O   UNK N   1      36.780  10.094  15.530  0.00  0.00    -0.381 OA
HETATM   41  H   UNK N   1      37.498   9.800  16.113  0.00  0.00     0.211 HD
ENDBRANCH  33  40
ENDBRANCH  30  33
ENDBRANCH   7  29
TORSDOF 12
ENDMDL
MODEL 6
REMARK VINA RESULT:      -7.1      8.176     11.304
REMARK  12 active torsions:
REMARK  status: ('A' for Active; 'I' for Inactive)
REMARK    1  A    between atoms: C_4  and  C_9 
REMARK    2  A    between atoms: C_5  and  C_18 
REMARK    3  A    between atoms: C_7  and  N_13 
REMARK    4  A    between atoms: C_9  and  O_11 
REMARK       I    between atoms: N_13  and  C_14 
REMARK    5  A    between atoms: C_14  and  C_15 
REMARK    6  A    between atoms: C_15  and  C_16 
REMARK    7  A    between atoms: C_15  and  O_33 
REMARK    8  A    between atoms: C_18  and  S_19 
REMARK    9  A    between atoms: S_19  and  C_24 
REMARK   10  A    between atoms: N_23  and  C_27 
REMARK   11  A    between atoms: C_27  and  S_34 
REMARK   12  A    between atoms: S_34  and  O_35 
ROOT
HETATM    1  S   UNK N   1      27.684  16.405   5.173  0.00  0.00    -0.136 SA
HETATM    2  C   UNK N   1      29.101  17.443   5.667  0.00  0.00     0.187 A 
HETATM    3  N   UNK N   1      28.615  18.659   6.262  0.00  0.00    -0.293 N 
HETATM    4  C   UNK N   1      27.438  19.421   5.969  0.00  0.00     0.116 C 
HETATM    5  C   UNK N   1      26.597  18.934   5.015  0.00  0.00    -0.027 C 
HETATM    6  C   UNK N   1      26.999  17.758   4.169  0.00  0.00     0.113 C 
HETATM    7  C   UNK N   1      29.645  17.034   7.144  0.00  0.00     0.210 A 
HETATM    8  C   UNK N   1      29.037  18.349   7.458  0.00  0.00     0.251 A 
HETATM    9  O   UNK N   1      28.674  18.812   8.528  0.00  0.00    -0.271 OA
ENDROOT
BRANCH   5  10
HETATM   10  C   UNK N   1      25.206  19.443   4.858  0.00  0.00     0.120 C 
BRANCH  10  11
HETATM   11  S   UNK N   1      24.372  18.179   3.835  0.00  0.00    -0.087 SA
BRANCH  11  12
HETATM   12  C   UNK N   1      22.884  18.148   4.804  0.00  0.00     0.176 A 
HETATM   13  N   UNK N   1      21.642  18.391   4.366  0.00  0.00    -0.241 N 
HETATM   14  N   UNK N   1      20.842  18.249   5.404  0.00  0.00    -0.221 N 
HETATM   15  N   UNK N   1      21.574  17.918   6.462  0.00  0.00    -0.004 NA
ATOM     16  HN  UNK N   1      19.829  18.372   5.397  1.00  0.00     0.206 HD
HETATM   17  N   UNK N   1      22.851  17.848   6.113  0.00  0.00    -0.261 N 
ATOM     18  HN  UNK N   1      23.642  17.614   6.713  1.00  0.00     0.186 HD
BRANCH  13  19
HETATM   19  C   UNK N   1      21.210  18.767   3.023  0.00  0.00     0.307 C 
BRANCH  19  20
HETATM   20  S   UNK N   1      21.786  20.443   2.604  0.00  0.00     0.114 S 
HETATM   21  O   UNK N   1      20.625  20.580   3.601  0.00  0.00    -0.600 OA
HETATM   22  O   UNK N   1      21.044  19.851   1.397  0.00  0.00    -0.600 OA
BRANCH  20  23
HETATM   23  O   UNK N   1      20.937  21.787   1.961  0.00  0.00    -0.294 OA
HETATM   24  H   UNK N   1      20.860  21.901   1.000  0.00  0.00     0.232 HD
ENDBRANCH  20  23
ENDBRANCH  19  20
ENDBRANCH  13  19
ENDBRANCH  11  12
ENDBRANCH  10  11
ENDBRANCH   5  10
BRANCH   4  25
HETATM   25  C   UNK N   1      27.114  20.652   6.782  0.00  0.00     0.194 C 
HETATM   26  O   UNK N   1      27.454  21.754   6.383  0.00  0.00    -0.645 OA
BRANCH  25  27
HETATM   27  O   UNK N   1      26.362  20.582   7.897  0.00  0.00    -0.772 OA
HETATM   28  H   UNK N   1      26.485  19.907   8.535  0.00  0.00     0.167 HD
ENDBRANCH  25  27
ENDBRANCH   4  25
BRANCH   7  29
HETATM   29  N   UNK N   1      31.061  17.129   7.453  0.00  0.00    -0.343 N 
HETATM   30  C   UNK N   1      32.026  16.196   7.269  0.00  0.00     0.251 C 
HETATM   31  O   UNK N   1      31.762  15.066   6.888  0.00  0.00    -0.270 OA
HETATM   32  H   UNK N   1      31.358  17.981   7.847  0.00  0.00     0.163 HD
BRANCH  30  33
HETATM   33  C   UNK N   1      33.450  16.612   7.453  0.00  0.00     0.243 C 
BRANCH  33  34
HETATM   34  C   UNK N   1      33.939  16.198   8.818  0.00  0.00    -0.021 A 
HETATM   35  C   UNK N   1      34.821  17.033   9.526  0.00  0.00     0.010 A 
HETATM   36  C   UNK N   1      35.310  16.644  10.776  0.00  0.00     0.001 A 
HETATM   37  C   UNK N   1      34.914  15.426  11.332  0.00  0.00     0.000 A 
HETATM   38  C   UNK N   1      34.029  14.594  10.640  0.00  0.00     0.001 A 
HETATM   39  C   UNK N   1      33.547  14.976   9.385  0.00  0.00     0.010 A 
ENDBRANCH  33  34
BRANCH  33  40
HETATM   40  O   UNK N   1      33.579  17.988   7.250  0.00  0.00    -0.381 OA
HETATM   41  H   UNK N   1      33.267  18.709   7.819  0.00  0.00     0.211 HD
ENDBRANCH  33  40
ENDBRANCH  30  33
ENDBRANCH   7  29
TORSDOF 12
ENDMDL
MODEL 7
REMARK VINA RESULT:      -7.0      9.874     13.035
REMARK  12 active torsions:
REMARK  status: ('A' for Active; 'I' for Inactive)
REMARK    1  A    between atoms: C_4  and  C_9 
REMARK    2  A    between atoms: C_5  and  C_18 
REMARK    3  A    between atoms: C_7  and  N_13 
REMARK    4  A    between atoms: C_9  and  O_11 
REMARK       I    between atoms: N_13  and  C_14 
REMARK    5  A    between atoms: C_14  and  C_15 
REMARK    6  A    between atoms: C_15  and  C_16 
REMARK    7  A    between atoms: C_15  and  O_33 
REMARK    8  A    between atoms: C_18  and  S_19 
REMARK    9  A    between atoms: S_19  and  C_24 
REMARK   10  A    between atoms: N_23  and  C_27 
REMARK   11  A    between atoms: C_27  and  S_34 
REMARK   12  A    between atoms: S_34  and  O_35 
ROOT
HETATM    1  S   UNK N   1      25.983  17.670   3.582  0.00  0.00    -0.136 SA
HETATM    2  C   UNK N   1      26.268  17.378   5.360  0.00  0.00     0.187 A 
HETATM    3  N   UNK N   1      25.650  16.137   5.742  0.00  0.00    -0.293 N 
HETATM    4  C   UNK N   1      24.453  15.517   5.258  0.00  0.00     0.116 C 
HETATM    5  C   UNK N   1      23.787  16.142   4.248  0.00  0.00    -0.027 C 
HETATM    6  C   UNK N   1      24.185  17.525   3.810  0.00  0.00     0.113 C 
HETATM    7  C   UNK N   1      27.700  16.649   5.616  0.00  0.00     0.210 A 
HETATM    8  C   UNK N   1      26.787  15.529   5.948  0.00  0.00     0.251 A 
HETATM    9  O   UNK N   1      27.001  14.328   5.995  0.00  0.00    -0.271 OA
ENDROOT
BRANCH   5  10
HETATM   10  C   UNK N   1      22.741  15.448   3.447  0.00  0.00     0.120 C 
BRANCH  10  11
HETATM   11  S   UNK N   1      21.178  16.256   3.944  0.00  0.00    -0.087 SA
BRANCH  11  12
HETATM   12  C   UNK N   1      20.698  16.701   2.294  0.00  0.00     0.176 A 
HETATM   13  N   UNK N   1      20.219  17.887   1.895  0.00  0.00    -0.241 N 
HETATM   14  N   UNK N   1      20.007  17.790   0.597  0.00  0.00    -0.221 N 
HETATM   15  N   UNK N   1      20.353  16.571   0.200  0.00  0.00    -0.004 NA
ATOM     16  HN  UNK N   1      19.638  18.528  -0.002  1.00  0.00     0.206 HD
HETATM   17  N   UNK N   1      20.789  15.873   1.240  0.00  0.00    -0.261 N 
ATOM     18  HN  UNK N   1      21.122  14.910   1.239  1.00  0.00     0.186 HD
BRANCH  13  19
HETATM   19  C   UNK N   1      19.945  19.073   2.700  0.00  0.00     0.307 C 
BRANCH  19  20
HETATM   20  S   UNK N   1      21.444  20.090   2.885  0.00  0.00     0.114 S 
HETATM   21  O   UNK N   1      20.368  20.662   3.821  0.00  0.00    -0.600 OA
HETATM   22  O   UNK N   1      20.803  20.383   1.520  0.00  0.00    -0.600 OA
BRANCH  20  23
HETATM   23  O   UNK N   1      21.678  21.779   2.688  0.00  0.00    -0.294 OA
HETATM   24  H   UNK N   1      20.919  22.362   2.532  0.00  0.00     0.232 HD
ENDBRANCH  20  23
ENDBRANCH  19  20
ENDBRANCH  13  19
ENDBRANCH  11  12
ENDBRANCH  10  11
ENDBRANCH   5  10
BRANCH   4  25
HETATM   25  C   UNK N   1      24.034  14.166   5.790  0.00  0.00     0.194 C 
HETATM   26  O   UNK N   1      23.230  14.093   6.705  0.00  0.00    -0.645 OA
BRANCH  25  27
HETATM   27  O   UNK N   1      24.446  13.023   5.209  0.00  0.00    -0.772 OA
HETATM   28  H   UNK N   1      25.090  13.018   4.529  0.00  0.00     0.167 HD
ENDBRANCH  25  27
ENDBRANCH   4  25
BRANCH   7  29
HETATM   29  N   UNK N   1      28.468  16.948   6.811  0.00  0.00    -0.343 N 
HETATM   30  C   UNK N   1      29.811  17.073   6.938  0.00  0.00     0.251 C 
HETATM   31  O   UNK N   1      30.569  16.833   6.010  0.00  0.00    -0.270 OA
HETATM   32  H   UNK N   1      27.946  17.078   7.635  0.00  0.00     0.163 HD
BRANCH  30  33
HETATM   33  C   UNK N   1      30.349  17.612   8.224  0.00  0.00     0.243 C 
BRANCH  33  34
HETATM   34  C   UNK N   1      31.801  17.236   8.377  0.00  0.00    -0.021 A 
HETATM   35  C   UNK N   1      32.800  18.185   8.098  0.00  0.00     0.010 A 
HETATM   36  C   UNK N   1      34.150  17.839   8.201  0.00  0.00     0.001 A 
HETATM   37  C   UNK N   1      34.511  16.549   8.594  0.00  0.00     0.000 A 
HETATM   38  C   UNK N   1      33.525  15.603   8.885  0.00  0.00     0.001 A 
HETATM   39  C   UNK N   1      32.174  15.943   8.772  0.00  0.00     0.010 A 
ENDBRANCH  33  34
BRANCH  33  40
HETATM   40  O   UNK N   1      29.578  17.156   9.296  0.00  0.00    -0.381 OA
HETATM   41  H   UNK N   1      28.633  16.936   9.304  0.00  0.00     0.211 HD
ENDBRANCH  33  40
ENDBRANCH  30  33
ENDBRANCH   7  29
TORSDOF 12
ENDMDL
MODEL 8
REMARK VINA RESULT:      -7.0      5.369      8.109
REMARK  12 active torsions:
REMARK  status: ('A' for Active; 'I' for Inactive)
REMARK    1  A    between atoms: C_4  and  C_9 
REMARK    2  A    between atoms: C_5  and  C_18 
REMARK    3  A    between atoms: C_7  and  N_13 
REMARK    4  A    between atoms: C_9  and  O_11 
REMARK       I    between atoms: N_13  and  C_14 
REMARK    5  A    between atoms: C_14  and  C_15 
REMARK    6  A    between atoms: C_15  and  C_16 
REMARK    7  A    between atoms: C_15  and  O_33 
REMARK    8  A    between atoms: C_18  and  S_19 
REMARK    9  A    between atoms: S_19  and  C_24 
REMARK   10  A    between atoms: N_23  and  C_27 
REMARK   11  A    between atoms: C_27  and  S_34 
REMARK   12  A    between atoms: S_34  and  O_35 
ROOT
HETATM    1  S   UNK N   1      30.941  17.931   8.662  0.00  0.00    -0.136 SA
HETATM    2  C   UNK N   1      32.204  16.689   8.223  0.00  0.00     0.187 A 
HETATM    3  N   UNK N   1      32.398  16.693   6.798  0.00  0.00    -0.293 N 
HETATM    4  C   UNK N   1      31.462  16.937   5.742  0.00  0.00     0.116 C 
HETATM    5  C   UNK N   1      30.188  17.263   6.095  0.00  0.00    -0.027 C 
HETATM    6  C   UNK N   1      29.743  17.164   7.528  0.00  0.00     0.113 C 
HETATM    7  C   UNK N   1      33.704  17.305   8.346  0.00  0.00     0.210 A 
HETATM    8  C   UNK N   1      33.602  17.193   6.872  0.00  0.00     0.251 A 
HETATM    9  O   UNK N   1      34.240  17.754   5.995  0.00  0.00    -0.271 OA
ENDROOT
BRANCH   5  10
HETATM   10  C   UNK N   1      29.227  17.854   5.123  0.00  0.00     0.120 C 
BRANCH  10  11
HETATM   11  S   UNK N   1      27.966  18.667   6.166  0.00  0.00    -0.087 SA
BRANCH  11  12
HETATM   12  C   UNK N   1      26.641  17.587   5.683  0.00  0.00     0.176 A 
HETATM   13  N   UNK N   1      25.886  17.694   4.582  0.00  0.00    -0.241 N 
HETATM   14  N   UNK N   1      25.037  16.686   4.609  0.00  0.00    -0.221 N 
HETATM   15  N   UNK N   1      25.267  15.966   5.700  0.00  0.00    -0.004 NA
ATOM     16  HN  UNK N   1      24.323  16.491   3.907  1.00  0.00     0.206 HD
HETATM   17  N   UNK N   1      26.264  16.507   6.387  0.00  0.00    -0.261 N 
ATOM     18  HN  UNK N   1      26.661  16.173   7.265  1.00  0.00     0.186 HD
BRANCH  13  19
HETATM   19  C   UNK N   1      25.935  18.719   3.544  0.00  0.00     0.307 C 
BRANCH  19  20
HETATM   20  S   UNK N   1      24.901  20.147   3.995  0.00  0.00     0.114 S 
HETATM   21  O   UNK N   1      23.970  19.033   3.491  0.00  0.00    -0.600 OA
HETATM   22  O   UNK N   1      25.666  20.470   2.703  0.00  0.00    -0.600 OA
BRANCH  20  23
HETATM   23  O   UNK N   1      23.763  21.039   3.069  0.00  0.00    -0.294 OA
HETATM   24  H   UNK N   1      23.632  20.835   2.130  0.00  0.00     0.232 HD
ENDBRANCH  20  23
ENDBRANCH  19  20
ENDBRANCH  13  19
ENDBRANCH  11  12
ENDBRANCH  10  11
ENDBRANCH   5  10
BRANCH   4  25
HETATM   25  C   UNK N   1      31.928  16.937   4.304  0.00  0.00     0.194 C 
HETATM   26  O   UNK N   1      31.922  15.900   3.661  0.00  0.00    -0.645 OA
BRANCH  25  27
HETATM   27  O   UNK N   1      32.257  18.079   3.671  0.00  0.00    -0.772 OA
HETATM   28  H   UNK N   1      31.948  18.913   3.964  0.00  0.00     0.167 HD
ENDBRANCH  25  27
ENDBRANCH   4  25
BRANCH   7  29
HETATM   29  N   UNK N   1      34.807  16.461   8.768  0.00  0.00    -0.343 N 
HETATM   30  C   UNK N   1      35.300  16.282  10.018  0.00  0.00     0.251 C 
HETATM   31  O   UNK N   1      34.897  16.937  10.966  0.00  0.00    -0.270 OA
HETATM   32  H   UNK N   1      35.255  15.952   8.054  0.00  0.00     0.163 HD
BRANCH  30  33
HETATM   33  C   UNK N   1      36.293  15.185  10.231  0.00  0.00     0.243 C 
BRANCH  33  34
HETATM   34  C   UNK N   1      35.867  14.319  11.390  0.00  0.00    -0.021 A 
HETATM   35  C   UNK N   1      35.133  13.145  11.149  0.00  0.00     0.010 A 
HETATM   36  C   UNK N   1      34.701  12.351  12.216  0.00  0.00     0.001 A 
HETATM   37  C   UNK N   1      35.009  12.719  13.527  0.00  0.00     0.000 A 
HETATM   38  C   UNK N   1      35.748  13.879  13.775  0.00  0.00     0.001 A 
HETATM   39  C   UNK N   1      36.171  14.679  12.710  0.00  0.00     0.010 A 
ENDBRANCH  33  34
BRANCH  33  40
HETATM   40  O   UNK N   1      37.568  15.722  10.425  0.00  0.00    -0.381 OA
HETATM   41  H   UNK N   1      38.371  15.265  10.721  0.00  0.00     0.211 HD
ENDBRANCH  33  40
ENDBRANCH  30  33
ENDBRANCH   7  29
TORSDOF 12
ENDMDL
MODEL 9
REMARK VINA RESULT:      -6.8      3.110      3.745
REMARK  12 active torsions:
REMARK  status: ('A' for Active; 'I' for Inactive)
REMARK    1  A    between atoms: C_4  and  C_9 
REMARK    2  A    between atoms: C_5  and  C_18 
REMARK    3  A    between atoms: C_7  and  N_13 
REMARK    4  A    between atoms: C_9  and  O_11 
REMARK       I    between atoms: N_13  and  C_14 
REMARK    5  A    between atoms: C_14  and  C_15 
REMARK    6  A    between atoms: C_15  and  C_16 
REMARK    7  A    between atoms: C_15  and  O_33 
REMARK    8  A    between atoms: C_18  and  S_19 
REMARK    9  A    between atoms: S_19  and  C_24 
REMARK   10  A    between atoms: N_23  and  C_27 
REMARK   11  A    between atoms: C_27  and  S_34 
REMARK   12  A    between atoms: S_34  and  O_35 
ROOT
HETATM    1  S   UNK N   1      35.664  12.501   8.703  0.00  0.00    -0.136 SA
HETATM    2  C   UNK N   1      36.338  13.543  10.040  0.00  0.00     0.187 A 
HETATM    3  N   UNK N   1      35.676  14.821  10.026  0.00  0.00    -0.293 N 
HETATM    4  C   UNK N   1      35.168  15.582   8.924  0.00  0.00     0.116 C 
HETATM    5  C   UNK N   1      35.266  15.032   7.683  0.00  0.00    -0.027 C 
HETATM    6  C   UNK N   1      36.060  13.773   7.465  0.00  0.00     0.113 C 
HETATM    7  C   UNK N   1      35.578  13.258  11.450  0.00  0.00     0.210 A 
HETATM    8  C   UNK N   1      35.051  14.611  11.153  0.00  0.00     0.251 A 
HETATM    9  O   UNK N   1      34.058  15.179  11.580  0.00  0.00    -0.271 OA
ENDROOT
BRANCH   5  10
HETATM   10  C   UNK N   1      34.493  15.560   6.524  0.00  0.00     0.120 C 
BRANCH  10  11
HETATM   11  S   UNK N   1      33.310  14.226   6.121  0.00  0.00    -0.087 SA
BRANCH  11  12
HETATM   12  C   UNK N   1      33.405  14.457   4.363  0.00  0.00     0.176 A 
HETATM   13  N   UNK N   1      32.408  14.836   3.553  0.00  0.00    -0.241 N 
HETATM   14  N   UNK N   1      32.912  14.894   2.336  0.00  0.00    -0.221 N 
HETATM   15  N   UNK N   1      34.197  14.564   2.393  0.00  0.00    -0.004 NA
ATOM     16  HN  UNK N   1      32.401  15.151   1.492  1.00  0.00     0.206 HD
HETATM   17  N   UNK N   1      34.529  14.289   3.647  0.00  0.00    -0.261 N 
ATOM     18  HN  UNK N   1      35.446  14.007   3.994  1.00  0.00     0.186 HD
BRANCH  13  19
HETATM   19  C   UNK N   1      31.017  15.115   3.895  0.00  0.00     0.307 C 
BRANCH  19  20
HETATM   20  S   UNK N   1      30.852  16.774   4.627  0.00  0.00     0.114 S 
HETATM   21  O   UNK N   1      29.498  16.061   4.767  0.00  0.00    -0.600 OA
HETATM   22  O   UNK N   1      30.937  16.906   3.100  0.00  0.00    -0.600 OA
BRANCH  20  23
HETATM   23  O   UNK N   1      29.755  18.046   4.275  0.00  0.00    -0.294 OA
HETATM   24  H   UNK N   1      30.045  18.810   3.753  0.00  0.00     0.232 HD
ENDBRANCH  20  23
ENDBRANCH  19  20
ENDBRANCH  13  19
ENDBRANCH  11  12
ENDBRANCH  10  11
ENDBRANCH   5  10
BRANCH   4  25
HETATM   25  C   UNK N   1      34.456  16.891   9.176  0.00  0.00     0.194 C 
HETATM   26  O   UNK N   1      35.079  17.940   9.143  0.00  0.00    -0.645 OA
BRANCH  25  27
HETATM   27  O   UNK N   1      33.120  16.946   9.335  0.00  0.00    -0.772 OA
HETATM   28  H   UNK N   1      32.631  17.721   9.141  0.00  0.00     0.167 HD
ENDBRANCH  25  27
ENDBRANCH   4  25
BRANCH   7  29
HETATM   29  N   UNK N   1      36.307  13.344  12.702  0.00  0.00    -0.343 N 
HETATM   30  C   UNK N   1      35.857  13.096  13.957  0.00  0.00     0.251 C 
HETATM   31  O   UNK N   1      34.681  12.853  14.180  0.00  0.00    -0.270 OA
HETATM   32  H   UNK N   1      37.250  13.618  12.632  0.00  0.00     0.163 HD
BRANCH  30  33
HETATM   33  C   UNK N   1      36.860  13.032  15.063  0.00  0.00     0.243 C 
BRANCH  33  34
HETATM   34  C   UNK N   1      36.189  12.609  16.346  0.00  0.00    -0.021 A 
HETATM   35  C   UNK N   1      35.694  13.584  17.229  0.00  0.00     0.010 A 
HETATM   36  C   UNK N   1      35.103  13.207  18.437  0.00  0.00     0.001 A 
HETATM   37  C   UNK N   1      34.993  11.855  18.768  0.00  0.00     0.000 A 
HETATM   38  C   UNK N   1      35.472  10.878  17.890  0.00  0.00     0.001 A 
HETATM   39  C   UNK N   1      36.073  11.253  16.686  0.00  0.00     0.010 A 
ENDBRANCH  33  34
BRANCH  33  40
HETATM   40  O   UNK N   1      37.509  14.262  15.196  0.00  0.00    -0.381 OA
HETATM   41  H   UNK N   1      38.397  14.506  14.891  0.00  0.00     0.211 HD
ENDBRANCH  33  40
ENDBRANCH  30  33
ENDBRANCH   7  29
TORSDOF 12
ENDMDL
