MODEL 1
REMARK VINA RESULT:      -9.0      0.000      0.000
REMARK  10 active torsions:
REMARK  status: ('A' for Active; 'I' for Inactive)
REMARK    1  A    between atoms: C_3  and  C_23 
REMARK    2  A    between atoms: C_4  and  C_14 
REMARK    3  A    between atoms: C_7  and  N_9 
REMARK       I    between atoms: N_9  and  C_10 
REMARK    4  A    between atoms: C_10  and  C_13 
REMARK    5  A    between atoms: C_13  and  C_15 
REMARK    6  A    between atoms: C_14  and  S_26 
REMARK    7  A    between atoms: C_18  and  N_28 
REMARK    8  A    between atoms: N_21  and  O_38 
REMARK    9  A    between atoms: C_23  and  O_24 
REMARK   10  A    between atoms: S_26  and  C_27 
ROOT
HETATM    1  C   UNK N   1      31.079  16.828   7.038  0.00  0.00     0.187 A 
HETATM    2  N   UNK N   1      30.058  17.690   7.533  0.00  0.00    -0.293 N 
HETATM    3  C   UNK N   1      28.888  18.141   6.847  0.00  0.00     0.116 C 
HETATM    4  C   UNK N   1      28.764  17.754   5.543  0.00  0.00    -0.027 C 
HETATM    5  C   UNK N   1      29.811  16.870   4.897  0.00  0.00     0.113 C 
HETATM    6  S   UNK N   1      31.516  17.366   5.365  0.00  0.00    -0.136 SA
HETATM    7  C   UNK N   1      31.959  17.278   8.319  0.00  0.00     0.211 A 
HETATM    8  C   UNK N   1      30.704  18.012   8.611  0.00  0.00     0.251 A 
HETATM    9  O   UNK N   1      30.420  18.837   9.463  0.00  0.00    -0.271 OA
ENDROOT
BRANCH   7  10
HETATM   10  N   UNK N   1      32.931  18.310   8.048  0.00  0.00    -0.340 N 
HETATM   11  C   UNK N   1      34.246  18.056   8.217  0.00  0.00     0.273 C 
HETATM   12  O   UNK N   1      35.034  18.982   8.310  0.00  0.00    -0.266 OA
HETATM   13  H   UNK N   1      32.634  19.198   7.742  0.00  0.00     0.163 HD
BRANCH  11  14
HETATM   14  C   UNK N   1      34.722  16.657   8.355  0.00  0.00     0.149 C 
HETATM   15  N   UNK N   1      34.807  15.866   7.329  0.00  0.00    -0.260 N 
ATOM     16  HN  UNK N   1      35.036  14.888   7.503  1.00  0.00     0.194 HD
BRANCH  14  17
HETATM   17  C   UNK N   1      34.844  16.076   9.705  0.00  0.00     0.075 A 
HETATM   18  C   UNK N   1      35.600  16.689  10.729  0.00  0.00     0.085 A 
HETATM   19  S   UNK N   1      35.594  15.596  11.975  0.00  0.00    -0.064 SA
HETATM   20  C   UNK N   1      34.701  14.426  11.244  0.00  0.00     0.142 A 
HETATM   21  N   UNK N   1      34.355  14.818   9.998  0.00  0.00    -0.335 N 
ATOM     22  HN  UNK N   1      33.801  14.254   9.353  1.00  0.00     0.168 HD
BRANCH  20  23
HETATM   23  N   UNK N   1      34.399  13.162  11.788  0.00  0.00    -0.380 N 
HETATM   24  H   UNK N   1      35.095  12.616  12.220  0.00  0.00     0.158 HD
HETATM   25  H   UNK N   1      33.478  12.820  11.735  0.00  0.00     0.158 HD
ENDBRANCH  20  23
ENDBRANCH  14  17
BRANCH  15  26
HETATM   26  O   UNK N   1      34.617  16.236   6.066  0.00  0.00    -0.285 OA
HETATM   27  C   UNK N   1      34.756  15.386   4.989  0.00  0.00     0.237 C 
ENDBRANCH  15  26
ENDBRANCH  11  14
ENDBRANCH   7  10
BRANCH   3  28
HETATM   28  C   UNK N   1      27.918  19.090   7.502  0.00  0.00     0.194 C 
HETATM   29  O   UNK N   1      27.582  20.117   6.940  0.00  0.00    -0.645 OA
BRANCH  28  30
HETATM   30  O   UNK N   1      27.390  18.823   8.712  0.00  0.00    -0.772 OA
HETATM   31  H   UNK N   1      26.905  18.032   8.848  0.00  0.00     0.167 HD
ENDBRANCH  28  30
ENDBRANCH   3  28
BRANCH   4  32
HETATM   32  C   UNK N   1      27.677  18.233   4.660  0.00  0.00     0.120 C 
BRANCH  32  33
HETATM   33  S   UNK N   1      26.309  17.049   4.764  0.00  0.00    -0.088 SA
BRANCH  33  34
HETATM   34  C   UNK N   1      25.218  18.287   4.095  0.00  0.00     0.164 A 
HETATM   35  N   UNK N   1      25.742  19.272   3.321  0.00  0.00    -0.298 N 
HETATM   36  C   UNK N   1      24.945  20.261   2.824  0.00  0.00     0.317 A 
ATOM     37  HN  UNK N   1      26.739  19.272   3.109  1.00  0.00     0.171 HD
HETATM   38  C   UNK N   1      23.583  20.246   3.119  0.00  0.00     0.328 A 
HETATM   39  O   UNK N   1      25.428  21.144   2.137  0.00  0.00    -0.262 OA
HETATM   40  N   UNK N   1      23.087  19.238   3.900  0.00  0.00    -0.258 N 
HETATM   41  O   UNK N   1      22.839  21.113   2.696  0.00  0.00    -0.261 OA
HETATM   42  N   UNK N   1      23.882  18.282   4.381  0.00  0.00    -0.272 N 
HETATM   43  H   UNK N   1      22.125  19.218   4.112  0.00  0.00     0.190 HD
HETATM   44  C   UNK N   1      23.301  17.244   5.220  0.00  0.00     0.180 C 
ENDBRANCH  33  34
ENDBRANCH  32  33
ENDBRANCH   4  32
TORSDOF 10
ENDMDL
MODEL 2
REMARK VINA RESULT:      -8.2      1.688      2.732
REMARK  10 active torsions:
REMARK  status: ('A' for Active; 'I' for Inactive)
REMARK    1  A    between atoms: C_3  and  C_23 
REMARK    2  A    between atoms: C_4  and  C_14 
REMARK    3  A    between atoms: C_7  and  N_9 
REMARK       I    between atoms: N_9  and  C_10 
REMARK    4  A    between atoms: C_10  and  C_13 
REMARK    5  A    between atoms: C_13  and  C_15 
REMARK    6  A    between atoms: C_14  and  S_26 
REMARK    7  A    between atoms: C_18  and  N_28 
REMARK    8  A    between atoms: N_21  and  O_38 
REMARK    9  A    between atoms: C_23  and  O_24 
REMARK   10  A    between atoms: S_26  and  C_27 
ROOT
HETATM    1  C   UNK N   1      30.758  16.595   6.625  0.00  0.00     0.187 A 
HETATM    2  N   UNK N   1      29.886  17.485   7.316  0.00  0.00    -0.293 N 
HETATM    3  C   UNK N   1      28.654  18.039   6.848  0.00  0.00     0.116 C 
HETATM    4  C   UNK N   1      28.301  17.731   5.565  0.00  0.00    -0.027 C 
HETATM    5  C   UNK N   1      29.173  16.824   4.720  0.00  0.00     0.113 C 
HETATM    6  S   UNK N   1      30.959  17.196   4.929  0.00  0.00    -0.136 SA
HETATM    7  C   UNK N   1      31.857  16.923   7.766  0.00  0.00     0.211 A 
HETATM    8  C   UNK N   1      30.714  17.711   8.289  0.00  0.00     0.251 A 
HETATM    9  O   UNK N   1      30.622  18.504   9.211  0.00  0.00    -0.271 OA
ENDROOT
BRANCH   7  10
HETATM   10  N   UNK N   1      32.838  17.911   7.389  0.00  0.00    -0.340 N 
HETATM   11  C   UNK N   1      34.153  17.637   7.523  0.00  0.00     0.273 C 
HETATM   12  O   UNK N   1      34.965  18.548   7.522  0.00  0.00    -0.266 OA
HETATM   13  H   UNK N   1      32.549  18.783   7.034  0.00  0.00     0.163 HD
BRANCH  11  14
HETATM   14  C   UNK N   1      34.604  16.240   7.737  0.00  0.00     0.149 C 
HETATM   15  N   UNK N   1      34.893  15.796   8.924  0.00  0.00    -0.260 N 
ATOM     16  HN  UNK N   1      35.299  14.863   8.993  1.00  0.00     0.194 HD
BRANCH  14  17
HETATM   17  C   UNK N   1      34.987  15.426   6.568  0.00  0.00     0.075 A 
HETATM   18  C   UNK N   1      34.188  15.349   5.405  0.00  0.00     0.085 A 
HETATM   19  S   UNK N   1      34.917  14.194   4.465  0.00  0.00    -0.064 SA
HETATM   20  C   UNK N   1      36.151  13.820   5.484  0.00  0.00     0.142 A 
HETATM   21  N   UNK N   1      36.070  14.570   6.605  0.00  0.00    -0.335 N 
ATOM     22  HN  UNK N   1      36.727  14.511   7.383  1.00  0.00     0.168 HD
BRANCH  20  23
HETATM   23  N   UNK N   1      37.114  12.814   5.275  0.00  0.00    -0.380 N 
HETATM   24  H   UNK N   1      37.335  12.504   4.366  0.00  0.00     0.158 HD
HETATM   25  H   UNK N   1      37.573  12.415   6.048  0.00  0.00     0.158 HD
ENDBRANCH  20  23
ENDBRANCH  14  17
BRANCH  15  26
HETATM   26  O   UNK N   1      34.698  16.466  10.055  0.00  0.00    -0.285 OA
HETATM   27  C   UNK N   1      35.291  16.134  11.255  0.00  0.00     0.237 C 
ENDBRANCH  15  26
ENDBRANCH  11  14
ENDBRANCH   7  10
BRANCH   3  28
HETATM   28  C   UNK N   1      27.864  19.005   7.692  0.00  0.00     0.194 C 
HETATM   29  O   UNK N   1      27.548  20.096   7.252  0.00  0.00    -0.645 OA
BRANCH  28  30
HETATM   30  O   UNK N   1      27.477  18.685   8.942  0.00  0.00    -0.772 OA
HETATM   31  H   UNK N   1      27.290  17.793   9.161  0.00  0.00     0.167 HD
ENDBRANCH  28  30
ENDBRANCH   3  28
BRANCH   4  32
HETATM   32  C   UNK N   1      27.121  18.318   4.891  0.00  0.00     0.120 C 
BRANCH  32  33
HETATM   33  S   UNK N   1      25.755  17.135   5.023  0.00  0.00    -0.088 SA
BRANCH  33  34
HETATM   34  C   UNK N   1      24.682  18.325   4.244  0.00  0.00     0.164 A 
HETATM   35  N   UNK N   1      25.232  19.291   3.464  0.00  0.00    -0.298 N 
HETATM   36  C   UNK N   1      24.448  20.243   2.883  0.00  0.00     0.317 A 
ATOM     37  HN  UNK N   1      26.240  19.303   3.309  1.00  0.00     0.171 HD
HETATM   38  C   UNK N   1      23.071  20.211   3.099  0.00  0.00     0.328 A 
HETATM   39  O   UNK N   1      24.954  21.109   2.191  0.00  0.00    -0.262 OA
HETATM   40  N   UNK N   1      22.549  19.223   3.890  0.00  0.00    -0.258 N 
HETATM   41  O   UNK N   1      22.337  21.046   2.601  0.00  0.00    -0.261 OA
HETATM   42  N   UNK N   1      23.332  18.303   4.452  0.00  0.00    -0.272 N 
HETATM   43  H   UNK N   1      21.577  19.192   4.046  0.00  0.00     0.190 HD
HETATM   44  C   UNK N   1      22.723  17.286   5.296  0.00  0.00     0.180 C 
ENDBRANCH  33  34
ENDBRANCH  32  33
ENDBRANCH   4  32
TORSDOF 10
ENDMDL
MODEL 3
REMARK VINA RESULT:      -8.1      3.196      5.717
REMARK  10 active torsions:
REMARK  status: ('A' for Active; 'I' for Inactive)
REMARK    1  A    between atoms: C_3  and  C_23 
REMARK    2  A    between atoms: C_4  and  C_14 
REMARK    3  A    between atoms: C_7  and  N_9 
REMARK       I    between atoms: N_9  and  C_10 
REMARK    4  A    between atoms: C_10  and  C_13 
REMARK    5  A    between atoms: C_13  and  C_15 
REMARK    6  A    between atoms: C_14  and  S_26 
REMARK    7  A    between atoms: C_18  and  N_28 
REMARK    8  A    between atoms: N_21  and  O_38 
REMARK    9  A    between atoms: C_23  and  O_24 
REMARK   10  A    between atoms: S_26  and  C_27 
ROOT
HETATM    1  C   UNK N   1      33.969  14.413   9.706  0.00  0.00     0.187 A 
HETATM    2  N   UNK N   1      34.000  15.799   9.374  0.00  0.00    -0.293 N 
HETATM    3  C   UNK N   1      33.387  16.443   8.255  0.00  0.00     0.116 C 
HETATM    4  C   UNK N   1      32.751  15.628   7.362  0.00  0.00    -0.027 C 
HETATM    5  C   UNK N   1      32.689  14.132   7.590  0.00  0.00     0.113 C 
HETATM    6  S   UNK N   1      34.286  13.460   8.200  0.00  0.00    -0.136 SA
HETATM    7  C   UNK N   1      35.152  14.729  10.763  0.00  0.00     0.211 A 
HETATM    8  C   UNK N   1      34.892  16.101  10.266  0.00  0.00     0.251 A 
HETATM    9  O   UNK N   1      35.469  17.161  10.452  0.00  0.00    -0.271 OA
ENDROOT
BRANCH   7  10
HETATM   10  N   UNK N   1      36.479  14.415  10.291  0.00  0.00    -0.340 N 
HETATM   11  C   UNK N   1      37.198  13.448  10.899  0.00  0.00     0.273 C 
HETATM   12  O   UNK N   1      38.405  13.396  10.733  0.00  0.00    -0.266 OA
HETATM   13  H   UNK N   1      36.859  14.906   9.526  0.00  0.00     0.163 HD
BRANCH  11  14
HETATM   14  C   UNK N   1      36.531  12.492  11.818  0.00  0.00     0.149 C 
HETATM   15  N   UNK N   1      35.864  11.473  11.368  0.00  0.00    -0.260 N 
ATOM     16  HN  UNK N   1      35.339  10.916  12.043  1.00  0.00     0.194 HD
BRANCH  14  17
HETATM   17  C   UNK N   1      36.397  12.849  13.243  0.00  0.00     0.075 A 
HETATM   18  C   UNK N   1      35.398  12.291  14.073  0.00  0.00     0.085 A 
HETATM   19  S   UNK N   1      35.525  13.118  15.504  0.00  0.00    -0.064 SA
HETATM   20  C   UNK N   1      36.757  14.118  15.079  0.00  0.00     0.142 A 
HETATM   21  N   UNK N   1      37.141  13.865  13.808  0.00  0.00    -0.335 N 
ATOM     22  HN  UNK N   1      37.889  14.364  13.326  1.00  0.00     0.168 HD
BRANCH  20  23
HETATM   23  N   UNK N   1      37.294  15.147  15.877  0.00  0.00    -0.380 N 
HETATM   24  H   UNK N   1      37.055  16.089  15.718  0.00  0.00     0.158 HD
HETATM   25  H   UNK N   1      37.916  14.920  16.605  0.00  0.00     0.158 HD
ENDBRANCH  20  23
ENDBRANCH  14  17
BRANCH  15  26
HETATM   26  O   UNK N   1      35.812  11.101  10.093  0.00  0.00    -0.285 OA
HETATM   27  C   UNK N   1      36.519  10.035   9.576  0.00  0.00     0.237 C 
ENDBRANCH  15  26
ENDBRANCH  11  14
ENDBRANCH   7  10
BRANCH   3  28
HETATM   28  C   UNK N   1      33.549  17.923   8.023  0.00  0.00     0.194 C 
HETATM   29  O   UNK N   1      32.625  18.687   8.235  0.00  0.00    -0.645 OA
BRANCH  28  30
HETATM   30  O   UNK N   1      34.715  18.438   7.589  0.00  0.00    -0.772 OA
HETATM   31  H   UNK N   1      34.728  19.268   7.155  0.00  0.00     0.167 HD
ENDBRANCH  28  30
ENDBRANCH   3  28
BRANCH   4  32
HETATM   32  C   UNK N   1      32.172  16.121   6.092  0.00  0.00     0.120 C 
BRANCH  32  33
HETATM   33  S   UNK N   1      30.621  15.230   5.802  0.00  0.00    -0.088 SA
BRANCH  33  34
HETATM   34  C   UNK N   1      29.721  16.701   6.249  0.00  0.00     0.164 A 
HETATM   35  N   UNK N   1      29.774  17.136   7.534  0.00  0.00    -0.298 N 
HETATM   36  C   UNK N   1      29.067  18.234   7.924  0.00  0.00     0.317 A 
ATOM     37  HN  UNK N   1      30.350  16.638   8.214  1.00  0.00     0.171 HD
HETATM   38  C   UNK N   1      28.288  18.908   6.984  0.00  0.00     0.328 A 
HETATM   39  O   UNK N   1      29.117  18.611   9.083  0.00  0.00    -0.262 OA
HETATM   40  N   UNK N   1      28.258  18.444   5.697  0.00  0.00    -0.258 N 
HETATM   41  O   UNK N   1      27.639  19.891   7.294  0.00  0.00    -0.261 OA
HETATM   42  N   UNK N   1      28.953  17.366   5.335  0.00  0.00    -0.272 N 
HETATM   43  H   UNK N   1      27.713  18.915   5.026  0.00  0.00     0.190 HD
HETATM   44  C   UNK N   1      28.870  16.909   3.956  0.00  0.00     0.180 C 
ENDBRANCH  33  34
ENDBRANCH  32  33
ENDBRANCH   4  32
TORSDOF 10
ENDMDL
MODEL 4
REMARK VINA RESULT:      -8.0      3.029     10.926
REMARK  10 active torsions:
REMARK  status: ('A' for Active; 'I' for Inactive)
REMARK    1  A    between atoms: C_3  and  C_23 
REMARK    2  A    between atoms: C_4  and  C_14 
REMARK    3  A    between atoms: C_7  and  N_9 
REMARK       I    between atoms: N_9  and  C_10 
REMARK    4  A    between atoms: C_10  and  C_13 
REMARK    5  A    between atoms: C_13  and  C_15 
REMARK    6  A    between atoms: C_14  and  S_26 
REMARK    7  A    between atoms: C_18  and  N_28 
REMARK    8  A    between atoms: N_21  and  O_38 
REMARK    9  A    between atoms: C_23  and  O_24 
REMARK   10  A    between atoms: S_26  and  C_27 
ROOT
HETATM    1  C   UNK N   1      24.907  16.700   4.619  0.00  0.00     0.187 A 
HETATM    2  N   UNK N   1      25.744  17.849   4.713  0.00  0.00    -0.293 N 
HETATM    3  C   UNK N   1      27.117  17.900   5.108  0.00  0.00     0.116 C 
HETATM    4  C   UNK N   1      27.676  16.719   5.505  0.00  0.00    -0.027 C 
HETATM    5  C   UNK N   1      26.868  15.437   5.487  0.00  0.00     0.113 C 
HETATM    6  S   UNK N   1      25.157  15.692   6.102  0.00  0.00    -0.136 SA
HETATM    7  C   UNK N   1      23.660  17.724   4.503  0.00  0.00     0.211 A 
HETATM    8  C   UNK N   1      24.778  18.698   4.544  0.00  0.00     0.251 A 
HETATM    9  O   UNK N   1      24.798  19.916   4.622  0.00  0.00    -0.271 OA
ENDROOT
BRANCH   7  10
HETATM   10  N   UNK N   1      22.943  17.940   5.736  0.00  0.00    -0.340 N 
HETATM   11  C   UNK N   1      21.616  18.189   5.707  0.00  0.00     0.273 C 
HETATM   12  O   UNK N   1      21.072  18.685   6.680  0.00  0.00    -0.266 OA
HETATM   13  H   UNK N   1      23.421  17.907   6.597  0.00  0.00     0.163 HD
BRANCH  11  14
HETATM   14  C   UNK N   1      20.836  17.920   4.474  0.00  0.00     0.149 C 
HETATM   15  N   UNK N   1      20.543  18.869   3.637  0.00  0.00    -0.260 N 
ATOM     16  HN  UNK N   1      19.914  18.643   2.867  1.00  0.00     0.194 HD
BRANCH  14  17
HETATM   17  C   UNK N   1      20.156  16.619   4.330  0.00  0.00     0.075 A 
HETATM   18  C   UNK N   1      19.957  15.742   5.420  0.00  0.00     0.085 A 
HETATM   19  S   UNK N   1      19.336  14.361   4.747  0.00  0.00    -0.064 SA
HETATM   20  C   UNK N   1      19.337  14.853   3.179  0.00  0.00     0.142 A 
HETATM   21  N   UNK N   1      19.815  16.114   3.091  0.00  0.00    -0.335 N 
ATOM     22  HN  UNK N   1      19.912  16.630   2.215  1.00  0.00     0.168 HD
BRANCH  20  23
HETATM   23  N   UNK N   1      18.975  14.065   2.070  0.00  0.00    -0.380 N 
HETATM   24  H   UNK N   1      18.743  14.480   1.207  0.00  0.00     0.158 HD
HETATM   25  H   UNK N   1      18.956  13.085   2.158  0.00  0.00     0.158 HD
ENDBRANCH  20  23
ENDBRANCH  14  17
BRANCH  15  26
HETATM   26  O   UNK N   1      21.002  20.115   3.710  0.00  0.00    -0.285 OA
HETATM   27  C   UNK N   1      21.659  20.751   2.678  0.00  0.00     0.237 C 
ENDBRANCH  15  26
ENDBRANCH  11  14
ENDBRANCH   7  10
BRANCH   3  28
HETATM   28  C   UNK N   1      27.855  19.211   5.194  0.00  0.00     0.194 C 
HETATM   29  O   UNK N   1      27.838  19.864   6.222  0.00  0.00    -0.645 OA
BRANCH  28  30
HETATM   30  O   UNK N   1      28.559  19.685   4.149  0.00  0.00    -0.772 OA
HETATM   31  H   UNK N   1      29.274  20.273   4.294  0.00  0.00     0.167 HD
ENDBRANCH  28  30
ENDBRANCH   3  28
BRANCH   4  32
HETATM   32  C   UNK N   1      29.046  16.621   6.057  0.00  0.00     0.120 C 
BRANCH  32  33
HETATM   33  S   UNK N   1      30.070  15.728   4.858  0.00  0.00    -0.088 SA
BRANCH  33  34
HETATM   34  C   UNK N   1      31.519  16.471   5.580  0.00  0.00     0.164 A 
HETATM   35  N   UNK N   1      31.596  16.579   6.931  0.00  0.00    -0.298 N 
HETATM   36  C   UNK N   1      32.671  17.178   7.518  0.00  0.00     0.317 A 
ATOM     37  HN  UNK N   1      30.844  16.208   7.512  1.00  0.00     0.171 HD
HETATM   38  C   UNK N   1      33.693  17.677   6.713  0.00  0.00     0.328 A 
HETATM   39  O   UNK N   1      32.725  17.276   8.732  0.00  0.00    -0.262 OA
HETATM   40  N   UNK N   1      33.585  17.550   5.354  0.00  0.00    -0.258 N 
HETATM   41  O   UNK N   1      34.668  18.221   7.199  0.00  0.00    -0.261 OA
HETATM   42  N   UNK N   1      32.525  16.965   4.798  0.00  0.00    -0.272 N 
HETATM   43  H   UNK N   1      34.304  17.897   4.778  0.00  0.00     0.190 HD
HETATM   44  C   UNK N   1      32.457  16.873   3.347  0.00  0.00     0.180 C 
ENDBRANCH  33  34
ENDBRANCH  32  33
ENDBRANCH   4  32
TORSDOF 10
ENDMDL
MODEL 5
REMARK VINA RESULT:      -7.9      3.128      5.926
REMARK  10 active torsions:
REMARK  status: ('A' for Active; 'I' for Inactive)
REMARK    1  A    between atoms: C_3  and  C_23 
REMARK    2  A    between atoms: C_4  and  C_14 
REMARK    3  A    between atoms: C_7  and  N_9 
REMARK       I    between atoms: N_9  and  C_10 
REMARK    4  A    between atoms: C_10  and  C_13 
REMARK    5  A    between atoms: C_13  and  C_15 
REMARK    6  A    between atoms: C_14  and  S_26 
REMARK    7  A    between atoms: C_18  and  N_28 
REMARK    8  A    between atoms: N_21  and  O_38 
REMARK    9  A    between atoms: C_23  and  O_24 
REMARK   10  A    between atoms: S_26  and  C_27 
ROOT
HETATM    1  C   UNK N   1      33.657  14.840  10.088  0.00  0.00     0.187 A 
HETATM    2  N   UNK N   1      33.995  16.083   9.478  0.00  0.00    -0.293 N 
HETATM    3  C   UNK N   1      33.532  16.595   8.226  0.00  0.00     0.116 C 
HETATM    4  C   UNK N   1      32.723  15.771   7.497  0.00  0.00    -0.027 C 
HETATM    5  C   UNK N   1      32.330  14.408   8.028  0.00  0.00     0.113 C 
HETATM    6  S   UNK N   1      33.741  13.545   8.826  0.00  0.00    -0.136 SA
HETATM    7  C   UNK N   1      34.890  15.102  11.103  0.00  0.00     0.211 A 
HETATM    8  C   UNK N   1      34.939  16.362  10.322  0.00  0.00     0.251 A 
HETATM    9  O   UNK N   1      35.740  17.283  10.307  0.00  0.00    -0.271 OA
ENDROOT
BRANCH   7  10
HETATM   10  N   UNK N   1      36.109  14.412  10.758  0.00  0.00    -0.340 N 
HETATM   11  C   UNK N   1      36.653  13.534  11.628  0.00  0.00     0.273 C 
HETATM   12  O   UNK N   1      37.819  13.199  11.500  0.00  0.00    -0.266 OA
HETATM   13  H   UNK N   1      36.543  14.581   9.890  0.00  0.00     0.163 HD
BRANCH  11  14
HETATM   14  C   UNK N   1      35.855  13.029  12.772  0.00  0.00     0.149 C 
HETATM   15  N   UNK N   1      35.890  13.614  13.932  0.00  0.00    -0.260 N 
ATOM     16  HN  UNK N   1      35.405  13.159  14.705  1.00  0.00     0.194 HD
BRANCH  14  17
HETATM   17  C   UNK N   1      35.226  11.699  12.673  0.00  0.00     0.075 A 
HETATM   18  C   UNK N   1      35.691  10.584  13.406  0.00  0.00     0.085 A 
HETATM   19  S   UNK N   1      34.810   9.302  12.834  0.00  0.00    -0.064 SA
HETATM   20  C   UNK N   1      33.915  10.120  11.725  0.00  0.00     0.142 A 
HETATM   21  N   UNK N   1      34.245  11.430  11.739  0.00  0.00    -0.335 N 
ATOM     22  HN  UNK N   1      33.822  12.134  11.134  1.00  0.00     0.168 HD
BRANCH  20  23
HETATM   23  N   UNK N   1      32.993   9.547  10.828  0.00  0.00    -0.380 N 
HETATM   24  H   UNK N   1      32.667   8.626  10.955  0.00  0.00     0.158 HD
HETATM   25  H   UNK N   1      32.670  10.075  10.063  0.00  0.00     0.158 HD
ENDBRANCH  20  23
ENDBRANCH  14  17
BRANCH  15  26
HETATM   26  O   UNK N   1      36.509  14.763  14.186  0.00  0.00    -0.285 OA
HETATM   27  C   UNK N   1      37.150  15.041  15.375  0.00  0.00     0.237 C 
ENDBRANCH  15  26
ENDBRANCH  11  14
ENDBRANCH   7  10
BRANCH   3  28
HETATM   28  C   UNK N   1      34.019  17.920   7.699  0.00  0.00     0.194 C 
HETATM   29  O   UNK N   1      34.517  17.999   6.590  0.00  0.00    -0.645 OA
BRANCH  28  30
HETATM   30  O   UNK N   1      33.906  19.046   8.429  0.00  0.00    -0.772 OA
HETATM   31  H   UNK N   1      33.400  19.045   9.218  0.00  0.00     0.167 HD
ENDBRANCH  28  30
ENDBRANCH   3  28
BRANCH   4  32
HETATM   32  C   UNK N   1      32.258  16.101   6.131  0.00  0.00     0.120 C 
BRANCH  32  33
HETATM   33  S   UNK N   1      30.817  15.065   5.765  0.00  0.00    -0.088 SA
BRANCH  33  34
HETATM   34  C   UNK N   1      29.861  16.539   5.477  0.00  0.00     0.164 A 
HETATM   35  N   UNK N   1      29.360  17.214   6.543  0.00  0.00    -0.298 N 
HETATM   36  C   UNK N   1      28.589  18.324   6.361  0.00  0.00     0.317 A 
ATOM     37  HN  UNK N   1      29.563  16.889   7.488  1.00  0.00     0.171 HD
HETATM   38  C   UNK N   1      28.323  18.760   5.064  0.00  0.00     0.328 A 
HETATM   39  O   UNK N   1      28.139  18.918   7.326  0.00  0.00    -0.262 OA
HETATM   40  N   UNK N   1      28.845  18.057   4.011  0.00  0.00    -0.258 N 
HETATM   41  O   UNK N   1      27.636  19.745   4.859  0.00  0.00    -0.261 OA
HETATM   42  N   UNK N   1      29.593  16.972   4.208  0.00  0.00    -0.272 N 
HETATM   43  H   UNK N   1      28.664  18.358   3.091  0.00  0.00     0.190 HD
HETATM   44  C   UNK N   1      30.107  16.255   3.051  0.00  0.00     0.180 C 
ENDBRANCH  33  34
ENDBRANCH  32  33
ENDBRANCH   4  32
TORSDOF 10
ENDMDL
MODEL 6
REMARK VINA RESULT:      -7.9      3.218     10.160
REMARK  10 active torsions:
REMARK  status: ('A' for Active; 'I' for Inactive)
REMARK    1  A    between atoms: C_3  and  C_23 
REMARK    2  A    between atoms: C_4  and  C_14 
REMARK    3  A    between atoms: C_7  and  N_9 
REMARK       I    between atoms: N_9  and  C_10 
REMARK    4  A    between atoms: C_10  and  C_13 
REMARK    5  A    between atoms: C_13  and  C_15 
REMARK    6  A    between atoms: C_14  and  S_26 
REMARK    7  A    between atoms: C_18  and  N_28 
REMARK    8  A    between atoms: N_21  and  O_38 
REMARK    9  A    between atoms: C_23  and  O_24 
REMARK   10  A    between atoms: S_26  and  C_27 
ROOT
HETATM    1  C   UNK N   1      32.341  16.823   5.822  0.00  0.00     0.187 A 
HETATM    2  N   UNK N   1      32.753  16.949   7.181  0.00  0.00    -0.293 N 
HETATM    3  C   UNK N   1      33.922  16.400   7.793  0.00  0.00     0.116 C 
HETATM    4  C   UNK N   1      34.704  15.608   7.002  0.00  0.00    -0.027 C 
HETATM    5  C   UNK N   1      34.343  15.370   5.550  0.00  0.00     0.113 C 
HETATM    6  S   UNK N   1      32.541  15.095   5.324  0.00  0.00    -0.136 SA
HETATM    7  C   UNK N   1      30.905  17.399   6.295  0.00  0.00     0.211 A 
HETATM    8  C   UNK N   1      31.641  17.485   7.579  0.00  0.00     0.251 A 
HETATM    9  O   UNK N   1      31.279  17.757   8.712  0.00  0.00    -0.271 OA
ENDROOT
BRANCH   7  10
HETATM   10  N   UNK N   1      29.898  16.390   6.519  0.00  0.00    -0.340 N 
HETATM   11  C   UNK N   1      28.653  16.562   6.026  0.00  0.00     0.273 C 
HETATM   12  O   UNK N   1      27.729  15.901   6.470  0.00  0.00    -0.266 OA
HETATM   13  H   UNK N   1      30.119  15.578   7.031  0.00  0.00     0.163 HD
BRANCH  11  14
HETATM   14  C   UNK N   1      28.398  17.597   4.994  0.00  0.00     0.149 C 
HETATM   15  N   UNK N   1      28.908  17.506   3.802  0.00  0.00    -0.260 N 
ATOM     16  HN  UNK N   1      28.785  18.300   3.174  1.00  0.00     0.194 HD
BRANCH  14  17
HETATM   17  C   UNK N   1      27.785  18.875   5.401  0.00  0.00     0.075 A 
HETATM   18  C   UNK N   1      27.939  20.063   4.652  0.00  0.00     0.085 A 
HETATM   19  S   UNK N   1      27.244  21.246   5.582  0.00  0.00    -0.064 SA
HETATM   20  C   UNK N   1      26.796  20.302   6.850  0.00  0.00     0.142 A 
HETATM   21  N   UNK N   1      27.154  19.019   6.621  0.00  0.00    -0.335 N 
ATOM     22  HN  UNK N   1      26.982  18.251   7.271  1.00  0.00     0.168 HD
BRANCH  20  23
HETATM   23  N   UNK N   1      26.197  20.755   8.042  0.00  0.00    -0.380 N 
HETATM   24  H   UNK N   1      25.490  20.232   8.485  0.00  0.00     0.158 HD
HETATM   25  H   UNK N   1      26.492  21.606   8.438  0.00  0.00     0.158 HD
ENDBRANCH  20  23
ENDBRANCH  14  17
BRANCH  15  26
HETATM   26  O   UNK N   1      29.576  16.454   3.340  0.00  0.00    -0.285 OA
HETATM   27  C   UNK N   1      29.018  15.486   2.532  0.00  0.00     0.237 C 
ENDBRANCH  15  26
ENDBRANCH  11  14
ENDBRANCH   7  10
BRANCH   3  28
HETATM   28  C   UNK N   1      34.195  16.592   9.262  0.00  0.00     0.194 C 
HETATM   29  O   UNK N   1      35.076  17.346   9.634  0.00  0.00    -0.645 OA
BRANCH  28  30
HETATM   30  O   UNK N   1      33.470  15.949  10.197  0.00  0.00    -0.772 OA
HETATM   31  H   UNK N   1      33.118  15.099  10.015  0.00  0.00     0.167 HD
ENDBRANCH  28  30
ENDBRANCH   3  28
BRANCH   4  32
HETATM   32  C   UNK N   1      35.880  14.868   7.513  0.00  0.00     0.120 C 
BRANCH  32  33
HETATM   33  S   UNK N   1      35.462  13.105   7.543  0.00  0.00    -0.088 SA
BRANCH  33  34
HETATM   34  C   UNK N   1      35.937  13.047   9.258  0.00  0.00     0.164 A 
HETATM   35  N   UNK N   1      35.071  13.512  10.194  0.00  0.00    -0.298 N 
HETATM   36  C   UNK N   1      35.415  13.521  11.514  0.00  0.00     0.317 A 
ATOM     37  HN  UNK N   1      34.154  13.856   9.908  1.00  0.00     0.171 HD
HETATM   38  C   UNK N   1      36.669  13.044  11.891  0.00  0.00     0.328 A 
HETATM   39  O   UNK N   1      34.631  13.948  12.344  0.00  0.00    -0.262 OA
HETATM   40  N   UNK N   1      37.518  12.581  10.922  0.00  0.00    -0.258 N 
HETATM   41  O   UNK N   1      37.015  13.039  13.059  0.00  0.00    -0.261 OA
HETATM   42  N   UNK N   1      37.166  12.583   9.637  0.00  0.00    -0.272 N 
HETATM   43  H   UNK N   1      38.405  12.240  11.179  0.00  0.00     0.190 HD
HETATM   44  C   UNK N   1      38.116  12.094   8.649  0.00  0.00     0.180 C 
ENDBRANCH  33  34
ENDBRANCH  32  33
ENDBRANCH   4  32
TORSDOF 10
ENDMDL
MODEL 7
REMARK VINA RESULT:      -7.9      2.934     10.927
REMARK  10 active torsions:
REMARK  status: ('A' for Active; 'I' for Inactive)
REMARK    1  A    between atoms: C_3  and  C_23 
REMARK    2  A    between atoms: C_4  and  C_14 
REMARK    3  A    between atoms: C_7  and  N_9 
REMARK       I    between atoms: N_9  and  C_10 
REMARK    4  A    between atoms: C_10  and  C_13 
REMARK    5  A    between atoms: C_13  and  C_15 
REMARK    6  A    between atoms: C_14  and  S_26 
REMARK    7  A    between atoms: C_18  and  N_28 
REMARK    8  A    between atoms: N_21  and  O_38 
REMARK    9  A    between atoms: C_23  and  O_24 
REMARK   10  A    between atoms: S_26  and  C_27 
ROOT
HETATM    1  C   UNK N   1      25.111  16.213   4.845  0.00  0.00     0.187 A 
HETATM    2  N   UNK N   1      25.648  17.521   4.670  0.00  0.00    -0.293 N 
HETATM    3  C   UNK N   1      26.996  17.947   4.880  0.00  0.00     0.116 C 
HETATM    4  C   UNK N   1      27.858  17.006   5.366  0.00  0.00    -0.027 C 
HETATM    5  C   UNK N   1      27.389  15.590   5.629  0.00  0.00     0.113 C 
HETATM    6  S   UNK N   1      25.728  15.548   6.411  0.00  0.00    -0.136 SA
HETATM    7  C   UNK N   1      23.647  16.894   4.741  0.00  0.00     0.211 A 
HETATM    8  C   UNK N   1      24.493  18.088   4.505  0.00  0.00     0.251 A 
HETATM    9  O   UNK N   1      24.223  19.274   4.408  0.00  0.00    -0.271 OA
ENDROOT
BRANCH   7  10
HETATM   10  N   UNK N   1      23.010  17.143   6.012  0.00  0.00    -0.340 N 
HETATM   11  C   UNK N   1      21.676  17.341   6.067  0.00  0.00     0.273 C 
HETATM   12  O   UNK N   1      21.182  17.864   7.052  0.00  0.00    -0.266 OA
HETATM   13  H   UNK N   1      23.548  17.170   6.837  0.00  0.00     0.163 HD
BRANCH  11  14
HETATM   14  C   UNK N   1      20.822  16.984   4.907  0.00  0.00     0.149 C 
HETATM   15  N   UNK N   1      20.488  15.752   4.666  0.00  0.00    -0.260 N 
ATOM     16  HN  UNK N   1      19.991  15.559   3.796  1.00  0.00     0.194 HD
BRANCH  14  17
HETATM   17  C   UNK N   1      20.572  17.999   3.867  0.00  0.00     0.075 A 
HETATM   18  C   UNK N   1      20.030  17.671   2.604  0.00  0.00     0.085 A 
HETATM   19  S   UNK N   1      20.107  19.078   1.730  0.00  0.00    -0.064 SA
HETATM   20  C   UNK N   1      20.795  20.023   2.885  0.00  0.00     0.142 A 
HETATM   21  N   UNK N   1      20.998  19.304   4.011  0.00  0.00    -0.335 N 
ATOM     22  HN  UNK N   1      21.417  19.679   4.863  1.00  0.00     0.168 HD
BRANCH  20  23
HETATM   23  N   UNK N   1      21.195  21.363   2.720  0.00  0.00    -0.380 N 
HETATM   24  H   UNK N   1      22.133  21.593   2.530  0.00  0.00     0.158 HD
HETATM   25  H   UNK N   1      20.525  22.081   2.795  0.00  0.00     0.158 HD
ENDBRANCH  20  23
ENDBRANCH  14  17
BRANCH  15  26
HETATM   26  O   UNK N   1      20.744  14.723   5.468  0.00  0.00    -0.285 OA
HETATM   27  C   UNK N   1      19.982  13.575   5.508  0.00  0.00     0.237 C 
ENDBRANCH  15  26
ENDBRANCH  11  14
ENDBRANCH   7  10
BRANCH   3  28
HETATM   28  C   UNK N   1      27.397  19.386   4.688  0.00  0.00     0.194 C 
HETATM   29  O   UNK N   1      27.340  20.173   5.616  0.00  0.00    -0.645 OA
BRANCH  28  30
HETATM   30  O   UNK N   1      27.839  19.835   3.498  0.00  0.00    -0.772 OA
HETATM   31  H   UNK N   1      27.444  19.528   2.705  0.00  0.00     0.167 HD
ENDBRANCH  28  30
ENDBRANCH   3  28
BRANCH   4  32
HETATM   32  C   UNK N   1      29.255  17.315   5.751  0.00  0.00     0.120 C 
BRANCH  32  33
HETATM   33  S   UNK N   1      29.976  15.823   6.483  0.00  0.00    -0.088 SA
BRANCH  33  34
HETATM   34  C   UNK N   1      31.351  16.799   7.057  0.00  0.00     0.164 A 
HETATM   35  N   UNK N   1      32.446  16.917   6.265  0.00  0.00    -0.298 N 
HETATM   36  C   UNK N   1      33.535  17.622   6.687  0.00  0.00     0.317 A 
ATOM     37  HN  UNK N   1      32.455  16.476   5.345  1.00  0.00     0.171 HD
HETATM   38  C   UNK N   1      33.507  18.223   7.944  0.00  0.00     0.328 A 
HETATM   39  O   UNK N   1      34.515  17.715   5.968  0.00  0.00    -0.262 OA
HETATM   40  N   UNK N   1      32.386  18.085   8.718  0.00  0.00    -0.258 N 
HETATM   41  O   UNK N   1      34.460  18.858   8.358  0.00  0.00    -0.261 OA
HETATM   42  N   UNK N   1      31.334  17.389   8.290  0.00  0.00    -0.272 N 
HETATM   43  H   UNK N   1      32.357  18.508   9.606  0.00  0.00     0.190 HD
HETATM   44  C   UNK N   1      30.176  17.263   9.162  0.00  0.00     0.180 C 
ENDBRANCH  33  34
ENDBRANCH  32  33
ENDBRANCH   4  32
TORSDOF 10
ENDMDL
MODEL 8
REMARK VINA RESULT:      -7.9      4.004     10.447
REMARK  10 active torsions:
REMARK  status: ('A' for Active; 'I' for Inactive)
REMARK    1  A    between atoms: C_3  and  C_23 
REMARK    2  A    between atoms: C_4  and  C_14 
REMARK    3  A    between atoms: C_7  and  N_9 
REMARK       I    between atoms: N_9  and  C_10 
REMARK    4  A    between atoms: C_10  and  C_13 
REMARK    5  A    between atoms: C_13  and  C_15 
REMARK    6  A    between atoms: C_14  and  S_26 
REMARK    7  A    between atoms: C_18  and  N_28 
REMARK    8  A    between atoms: N_21  and  O_38 
REMARK    9  A    between atoms: C_23  and  O_24 
REMARK   10  A    between atoms: S_26  and  C_27 
ROOT
HETATM    1  C   UNK N   1      34.620  15.264   6.709  0.00  0.00     0.187 A 
HETATM    2  N   UNK N   1      34.314  15.515   8.078  0.00  0.00    -0.293 N 
HETATM    3  C   UNK N   1      35.122  15.228   9.221  0.00  0.00     0.116 C 
HETATM    4  C   UNK N   1      36.298  14.577   8.982  0.00  0.00    -0.027 C 
HETATM    5  C   UNK N   1      36.710  14.221   7.568  0.00  0.00     0.113 C 
HETATM    6  S   UNK N   1      35.299  13.591   6.576  0.00  0.00    -0.136 SA
HETATM    7  C   UNK N   1      33.062  15.564   6.395  0.00  0.00     0.211 A 
HETATM    8  C   UNK N   1      33.077  15.838   7.852  0.00  0.00     0.251 A 
HETATM    9  O   UNK N   1      32.184  16.073   8.649  0.00  0.00    -0.271 OA
ENDROOT
BRANCH   7  10
HETATM   10  N   UNK N   1      32.240  14.386   6.254  0.00  0.00    -0.340 N 
HETATM   11  C   UNK N   1      31.115  14.437   5.509  0.00  0.00     0.273 C 
HETATM   12  O   UNK N   1      30.261  13.575   5.643  0.00  0.00    -0.266 OA
HETATM   13  H   UNK N   1      32.499  13.548   6.702  0.00  0.00     0.163 HD
BRANCH  11  14
HETATM   14  C   UNK N   1      30.889  15.570   4.579  0.00  0.00     0.149 C 
HETATM   15  N   UNK N   1      31.584  15.702   3.489  0.00  0.00    -0.260 N 
ATOM     16  HN  UNK N   1      31.457  16.557   2.948  1.00  0.00     0.194 HD
BRANCH  14  17
HETATM   17  C   UNK N   1      30.058  16.704   5.025  0.00  0.00     0.075 A 
HETATM   18  C   UNK N   1      29.555  16.803   6.342  0.00  0.00     0.085 A 
HETATM   19  S   UNK N   1      28.546  18.118   6.315  0.00  0.00    -0.064 SA
HETATM   20  C   UNK N   1      28.735  18.514   4.731  0.00  0.00     0.142 A 
HETATM   21  N   UNK N   1      29.592  17.654   4.138  0.00  0.00    -0.335 N 
ATOM     22  HN  UNK N   1      29.862  17.700   3.155  1.00  0.00     0.168 HD
BRANCH  20  23
HETATM   23  N   UNK N   1      28.053  19.543   4.054  0.00  0.00    -0.380 N 
HETATM   24  H   UNK N   1      28.114  20.478   4.358  0.00  0.00     0.158 HD
HETATM   25  H   UNK N   1      27.508  19.324   3.263  0.00  0.00     0.158 HD
ENDBRANCH  20  23
ENDBRANCH  14  17
BRANCH  15  26
HETATM   26  O   UNK N   1      32.448  14.804   3.026  0.00  0.00    -0.285 OA
HETATM   27  C   UNK N   1      33.780  15.073   2.791  0.00  0.00     0.237 C 
ENDBRANCH  15  26
ENDBRANCH  11  14
ENDBRANCH   7  10
BRANCH   3  28
HETATM   28  C   UNK N   1      34.632  15.522  10.615  0.00  0.00     0.194 C 
HETATM   29  O   UNK N   1      35.162  16.389  11.287  0.00  0.00    -0.645 OA
BRANCH  28  30
HETATM   30  O   UNK N   1      33.595  14.847  11.148  0.00  0.00    -0.772 OA
HETATM   31  H   UNK N   1      33.614  13.911  11.186  0.00  0.00     0.167 HD
ENDBRANCH  28  30
ENDBRANCH   3  28
BRANCH   4  32
HETATM   32  C   UNK N   1      37.190  14.099  10.063  0.00  0.00     0.120 C 
BRANCH  32  33
HETATM   33  S   UNK N   1      36.961  12.309  10.228  0.00  0.00    -0.088 SA
BRANCH  33  34
HETATM   34  C   UNK N   1      36.174  12.580  11.802  0.00  0.00     0.164 A 
HETATM   35  N   UNK N   1      36.743  13.445  12.680  0.00  0.00    -0.298 N 
HETATM   36  C   UNK N   1      36.192  13.648  13.910  0.00  0.00     0.317 A 
ATOM     37  HN  UNK N   1      37.590  13.950  12.415  1.00  0.00     0.171 HD
HETATM   38  C   UNK N   1      35.033  12.955  14.256  0.00  0.00     0.328 A 
HETATM   39  O   UNK N   1      36.717  14.422  14.692  0.00  0.00    -0.262 OA
HETATM   40  N   UNK N   1      34.483  12.092  13.348  0.00  0.00    -0.258 N 
HETATM   41  O   UNK N   1      34.512  13.107  15.347  0.00  0.00    -0.261 OA
HETATM   42  N   UNK N   1      35.038  11.904  12.151  0.00  0.00    -0.272 N 
HETATM   43  H   UNK N   1      33.664  11.600  13.583  0.00  0.00     0.190 HD
HETATM   44  C   UNK N   1      34.419  10.960  11.232  0.00  0.00     0.180 C 
ENDBRANCH  33  34
ENDBRANCH  32  33
ENDBRANCH   4  32
TORSDOF 10
ENDMDL
MODEL 9
REMARK VINA RESULT:      -7.8      5.107     11.568
REMARK  10 active torsions:
REMARK  status: ('A' for Active; 'I' for Inactive)
REMARK    1  A    between atoms: C_3  and  C_23 
REMARK    2  A    between atoms: C_4  and  C_14 
REMARK    3  A    between atoms: C_7  and  N_9 
REMARK       I    between atoms: N_9  and  C_10 
REMARK    4  A    between atoms: C_10  and  C_13 
REMARK    5  A    between atoms: C_13  and  C_15 
REMARK    6  A    between atoms: C_14  and  S_26 
REMARK    7  A    between atoms: C_18  and  N_28 
REMARK    8  A    between atoms: N_21  and  O_38 
REMARK    9  A    between atoms: C_23  and  O_24 
REMARK   10  A    between atoms: S_26  and  C_27 
ROOT
HETATM    1  C   UNK N   1      34.509  14.113   9.533  0.00  0.00     0.187 A 
HETATM    2  N   UNK N   1      35.864  13.695   9.388  0.00  0.00    -0.293 N 
HETATM    3  C   UNK N   1      36.759  13.266  10.416  0.00  0.00     0.116 C 
HETATM    4  C   UNK N   1      36.285  13.325  11.695  0.00  0.00    -0.027 C 
HETATM    5  C   UNK N   1      34.872  13.793  11.974  0.00  0.00     0.113 C 
HETATM    6  S   UNK N   1      34.409  15.242  10.945  0.00  0.00    -0.136 SA
HETATM    7  C   UNK N   1      34.610  14.672   8.018  0.00  0.00     0.211 A 
HETATM    8  C   UNK N   1      35.955  14.061   8.147  0.00  0.00     0.251 A 
HETATM    9  O   UNK N   1      36.934  14.078   7.418  0.00  0.00    -0.271 OA
ENDROOT
BRANCH   7  10
HETATM   10  N   UNK N   1      34.862  16.089   7.916  0.00  0.00    -0.340 N 
HETATM   11  C   UNK N   1      34.096  16.852   7.107  0.00  0.00     0.273 C 
HETATM   12  O   UNK N   1      34.489  17.955   6.764  0.00  0.00    -0.266 OA
HETATM   13  H   UNK N   1      35.591  16.499   8.436  0.00  0.00     0.163 HD
BRANCH  11  14
HETATM   14  C   UNK N   1      32.813  16.323   6.583  0.00  0.00     0.149 C 
HETATM   15  N   UNK N   1      32.751  15.703   5.443  0.00  0.00    -0.260 N 
ATOM     16  HN  UNK N   1      31.826  15.460   5.087  1.00  0.00     0.194 HD
BRANCH  14  17
HETATM   17  C   UNK N   1      31.554  16.738   7.228  0.00  0.00     0.075 A 
HETATM   18  C   UNK N   1      30.293  16.563   6.614  0.00  0.00     0.085 A 
HETATM   19  S   UNK N   1      29.221  17.335   7.615  0.00  0.00    -0.064 SA
HETATM   20  C   UNK N   1      30.300  17.861   8.738  0.00  0.00     0.142 A 
HETATM   21  N   UNK N   1      31.547  17.464   8.403  0.00  0.00    -0.335 N 
ATOM     22  HN  UNK N   1      32.382  17.676   8.950  1.00  0.00     0.168 HD
BRANCH  20  23
HETATM   23  N   UNK N   1      30.000  18.673   9.849  0.00  0.00    -0.380 N 
HETATM   24  H   UNK N   1      29.101  19.056   9.970  0.00  0.00     0.158 HD
HETATM   25  H   UNK N   1      30.701  18.861  10.514  0.00  0.00     0.158 HD
ENDBRANCH  20  23
ENDBRANCH  14  17
BRANCH  15  26
HETATM   26  O   UNK N   1      33.802  15.361   4.705  0.00  0.00    -0.285 OA
HETATM   27  C   UNK N   1      34.111  14.060   4.367  0.00  0.00     0.237 C 
ENDBRANCH  15  26
ENDBRANCH  11  14
ENDBRANCH   7  10
BRANCH   3  28
HETATM   28  C   UNK N   1      38.184  12.892  10.101  0.00  0.00     0.194 C 
HETATM   29  O   UNK N   1      38.461  11.764   9.732  0.00  0.00    -0.645 OA
BRANCH  28  30
HETATM   30  O   UNK N   1      39.182  13.791  10.204  0.00  0.00    -0.772 OA
HETATM   31  H   UNK N   1      39.612  13.921  11.027  0.00  0.00     0.167 HD
ENDBRANCH  28  30
ENDBRANCH   3  28
BRANCH   4  32
HETATM   32  C   UNK N   1      37.124  13.033  12.880  0.00  0.00     0.120 C 
BRANCH  32  33
HETATM   33  S   UNK N   1      36.195  11.912  13.960  0.00  0.00    -0.088 SA
BRANCH  33  34
HETATM   34  C   UNK N   1      36.258  13.141  15.248  0.00  0.00     0.164 A 
HETATM   35  N   UNK N   1      36.954  14.285  15.028  0.00  0.00    -0.298 N 
HETATM   36  C   UNK N   1      37.060  15.231  16.005  0.00  0.00     0.317 A 
ATOM     37  HN  UNK N   1      37.400  14.440  14.124  1.00  0.00     0.171 HD
HETATM   38  C   UNK N   1      36.441  15.008  17.234  0.00  0.00     0.328 A 
HETATM   39  O   UNK N   1      37.693  16.252  15.797  0.00  0.00    -0.262 OA
HETATM   40  N   UNK N   1      35.746  13.844  17.422  0.00  0.00    -0.258 N 
HETATM   41  O   UNK N   1      36.515  15.827  18.132  0.00  0.00    -0.261 OA
HETATM   42  N   UNK N   1      35.657  12.930  16.457  0.00  0.00    -0.272 N 
HETATM   43  H   UNK N   1      35.304  13.679  18.286  0.00  0.00     0.190 HD
HETATM   44  C   UNK N   1      34.919  11.703  16.720  0.00  0.00     0.180 C 
ENDBRANCH  33  34
ENDBRANCH  32  33
ENDBRANCH   4  32
TORSDOF 10
ENDMDL
