MODEL 1
REMARK VINA RESULT:      -7.5      0.000      0.000
REMARK  6 active torsions:
REMARK  status: ('A' for Active; 'I' for Inactive)
REMARK    1  A    between atoms: C_7  and  O_19 
REMARK    2  A    between atoms: C_8  and  C_11 
REMARK    3  A    between atoms: C_11  and  C_12 
REMARK    4  A    between atoms: C_11  and  C_20 
REMARK    5  A    between atoms: C_17  and  N_24 
REMARK    6  A    between atoms: C_20  and  C_21 
ROOT
HETATM    1  C   UNK N   1      20.546  16.506   7.960  0.00  0.00     0.067 C 
ENDROOT
BRANCH   1   2
HETATM    2  C   UNK N   1      20.366  16.805   6.455  0.00  0.00     0.060 A 
HETATM    3  C   UNK N   1      21.078  17.885   5.884  0.00  0.00     0.091 A 
HETATM    4  C   UNK N   1      20.917  18.188   4.528  0.00  0.00     0.032 A 
HETATM    5  C   UNK N   1      21.590  19.264   3.934  0.00  0.00     0.017 A 
HETATM    6  C   UNK N   1      20.052  17.396   3.752  0.00  0.00     0.092 A 
HETATM    7  C   UNK N   1      21.400  19.549   2.578  0.00  0.00     0.001 A 
HETATM    8  C   UNK N   1      20.537  18.759   1.811  0.00  0.00     0.003 A 
HETATM    9  C   UNK N   1      19.867  17.683   2.397  0.00  0.00     0.038 A 
HETATM   10  O   UNK N   1      19.417  16.370   4.296  0.00  0.00    -0.274 OA
HETATM   11  C   UNK N   1      19.535  16.040   5.578  0.00  0.00     0.298 A 
HETATM   12  O   UNK N   1      18.931  15.063   5.973  0.00  0.00    -0.259 OA
BRANCH   3  13
HETATM   13  O   UNK N   1      21.911  18.632   6.638  0.00  0.00    -0.359 OA
HETATM   14  H   UNK N   1      22.688  18.994   6.258  0.00  0.00     0.217 HD
ENDBRANCH   3  13
ENDBRANCH   1   2
BRANCH   1  15
HETATM   15  C   UNK N   1      21.163  15.176   8.311  0.00  0.00    -0.049 A 
HETATM   16  C   UNK N   1      22.205  14.644   7.532  0.00  0.00     0.010 A 
HETATM   17  C   UNK N   1      22.805  13.438   7.892  0.00  0.00     0.036 A 
HETATM   18  C   UNK N   1      22.352  12.728   9.014  0.00  0.00     0.102 A 
HETATM   19  C   UNK N   1      21.280  13.240   9.763  0.00  0.00     0.036 A 
HETATM   20  C   UNK N   1      20.695  14.462   9.419  0.00  0.00     0.010 A 
BRANCH  18  21
HETATM   21  N   UNK N   1      22.979  11.510   9.394  0.00  0.00    -0.116 N 
HETATM   22  O   UNK N   1      23.571  10.760   8.487  0.00  0.00    -0.532 OA
HETATM   23  O   UNK N   1      22.953  11.146  10.531  0.00  0.00    -0.532 OA
ENDBRANCH  18  21
ENDBRANCH   1  15
BRANCH   1  24
HETATM   24  C   UNK N   1      19.224  16.654   8.727  0.00  0.00     0.092 C 
BRANCH  24  25
HETATM   25  C   UNK N   1      19.096  18.004   9.371  0.00  0.00     0.124 C 
HETATM   26  C   UNK N   1      17.936  18.328  10.252  0.00  0.00     0.091 C 
HETATM   27  O   UNK N   1      19.939  18.857   9.151  0.00  0.00    -0.298 OA
ENDBRANCH  24  25
ENDBRANCH   1  24
TORSDOF 6
ENDMDL
MODEL 2
REMARK VINA RESULT:      -7.2     15.539     16.881
REMARK  6 active torsions:
REMARK  status: ('A' for Active; 'I' for Inactive)
REMARK    1  A    between atoms: C_7  and  O_19 
REMARK    2  A    between atoms: C_8  and  C_11 
REMARK    3  A    between atoms: C_11  and  C_12 
REMARK    4  A    between atoms: C_11  and  C_20 
REMARK    5  A    between atoms: C_17  and  N_24 
REMARK    6  A    between atoms: C_20  and  C_21 
ROOT
HETATM    1  C   UNK N   1      27.853  23.937  -4.880  0.00  0.00     0.067 C 
ENDROOT
BRANCH   1   2
HETATM    2  C   UNK N   1      27.943  25.476  -4.996  0.00  0.00     0.060 A 
HETATM    3  C   UNK N   1      27.095  26.272  -4.192  0.00  0.00     0.091 A 
HETATM    4  C   UNK N   1      27.144  27.666  -4.294  0.00  0.00     0.032 A 
HETATM    5  C   UNK N   1      26.304  28.485  -3.528  0.00  0.00     0.017 A 
HETATM    6  C   UNK N   1      28.054  28.251  -5.192  0.00  0.00     0.092 A 
HETATM    7  C   UNK N   1      26.369  29.876  -3.660  0.00  0.00     0.001 A 
HETATM    8  C   UNK N   1      27.274  30.453  -4.556  0.00  0.00     0.003 A 
HETATM    9  C   UNK N   1      28.117  29.642  -5.319  0.00  0.00     0.038 A 
HETATM   10  O   UNK N   1      28.862  27.491  -5.915  0.00  0.00    -0.274 OA
HETATM   11  C   UNK N   1      28.855  26.164  -5.856  0.00  0.00     0.298 A 
HETATM   12  O   UNK N   1      29.656  25.559  -6.540  0.00  0.00    -0.259 OA
BRANCH   3  13
HETATM   13  O   UNK N   1      26.233  25.698  -3.328  0.00  0.00    -0.359 OA
HETATM   14  H   UNK N   1      26.469  25.602  -2.426  0.00  0.00     0.217 HD
ENDBRANCH   3  13
ENDBRANCH   1   2
BRANCH   1  15
HETATM   15  C   UNK N   1      29.086  23.229  -4.380  0.00  0.00    -0.049 A 
HETATM   16  C   UNK N   1      29.697  22.226  -5.152  0.00  0.00     0.010 A 
HETATM   17  C   UNK N   1      30.866  21.610  -4.706  0.00  0.00     0.036 A 
HETATM   18  C   UNK N   1      31.422  21.961  -3.467  0.00  0.00     0.102 A 
HETATM   19  C   UNK N   1      30.783  22.929  -2.677  0.00  0.00     0.036 A 
HETATM   20  C   UNK N   1      29.626  23.566  -3.135  0.00  0.00     0.010 A 
BRANCH  18  21
HETATM   21  N   UNK N   1      32.626  21.349  -3.022  0.00  0.00    -0.116 N 
HETATM   22  O   UNK N   1      33.425  20.756  -3.886  0.00  0.00    -0.532 OA
HETATM   23  O   UNK N   1      32.910  21.346  -1.862  0.00  0.00    -0.532 OA
ENDBRANCH  18  21
ENDBRANCH   1  15
BRANCH   1  24
HETATM   24  C   UNK N   1      27.419  23.296  -6.205  0.00  0.00     0.092 C 
BRANCH  24  25
HETATM   25  C   UNK N   1      25.930  23.114  -6.280  0.00  0.00     0.124 C 
HETATM   26  C   UNK N   1      25.327  22.055  -7.141  0.00  0.00     0.091 C 
HETATM   27  O   UNK N   1      25.201  23.859  -5.647  0.00  0.00    -0.298 OA
ENDBRANCH  24  25
ENDBRANCH   1  24
TORSDOF 6
ENDMDL
MODEL 3
REMARK VINA RESULT:      -6.9      9.612     11.249
REMARK  6 active torsions:
REMARK  status: ('A' for Active; 'I' for Inactive)
REMARK    1  A    between atoms: C_7  and  O_19 
REMARK    2  A    between atoms: C_8  and  C_11 
REMARK    3  A    between atoms: C_11  and  C_12 
REMARK    4  A    between atoms: C_11  and  C_20 
REMARK    5  A    between atoms: C_17  and  N_24 
REMARK    6  A    between atoms: C_20  and  C_21 
ROOT
HETATM    1  C   UNK N   1      30.293  16.840   5.392  0.00  0.00     0.067 C 
ENDROOT
BRANCH   1   2
HETATM    2  C   UNK N   1      30.246  15.407   4.816  0.00  0.00     0.060 A 
HETATM    3  C   UNK N   1      29.738  15.214   3.510  0.00  0.00     0.091 A 
HETATM    4  C   UNK N   1      29.666  13.924   2.975  0.00  0.00     0.032 A 
HETATM    5  C   UNK N   1      29.149  13.691   1.693  0.00  0.00     0.017 A 
HETATM    6  C   UNK N   1      30.118  12.839   3.748  0.00  0.00     0.092 A 
HETATM    7  C   UNK N   1      29.080  12.389   1.189  0.00  0.00     0.001 A 
HETATM    8  C   UNK N   1      29.529  11.314   1.962  0.00  0.00     0.003 A 
HETATM    9  C   UNK N   1      30.049  11.539   3.239  0.00  0.00     0.038 A 
HETATM   10  O   UNK N   1      30.619  13.043   4.957  0.00  0.00    -0.274 OA
HETATM   11  C   UNK N   1      30.708  14.247   5.511  0.00  0.00     0.298 A 
HETATM   12  O   UNK N   1      31.210  14.330   6.614  0.00  0.00    -0.259 OA
BRANCH   3  13
HETATM   13  O   UNK N   1      29.316  16.263   2.776  0.00  0.00    -0.359 OA
HETATM   14  H   UNK N   1      29.897  16.978   2.604  0.00  0.00     0.217 HD
ENDBRANCH   3  13
ENDBRANCH   1   2
BRANCH   1  15
HETATM   15  C   UNK N   1      31.486  17.180   6.251  0.00  0.00    -0.049 A 
HETATM   16  C   UNK N   1      32.775  17.235   5.694  0.00  0.00     0.010 A 
HETATM   17  C   UNK N   1      33.866  17.599   6.483  0.00  0.00     0.036 A 
HETATM   18  C   UNK N   1      33.691  17.878   7.846  0.00  0.00     0.102 A 
HETATM   19  C   UNK N   1      32.410  17.776   8.410  0.00  0.00     0.036 A 
HETATM   20  C   UNK N   1      31.311  17.438   7.614  0.00  0.00     0.010 A 
BRANCH  18  21
HETATM   21  N   UNK N   1      34.799  18.271   8.646  0.00  0.00    -0.116 N 
HETATM   22  O   UNK N   1      35.208  17.501   9.634  0.00  0.00    -0.532 OA
HETATM   23  O   UNK N   1      35.352  19.310   8.444  0.00  0.00    -0.532 OA
ENDBRANCH  18  21
ENDBRANCH   1  15
BRANCH   1  24
HETATM   24  C   UNK N   1      29.014  17.179   6.170  0.00  0.00     0.092 C 
BRANCH  24  25
HETATM   25  C   UNK N   1      28.290  18.353   5.575  0.00  0.00     0.124 C 
HETATM   26  C   UNK N   1      27.803  19.471   6.435  0.00  0.00     0.091 C 
HETATM   27  O   UNK N   1      28.073  18.381   4.376  0.00  0.00    -0.298 OA
ENDBRANCH  24  25
ENDBRANCH   1  24
TORSDOF 6
ENDMDL
MODEL 4
REMARK VINA RESULT:      -6.8      8.379     11.081
REMARK  6 active torsions:
REMARK  status: ('A' for Active; 'I' for Inactive)
REMARK    1  A    between atoms: C_7  and  O_19 
REMARK    2  A    between atoms: C_8  and  C_11 
REMARK    3  A    between atoms: C_11  and  C_12 
REMARK    4  A    between atoms: C_11  and  C_20 
REMARK    5  A    between atoms: C_17  and  N_24 
REMARK    6  A    between atoms: C_20  and  C_21 
ROOT
HETATM    1  C   UNK N   1      28.977  16.658   3.988  0.00  0.00     0.067 C 
ENDROOT
BRANCH   1   2
HETATM    2  C   UNK N   1      29.841  16.892   5.248  0.00  0.00     0.060 A 
HETATM    3  C   UNK N   1      31.229  17.112   5.091  0.00  0.00     0.091 A 
HETATM    4  C   UNK N   1      32.036  17.306   6.218  0.00  0.00     0.032 A 
HETATM    5  C   UNK N   1      33.418  17.506   6.102  0.00  0.00     0.017 A 
HETATM    6  C   UNK N   1      31.440  17.292   7.492  0.00  0.00     0.092 A 
HETATM    7  C   UNK N   1      34.200  17.686   7.248  0.00  0.00     0.001 A 
HETATM    8  C   UNK N   1      33.603  17.670   8.512  0.00  0.00     0.003 A 
HETATM    9  C   UNK N   1      32.226  17.475   8.634  0.00  0.00     0.038 A 
HETATM   10  O   UNK N   1      30.134  17.115   7.618  0.00  0.00    -0.274 OA
HETATM   11  C   UNK N   1      29.325  16.926   6.581  0.00  0.00     0.298 A 
HETATM   12  O   UNK N   1      28.137  16.801   6.801  0.00  0.00    -0.259 OA
BRANCH   3  13
HETATM   13  O   UNK N   1      31.787  17.132   3.864  0.00  0.00    -0.359 OA
HETATM   14  H   UNK N   1      32.615  17.549   3.732  0.00  0.00     0.217 HD
ENDBRANCH   3  13
ENDBRANCH   1   2
BRANCH   1  15
HETATM   15  C   UNK N   1      27.778  17.556   3.821  0.00  0.00    -0.049 A 
HETATM   16  C   UNK N   1      27.898  18.947   3.987  0.00  0.00     0.010 A 
HETATM   17  C   UNK N   1      26.796  19.776   3.780  0.00  0.00     0.036 A 
HETATM   18  C   UNK N   1      25.551  19.227   3.440  0.00  0.00     0.102 A 
HETATM   19  C   UNK N   1      25.424  17.835   3.320  0.00  0.00     0.036 A 
HETATM   20  C   UNK N   1      26.534  17.004   3.501  0.00  0.00     0.010 A 
BRANCH  18  21
HETATM   21  N   UNK N   1      24.433  20.075   3.207  0.00  0.00    -0.116 N 
HETATM   22  O   UNK N   1      24.495  21.013   2.285  0.00  0.00    -0.532 OA
HETATM   23  O   UNK N   1      23.441  19.959   3.861  0.00  0.00    -0.532 OA
ENDBRANCH  18  21
ENDBRANCH   1  15
BRANCH   1  24
HETATM   24  C   UNK N   1      28.517  15.197   3.883  0.00  0.00     0.092 C 
BRANCH  24  25
HETATM   25  C   UNK N   1      29.277  14.444   2.829  0.00  0.00     0.124 C 
HETATM   26  C   UNK N   1      28.566  13.603   1.822  0.00  0.00     0.091 C 
HETATM   27  O   UNK N   1      30.495  14.499   2.811  0.00  0.00    -0.298 OA
ENDBRANCH  24  25
ENDBRANCH   1  24
TORSDOF 6
ENDMDL
MODEL 5
REMARK VINA RESULT:      -6.8      3.306      7.700
REMARK  6 active torsions:
REMARK  status: ('A' for Active; 'I' for Inactive)
REMARK    1  A    between atoms: C_7  and  O_19 
REMARK    2  A    between atoms: C_8  and  C_11 
REMARK    3  A    between atoms: C_11  and  C_12 
REMARK    4  A    between atoms: C_11  and  C_20 
REMARK    5  A    between atoms: C_17  and  N_24 
REMARK    6  A    between atoms: C_20  and  C_21 
ROOT
HETATM    1  C   UNK N   1      22.424  14.437   5.282  0.00  0.00     0.067 C 
ENDROOT
BRANCH   1   2
HETATM    2  C   UNK N   1      21.978  14.013   6.699  0.00  0.00     0.060 A 
HETATM    3  C   UNK N   1      22.939  13.467   7.581  0.00  0.00     0.091 A 
HETATM    4  C   UNK N   1      22.555  13.057   8.862  0.00  0.00     0.032 A 
HETATM    5  C   UNK N   1      23.475  12.492   9.756  0.00  0.00     0.017 A 
HETATM    6  C   UNK N   1      21.213  13.213   9.253  0.00  0.00     0.092 A 
HETATM    7  C   UNK N   1      23.059  12.082  11.026  0.00  0.00     0.001 A 
HETATM    8  C   UNK N   1      21.723  12.236  11.410  0.00  0.00     0.003 A 
HETATM    9  C   UNK N   1      20.803  12.803  10.525  0.00  0.00     0.038 A 
HETATM   10  O   UNK N   1      20.334  13.754   8.425  0.00  0.00    -0.274 OA
HETATM   11  C   UNK N   1      20.647  14.159   7.198  0.00  0.00     0.298 A 
HETATM   12  O   UNK N   1      19.773  14.669   6.527  0.00  0.00    -0.259 OA
BRANCH   3  13
HETATM   13  O   UNK N   1      24.225  13.332   7.197  0.00  0.00    -0.359 OA
HETATM   14  H   UNK N   1      24.914  13.637   7.753  0.00  0.00     0.217 HD
ENDBRANCH   3  13
ENDBRANCH   1   2
BRANCH   1  15
HETATM   15  C   UNK N   1      22.140  15.864   4.887  0.00  0.00    -0.049 A 
HETATM   16  C   UNK N   1      22.630  16.931   5.660  0.00  0.00     0.010 A 
HETATM   17  C   UNK N   1      22.406  18.248   5.261  0.00  0.00     0.036 A 
HETATM   18  C   UNK N   1      21.660  18.521   4.105  0.00  0.00     0.102 A 
HETATM   19  C   UNK N   1      21.132  17.454   3.361  0.00  0.00     0.036 A 
HETATM   20  C   UNK N   1      21.379  16.132   3.745  0.00  0.00     0.010 A 
BRANCH  18  21
HETATM   21  N   UNK N   1      21.450  19.863   3.686  0.00  0.00    -0.116 N 
HETATM   22  O   UNK N   1      22.408  20.519   3.062  0.00  0.00    -0.532 OA
HETATM   23  O   UNK N   1      20.417  20.414   3.918  0.00  0.00    -0.532 OA
ENDBRANCH  18  21
ENDBRANCH   1  15
BRANCH   1  24
HETATM   24  C   UNK N   1      21.850  13.505   4.206  0.00  0.00     0.092 C 
BRANCH  24  25
HETATM   25  C   UNK N   1      22.784  12.374   3.885  0.00  0.00     0.124 C 
HETATM   26  C   UNK N   1      22.312  11.178   3.128  0.00  0.00     0.091 C 
HETATM   27  O   UNK N   1      23.940  12.421   4.271  0.00  0.00    -0.298 OA
ENDBRANCH  24  25
ENDBRANCH   1  24
TORSDOF 6
ENDMDL
MODEL 6
REMARK VINA RESULT:      -6.7      3.342      7.661
REMARK  6 active torsions:
REMARK  status: ('A' for Active; 'I' for Inactive)
REMARK    1  A    between atoms: C_7  and  O_19 
REMARK    2  A    between atoms: C_8  and  C_11 
REMARK    3  A    between atoms: C_11  and  C_12 
REMARK    4  A    between atoms: C_11  and  C_20 
REMARK    5  A    between atoms: C_17  and  N_24 
REMARK    6  A    between atoms: C_20  and  C_21 
ROOT
HETATM    1  C   UNK N   1      20.766  15.230   4.086  0.00  0.00     0.067 C 
ENDROOT
BRANCH   1   2
HETATM    2  C   UNK N   1      20.702  14.922   5.599  0.00  0.00     0.060 A 
HETATM    3  C   UNK N   1      21.568  13.939   6.132  0.00  0.00     0.091 A 
HETATM    4  C   UNK N   1      21.515  13.628   7.495  0.00  0.00     0.032 A 
HETATM    5  C   UNK N   1      22.342  12.645   8.054  0.00  0.00     0.017 A 
HETATM    6  C   UNK N   1      20.604  14.318   8.315  0.00  0.00     0.092 A 
HETATM    7  C   UNK N   1      22.258  12.349   9.418  0.00  0.00     0.001 A 
HETATM    8  C   UNK N   1      21.350  13.036  10.229  0.00  0.00     0.003 A 
HETATM    9  C   UNK N   1      20.526  14.020   9.679  0.00  0.00     0.038 A 
HETATM   10  O   UNK N   1      19.823  15.257   7.805  0.00  0.00    -0.274 OA
HETATM   11  C   UNK N   1      19.834  15.589   6.518  0.00  0.00     0.298 A 
HETATM   12  O   UNK N   1      19.098  16.484   6.155  0.00  0.00    -0.259 OA
BRANCH   3  13
HETATM   13  O   UNK N   1      22.443  13.291   5.336  0.00  0.00    -0.359 OA
HETATM   14  H   UNK N   1      22.582  12.371   5.444  0.00  0.00     0.217 HD
ENDBRANCH   3  13
ENDBRANCH   1   2
BRANCH   1  15
HETATM   15  C   UNK N   1      20.992  16.671   3.703  0.00  0.00    -0.049 A 
HETATM   16  C   UNK N   1      22.130  17.361   4.157  0.00  0.00     0.010 A 
HETATM   17  C   UNK N   1      22.358  18.677   3.757  0.00  0.00     0.036 A 
HETATM   18  C   UNK N   1      21.438  19.335   2.928  0.00  0.00     0.102 A 
HETATM   19  C   UNK N   1      20.280  18.658   2.515  0.00  0.00     0.036 A 
HETATM   20  C   UNK N   1      20.063  17.330   2.893  0.00  0.00     0.010 A 
BRANCH  18  21
HETATM   21  N   UNK N   1      21.682  20.669   2.502  0.00  0.00    -0.116 N 
HETATM   22  O   UNK N   1      20.906  21.227   1.596  0.00  0.00    -0.532 OA
HETATM   23  O   UNK N   1      22.605  21.285   2.943  0.00  0.00    -0.532 OA
ENDBRANCH  18  21
ENDBRANCH   1  15
BRANCH   1  24
HETATM   24  C   UNK N   1      19.520  14.715   3.352  0.00  0.00     0.092 C 
BRANCH  24  25
HETATM   25  C   UNK N   1      19.837  13.556   2.451  0.00  0.00     0.124 C 
HETATM   26  C   UNK N   1      19.265  13.473   1.075  0.00  0.00     0.091 C 
HETATM   27  O   UNK N   1      20.553  12.657   2.858  0.00  0.00    -0.298 OA
ENDBRANCH  24  25
ENDBRANCH   1  24
TORSDOF 6
ENDMDL
MODEL 7
REMARK VINA RESULT:      -6.6     14.999     17.783
REMARK  6 active torsions:
REMARK  status: ('A' for Active; 'I' for Inactive)
REMARK    1  A    between atoms: C_7  and  O_19 
REMARK    2  A    between atoms: C_8  and  C_11 
REMARK    3  A    between atoms: C_11  and  C_12 
REMARK    4  A    between atoms: C_11  and  C_20 
REMARK    5  A    between atoms: C_17  and  N_24 
REMARK    6  A    between atoms: C_20  and  C_21 
ROOT
HETATM    1  C   UNK N   1      26.980  26.686  -5.676  0.00  0.00     0.067 C 
ENDROOT
BRANCH   1   2
HETATM    2  C   UNK N   1      26.763  26.298  -7.155  0.00  0.00     0.060 A 
HETATM    3  C   UNK N   1      27.501  26.974  -8.154  0.00  0.00     0.091 A 
HETATM    4  C   UNK N   1      27.307  26.654  -9.502  0.00  0.00     0.032 A 
HETATM    5  C   UNK N   1      28.006  27.319 -10.519  0.00  0.00     0.017 A 
HETATM    6  C   UNK N   1      26.383  25.648  -9.836  0.00  0.00     0.092 A 
HETATM    7  C   UNK N   1      27.782  26.984 -11.858  0.00  0.00     0.001 A 
HETATM    8  C   UNK N   1      26.861  25.984 -12.186  0.00  0.00     0.003 A 
HETATM    9  C   UNK N   1      26.165  25.316 -11.176  0.00  0.00     0.038 A 
HETATM   10  O   UNK N   1      25.723  25.004  -8.886  0.00  0.00    -0.274 OA
HETATM   11  C   UNK N   1      25.871  25.270  -7.593  0.00  0.00     0.298 A 
HETATM   12  O   UNK N   1      25.239  24.602  -6.798  0.00  0.00    -0.259 OA
BRANCH   3  13
HETATM   13  O   UNK N   1      28.391  27.931  -7.819  0.00  0.00    -0.359 OA
HETATM   14  H   UNK N   1      29.302  27.807  -7.998  0.00  0.00     0.217 HD
ENDBRANCH   3  13
ENDBRANCH   1   2
BRANCH   1  15
HETATM   15  C   UNK N   1      27.744  25.700  -4.828  0.00  0.00    -0.049 A 
HETATM   16  C   UNK N   1      27.063  24.784  -4.008  0.00  0.00     0.010 A 
HETATM   17  C   UNK N   1      27.774  23.842  -3.266  0.00  0.00     0.036 A 
HETATM   18  C   UNK N   1      29.176  23.823  -3.304  0.00  0.00     0.102 A 
HETATM   19  C   UNK N   1      29.855  24.769  -4.088  0.00  0.00     0.036 A 
HETATM   20  C   UNK N   1      29.142  25.697  -4.853  0.00  0.00     0.010 A 
BRANCH  18  21
HETATM   21  N   UNK N   1      29.900  22.848  -2.565  0.00  0.00    -0.116 N 
HETATM   22  O   UNK N   1      30.434  23.161  -1.402  0.00  0.00    -0.532 OA
HETATM   23  O   UNK N   1      30.051  21.747  -3.002  0.00  0.00    -0.532 OA
ENDBRANCH  18  21
ENDBRANCH   1  15
BRANCH   1  24
HETATM   24  C   UNK N   1      25.653  27.013  -4.977  0.00  0.00     0.092 C 
BRANCH  24  25
HETATM   25  C   UNK N   1      25.824  28.051  -3.905  0.00  0.00     0.124 C 
HETATM   26  C   UNK N   1      26.482  29.358  -4.198  0.00  0.00     0.091 C 
HETATM   27  O   UNK N   1      25.443  27.813  -2.771  0.00  0.00    -0.298 OA
ENDBRANCH  24  25
ENDBRANCH   1  24
TORSDOF 6
ENDMDL
MODEL 8
REMARK VINA RESULT:      -6.6      9.352     10.963
REMARK  6 active torsions:
REMARK  status: ('A' for Active; 'I' for Inactive)
REMARK    1  A    between atoms: C_7  and  O_19 
REMARK    2  A    between atoms: C_8  and  C_11 
REMARK    3  A    between atoms: C_11  and  C_12 
REMARK    4  A    between atoms: C_11  and  C_20 
REMARK    5  A    between atoms: C_17  and  N_24 
REMARK    6  A    between atoms: C_20  and  C_21 
ROOT
HETATM    1  C   UNK N   1      31.009  15.744   4.902  0.00  0.00     0.067 C 
ENDROOT
BRANCH   1   2
HETATM    2  C   UNK N   1      29.589  16.353   4.899  0.00  0.00     0.060 A 
HETATM    3  C   UNK N   1      29.437  17.728   4.602  0.00  0.00     0.091 A 
HETATM    4  C   UNK N   1      28.164  18.306   4.613  0.00  0.00     0.032 A 
HETATM    5  C   UNK N   1      27.978  19.670   4.345  0.00  0.00     0.017 A 
HETATM    6  C   UNK N   1      27.051  17.498   4.906  0.00  0.00     0.092 A 
HETATM    7  C   UNK N   1      26.693  20.221   4.373  0.00  0.00     0.001 A 
HETATM    8  C   UNK N   1      25.590  19.414   4.668  0.00  0.00     0.003 A 
HETATM    9  C   UNK N   1      25.769  18.054   4.931  0.00  0.00     0.038 A 
HETATM   10  O   UNK N   1      27.209  16.207   5.151  0.00  0.00    -0.274 OA
HETATM   11  C   UNK N   1      28.396  15.609   5.154  0.00  0.00     0.298 A 
HETATM   12  O   UNK N   1      28.430  14.413   5.363  0.00  0.00    -0.259 OA
BRANCH   3  13
HETATM   13  O   UNK N   1      30.512  18.490   4.313  0.00  0.00    -0.359 OA
HETATM   14  H   UNK N   1      30.665  18.769   3.432  0.00  0.00     0.217 HD
ENDBRANCH   3  13
ENDBRANCH   1   2
BRANCH   1  15
HETATM   15  C   UNK N   1      31.982  16.313   5.904  0.00  0.00    -0.049 A 
HETATM   16  C   UNK N   1      33.272  16.705   5.506  0.00  0.00     0.010 A 
HETATM   17  C   UNK N   1      34.148  17.277   6.427  0.00  0.00     0.036 A 
HETATM   18  C   UNK N   1      33.762  17.434   7.767  0.00  0.00     0.102 A 
HETATM   19  C   UNK N   1      32.491  16.999   8.171  0.00  0.00     0.036 A 
HETATM   20  C   UNK N   1      31.601  16.450   7.243  0.00  0.00     0.010 A 
BRANCH  18  21
HETATM   21  N   UNK N   1      34.647  18.038   8.701  0.00  0.00    -0.116 N 
HETATM   22  O   UNK N   1      35.218  19.193   8.422  0.00  0.00    -0.532 OA
HETATM   23  O   UNK N   1      34.899  17.494   9.734  0.00  0.00    -0.532 OA
ENDBRANCH  18  21
ENDBRANCH   1  15
BRANCH   1  24
HETATM   24  C   UNK N   1      31.650  15.798   3.508  0.00  0.00     0.092 C 
BRANCH  24  25
HETATM   25  C   UNK N   1      32.010  14.430   3.002  0.00  0.00     0.124 C 
HETATM   26  C   UNK N   1      31.203  13.233   3.383  0.00  0.00     0.091 C 
HETATM   27  O   UNK N   1      32.990  14.291   2.291  0.00  0.00    -0.298 OA
ENDBRANCH  24  25
ENDBRANCH   1  24
TORSDOF 6
ENDMDL
MODEL 9
REMARK VINA RESULT:      -6.6     13.142     15.592
REMARK  6 active torsions:
REMARK  status: ('A' for Active; 'I' for Inactive)
REMARK    1  A    between atoms: C_7  and  O_19 
REMARK    2  A    between atoms: C_8  and  C_11 
REMARK    3  A    between atoms: C_11  and  C_12 
REMARK    4  A    between atoms: C_11  and  C_20 
REMARK    5  A    between atoms: C_17  and  N_24 
REMARK    6  A    between atoms: C_20  and  C_21 
ROOT
HETATM    1  C   UNK N   1      35.970  13.420  11.094  0.00  0.00     0.067 C 
ENDROOT
BRANCH   1   2
HETATM    2  C   UNK N   1      35.237  14.587  10.394  0.00  0.00     0.060 A 
HETATM    3  C   UNK N   1      33.996  14.334   9.766  0.00  0.00     0.091 A 
HETATM    4  C   UNK N   1      33.323  15.370   9.109  0.00  0.00     0.032 A 
HETATM    5  C   UNK N   1      32.101  15.151   8.457  0.00  0.00     0.017 A 
HETATM    6  C   UNK N   1      33.895  16.655   9.101  0.00  0.00     0.092 A 
HETATM    7  C   UNK N   1      31.458  16.205   7.800  0.00  0.00     0.001 A 
HETATM    8  C   UNK N   1      32.031  17.480   7.792  0.00  0.00     0.003 A 
HETATM    9  C   UNK N   1      33.246  17.705   8.444  0.00  0.00     0.038 A 
HETATM   10  O   UNK N   1      35.042  16.880   9.720  0.00  0.00    -0.274 OA
HETATM   11  C   UNK N   1      35.721  15.932  10.357  0.00  0.00     0.298 A 
HETATM   12  O   UNK N   1      36.751  16.248  10.919  0.00  0.00    -0.259 OA
BRANCH   3  13
HETATM   13  O   UNK N   1      33.454  13.099   9.789  0.00  0.00    -0.359 OA
HETATM   14  H   UNK N   1      33.227  12.703  10.608  0.00  0.00     0.217 HD
ENDBRANCH   3  13
ENDBRANCH   1   2
BRANCH   1  15
HETATM   15  C   UNK N   1      35.732  13.269  12.575  0.00  0.00    -0.049 A 
HETATM   16  C   UNK N   1      34.803  12.331  13.058  0.00  0.00     0.010 A 
HETATM   17  C   UNK N   1      34.626  12.161  14.431  0.00  0.00     0.036 A 
HETATM   18  C   UNK N   1      35.345  12.951  15.340  0.00  0.00     0.102 A 
HETATM   19  C   UNK N   1      36.236  13.919  14.854  0.00  0.00     0.036 A 
HETATM   20  C   UNK N   1      36.436  14.072  13.478  0.00  0.00     0.010 A 
BRANCH  18  21
HETATM   21  N   UNK N   1      35.180  12.762  16.740  0.00  0.00    -0.116 N 
HETATM   22  O   UNK N   1      35.128  13.803  17.546  0.00  0.00    -0.532 OA
HETATM   23  O   UNK N   1      35.112  11.662  17.198  0.00  0.00    -0.532 OA
ENDBRANCH  18  21
ENDBRANCH   1  15
BRANCH   1  24
HETATM   24  C   UNK N   1      37.483  13.471  10.840  0.00  0.00     0.092 C 
BRANCH  24  25
HETATM   25  C   UNK N   1      37.830  13.081   9.432  0.00  0.00     0.124 C 
HETATM   26  C   UNK N   1      37.443  11.747   8.887  0.00  0.00     0.091 C 
HETATM   27  O   UNK N   1      38.459  13.856   8.732  0.00  0.00    -0.298 OA
ENDBRANCH  24  25
ENDBRANCH   1  24
TORSDOF 6
ENDMDL
