MODEL 1
REMARK VINA RESULT:      -7.5      0.000      0.000
REMARK  4 active torsions:
REMARK  status: ('A' for Active; 'I' for Inactive)
REMARK    1  A    between atoms: C_15  and  C_19 
REMARK    2  A    between atoms: C_16  and  C_18 
REMARK    3  A    between atoms: C_17  and  O_20 
REMARK    4  A    between atoms: C_21  and  O_23 
ROOT
HETATM    1  C   UNK N   1      26.554  30.462  -3.399  0.00  0.00     0.001 A 
HETATM    2  C   UNK N   1      27.536  31.045  -4.226  0.00  0.00     0.002 A 
HETATM    3  C   UNK N   1      28.018  30.354  -5.349  0.00  0.00     0.030 A 
HETATM    4  C   UNK N   1      27.490  29.093  -5.618  0.00  0.00     0.037 A 
HETATM    5  C   UNK N   1      26.517  28.525  -4.825  0.00  0.00    -0.018 A 
HETATM    6  C   UNK N   1      26.048  29.184  -3.687  0.00  0.00     0.010 A 
HETATM    7  N   UNK N   1      27.827  28.246  -6.678  0.00  0.00    -0.377 N 
HETATM    8  C   UNK N   1      26.827  27.219  -6.740  0.00  0.00     0.133 C 
HETATM    9  C   UNK N   1      26.217  27.130  -5.307  0.00  0.00     0.040 C 
HETATM   10  C   UNK N   1      27.057  25.877  -7.427  0.00  0.00     0.251 C 
HETATM   11  N   UNK N   1      25.765  25.113  -7.337  0.00  0.00     0.129 N 
HETATM   12  C   UNK N   1      25.239  25.127  -5.938  0.00  0.00     0.235 C 
HETATM   13  C   UNK N   1      24.842  26.566  -5.535  0.00  0.00     0.055 C 
HETATM   14  C   UNK N   1      28.194  25.136  -6.693  0.00  0.00     0.043 C 
HETATM   15  C   UNK N   1      27.563  24.082  -5.774  0.00  0.00     0.005 C 
HETATM   16  C   UNK N   1      26.936  23.013  -6.690  0.00  0.00     0.049 C 
HETATM   17  C   UNK N   1      26.013  23.708  -7.720  0.00  0.00     0.362 C 
HETATM   18  C   UNK N   1      26.401  24.743  -4.971  0.00  0.00     0.053 C 
HETATM   19  C   UNK N   1      26.853  26.079  -4.375  0.00  0.00     0.140 C 
HETATM   20  C   UNK N   1      28.641  28.644  -7.797  0.00  0.00     0.150 C 
ENDROOT
BRANCH  16  21
HETATM   21  C   UNK N   1      27.944  22.078  -7.370  0.00  0.00     0.005 C 
HETATM   22  C   UNK N   1      29.115  21.690  -6.474  0.00  0.00     0.005 C 
ENDBRANCH  16  21
BRANCH  17  23
HETATM   23  O   UNK N   1      24.813  23.003  -7.843  0.00  0.00    -0.367 OA
HETATM   24  H   UNK N   1      23.914  23.315  -8.034  0.00  0.00     0.212 HD
ENDBRANCH  17  23
BRANCH  19  25
HETATM   25  O   UNK N   1      26.312  26.193  -3.090  0.00  0.00    -0.394 OA
HETATM   26  H   UNK N   1      25.385  26.399  -2.895  0.00  0.00     0.210 HD
ENDBRANCH  19  25
TORSDOF 4
ENDMDL
MODEL 2
REMARK VINA RESULT:      -7.3      1.686      6.090
REMARK  4 active torsions:
REMARK  status: ('A' for Active; 'I' for Inactive)
REMARK    1  A    between atoms: C_15  and  C_19 
REMARK    2  A    between atoms: C_16  and  C_18 
REMARK    3  A    between atoms: C_17  and  O_20 
REMARK    4  A    between atoms: C_21  and  O_23 
ROOT
HETATM    1  C   UNK N   1      27.276  20.964  -8.036  0.00  0.00     0.001 A 
HETATM    2  C   UNK N   1      28.661  20.830  -7.813  0.00  0.00     0.002 A 
HETATM    3  C   UNK N   1      29.347  21.771  -7.027  0.00  0.00     0.030 A 
HETATM    4  C   UNK N   1      28.615  22.820  -6.474  0.00  0.00     0.037 A 
HETATM    5  C   UNK N   1      27.258  22.947  -6.673  0.00  0.00    -0.018 A 
HETATM    6  C   UNK N   1      26.565  22.040  -7.476  0.00  0.00     0.010 A 
HETATM    7  N   UNK N   1      29.101  23.853  -5.667  0.00  0.00    -0.377 N 
HETATM    8  C   UNK N   1      27.967  24.507  -5.081  0.00  0.00     0.133 C 
HETATM    9  C   UNK N   1      26.768  24.222  -6.038  0.00  0.00     0.040 C 
HETATM   10  C   UNK N   1      28.022  25.925  -4.524  0.00  0.00     0.251 C 
HETATM   11  N   UNK N   1      26.667  26.221  -3.943  0.00  0.00     0.129 N 
HETATM   12  C   UNK N   1      25.587  25.869  -4.916  0.00  0.00     0.235 C 
HETATM   13  C   UNK N   1      25.561  24.341  -5.149  0.00  0.00     0.055 C 
HETATM   14  C   UNK N   1      28.358  26.895  -5.676  0.00  0.00     0.043 C 
HETATM   15  C   UNK N   1      27.057  27.573  -6.125  0.00  0.00     0.005 C 
HETATM   16  C   UNK N   1      26.611  28.489  -4.968  0.00  0.00     0.049 C 
HETATM   17  C   UNK N   1      26.574  27.667  -3.657  0.00  0.00     0.362 C 
HETATM   18  C   UNK N   1      25.955  26.483  -6.302  0.00  0.00     0.053 C 
HETATM   19  C   UNK N   1      26.497  25.299  -7.107  0.00  0.00     0.140 C 
HETATM   20  C   UNK N   1      30.424  23.874  -5.099  0.00  0.00     0.150 C 
ENDROOT
BRANCH  16  21
HETATM   21  C   UNK N   1      27.438  29.772  -4.811  0.00  0.00     0.005 C 
HETATM   22  C   UNK N   1      26.704  30.880  -4.063  0.00  0.00     0.005 C 
ENDBRANCH  16  21
BRANCH  17  23
HETATM   23  O   UNK N   1      25.413  27.962  -2.938  0.00  0.00    -0.367 OA
HETATM   24  H   UNK N   1      24.482  27.948  -3.209  0.00  0.00     0.212 HD
ENDBRANCH  17  23
BRANCH  19  25
HETATM   25  O   UNK N   1      25.492  24.863  -7.978  0.00  0.00    -0.394 OA
HETATM   26  H   UNK N   1      24.981  25.439  -8.568  0.00  0.00     0.210 HD
ENDBRANCH  19  25
TORSDOF 4
ENDMDL
MODEL 3
REMARK VINA RESULT:      -7.1     25.164     27.334
REMARK  4 active torsions:
REMARK  status: ('A' for Active; 'I' for Inactive)
REMARK    1  A    between atoms: C_15  and  C_19 
REMARK    2  A    between atoms: C_16  and  C_18 
REMARK    3  A    between atoms: C_17  and  O_20 
REMARK    4  A    between atoms: C_21  and  O_23 
ROOT
HETATM    1  C   UNK N   1      34.652   9.363  19.237  0.00  0.00     0.001 A 
HETATM    2  C   UNK N   1      35.038  10.503  19.970  0.00  0.00     0.002 A 
HETATM    3  C   UNK N   1      35.335  11.705  19.307  0.00  0.00     0.030 A 
HETATM    4  C   UNK N   1      35.224  11.731  17.918  0.00  0.00     0.037 A 
HETATM    5  C   UNK N   1      34.829  10.626  17.197  0.00  0.00    -0.018 A 
HETATM    6  C   UNK N   1      34.559   9.415  17.836  0.00  0.00     0.010 A 
HETATM    7  N   UNK N   1      35.469  12.818  17.073  0.00  0.00    -0.377 N 
HETATM    8  C   UNK N   1      34.930  12.488  15.785  0.00  0.00     0.133 C 
HETATM    9  C   UNK N   1      34.895  10.930  15.723  0.00  0.00     0.040 C 
HETATM   10  C   UNK N   1      35.376  13.174  14.498  0.00  0.00     0.251 C 
HETATM   11  N   UNK N   1      34.538  12.605  13.386  0.00  0.00     0.129 N 
HETATM   12  C   UNK N   1      34.530  11.111  13.443  0.00  0.00     0.235 C 
HETATM   13  C   UNK N   1      33.811  10.632  14.725  0.00  0.00     0.055 C 
HETATM   14  C   UNK N   1      36.874  12.878  14.276  0.00  0.00     0.043 C 
HETATM   15  C   UNK N   1      36.990  11.764  13.226  0.00  0.00     0.005 C 
HETATM   16  C   UNK N   1      36.512  12.364  11.888  0.00  0.00     0.049 C 
HETATM   17  C   UNK N   1      35.122  13.013  12.092  0.00  0.00     0.362 C 
HETATM   18  C   UNK N   1      36.001  10.616  13.597  0.00  0.00     0.053 C 
HETATM   19  C   UNK N   1      36.127  10.260  15.080  0.00  0.00     0.140 C 
HETATM   20  C   UNK N   1      35.678  14.165  17.537  0.00  0.00     0.150 C 
ENDROOT
BRANCH  16  21
HETATM   21  C   UNK N   1      37.501  13.335  11.230  0.00  0.00     0.005 C 
HETATM   22  C   UNK N   1      38.574  12.641  10.398  0.00  0.00     0.005 C 
ENDBRANCH  16  21
BRANCH  17  23
HETATM   23  O   UNK N   1      34.275  12.676  11.033  0.00  0.00    -0.367 OA
HETATM   24  H   UNK N   1      33.841  13.235  10.369  0.00  0.00     0.212 HD
ENDBRANCH  17  23
BRANCH  19  25
HETATM   25  O   UNK N   1      36.033   8.870  15.208  0.00  0.00    -0.394 OA
HETATM   26  H   UNK N   1      35.842   8.258  14.480  0.00  0.00     0.210 HD
ENDBRANCH  19  25
TORSDOF 4
ENDMDL
MODEL 4
REMARK VINA RESULT:      -7.1     13.724     15.763
REMARK  4 active torsions:
REMARK  status: ('A' for Active; 'I' for Inactive)
REMARK    1  A    between atoms: C_15  and  C_19 
REMARK    2  A    between atoms: C_16  and  C_18 
REMARK    3  A    between atoms: C_17  and  O_20 
REMARK    4  A    between atoms: C_21  and  O_23 
ROOT
HETATM    1  C   UNK N   1      34.133  17.012   6.665  0.00  0.00     0.001 A 
HETATM    2  C   UNK N   1      34.041  17.699   7.893  0.00  0.00     0.002 A 
HETATM    3  C   UNK N   1      32.786  18.044   8.420  0.00  0.00     0.030 A 
HETATM    4  C   UNK N   1      31.650  17.677   7.700  0.00  0.00     0.037 A 
HETATM    5  C   UNK N   1      31.732  16.990   6.509  0.00  0.00    -0.018 A 
HETATM    6  C   UNK N   1      32.971  16.665   5.955  0.00  0.00     0.010 A 
HETATM    7  N   UNK N   1      30.318  17.920   8.047  0.00  0.00    -0.377 N 
HETATM    8  C   UNK N   1      29.499  17.104   7.197  0.00  0.00     0.133 C 
HETATM    9  C   UNK N   1      30.355  16.822   5.923  0.00  0.00     0.040 C 
HETATM   10  C   UNK N   1      28.027  17.397   6.932  0.00  0.00     0.251 C 
HETATM   11  N   UNK N   1      27.510  16.287   6.058  0.00  0.00     0.129 N 
HETATM   12  C   UNK N   1      28.423  16.063   4.895  0.00  0.00     0.235 C 
HETATM   13  C   UNK N   1      29.790  15.535   5.387  0.00  0.00     0.055 C 
HETATM   14  C   UNK N   1      27.916  18.762   6.223  0.00  0.00     0.043 C 
HETATM   15  C   UNK N   1      27.701  18.507   4.725  0.00  0.00     0.005 C 
HETATM   16  C   UNK N   1      26.300  17.882   4.578  0.00  0.00     0.049 C 
HETATM   17  C   UNK N   1      26.183  16.670   5.534  0.00  0.00     0.362 C 
HETATM   18  C   UNK N   1      28.735  17.444   4.241  0.00  0.00     0.053 C 
HETATM   19  C   UNK N   1      30.137  17.793   4.745  0.00  0.00     0.140 C 
HETATM   20  C   UNK N   1      29.899  18.415   9.333  0.00  0.00     0.150 C 
ENDROOT
BRANCH  16  21
HETATM   21  C   UNK N   1      25.135  18.864   4.762  0.00  0.00     0.005 C 
HETATM   22  C   UNK N   1      25.133  20.003   3.748  0.00  0.00     0.005 C 
ENDBRANCH  16  21
BRANCH  17  23
HETATM   23  O   UNK N   1      25.576  15.597   4.878  0.00  0.00    -0.367 OA
HETATM   24  H   UNK N   1      25.935  14.964   4.236  0.00  0.00     0.212 HD
ENDBRANCH  17  23
BRANCH  19  25
HETATM   25  O   UNK N   1      31.053  17.515   3.724  0.00  0.00    -0.394 OA
HETATM   26  H   UNK N   1      30.819  17.168   2.850  0.00  0.00     0.210 HD
ENDBRANCH  19  25
TORSDOF 4
ENDMDL
MODEL 5
REMARK VINA RESULT:      -6.8     25.066     27.336
REMARK  4 active torsions:
REMARK  status: ('A' for Active; 'I' for Inactive)
REMARK    1  A    between atoms: C_15  and  C_19 
REMARK    2  A    between atoms: C_16  and  C_18 
REMARK    3  A    between atoms: C_17  and  O_20 
REMARK    4  A    between atoms: C_21  and  O_23 
ROOT
HETATM    1  C   UNK N   1      35.251  11.430  19.504  0.00  0.00     0.001 A 
HETATM    2  C   UNK N   1      35.691  10.091  19.551  0.00  0.00     0.002 A 
HETATM    3  C   UNK N   1      36.240   9.485  18.409  0.00  0.00     0.030 A 
HETATM    4  C   UNK N   1      36.345  10.249  17.248  0.00  0.00     0.037 A 
HETATM    5  C   UNK N   1      35.935  11.564  17.201  0.00  0.00    -0.018 A 
HETATM    6  C   UNK N   1      35.358  12.174  18.317  0.00  0.00     0.010 A 
HETATM    7  N   UNK N   1      36.860   9.842  16.014  0.00  0.00    -0.377 N 
HETATM    8  C   UNK N   1      37.061  11.022  15.224  0.00  0.00     0.133 C 
HETATM    9  C   UNK N   1      36.083  12.093  15.799  0.00  0.00     0.040 C 
HETATM   10  C   UNK N   1      37.166  10.996  13.703  0.00  0.00     0.251 C 
HETATM   11  N   UNK N   1      37.441  12.406  13.259  0.00  0.00     0.129 N 
HETATM   12  C   UNK N   1      36.483  13.358  13.900  0.00  0.00     0.235 C 
HETATM   13  C   UNK N   1      36.721  13.402  15.427  0.00  0.00     0.055 C 
HETATM   14  C   UNK N   1      35.831  10.480  13.127  0.00  0.00     0.043 C 
HETATM   15  C   UNK N   1      35.026  11.688  12.630  0.00  0.00     0.005 C 
HETATM   16  C   UNK N   1      35.780  12.253  11.410  0.00  0.00     0.049 C 
HETATM   17  C   UNK N   1      37.261  12.489  11.795  0.00  0.00     0.362 C 
HETATM   18  C   UNK N   1      35.040  12.791  13.734  0.00  0.00     0.053 C 
HETATM   19  C   UNK N   1      34.711  12.186  15.101  0.00  0.00     0.140 C 
HETATM   20  C   UNK N   1      37.569   8.606  15.808  0.00  0.00     0.150 C 
ENDROOT
BRANCH  16  21
HETATM   21  C   UNK N   1      35.652  11.414  10.132  0.00  0.00     0.005 C 
HETATM   22  C   UNK N   1      34.216  11.024   9.801  0.00  0.00     0.005 C 
ENDBRANCH  16  21
BRANCH  17  23
HETATM   23  O   UNK N   1      37.693  13.725  11.307  0.00  0.00    -0.367 OA
HETATM   24  H   UNK N   1      37.597  14.617  11.675  0.00  0.00     0.212 HD
ENDBRANCH  17  23
BRANCH  19  25
HETATM   25  O   UNK N   1      33.885  13.080  15.790  0.00  0.00    -0.394 OA
HETATM   26  H   UNK N   1      33.089  12.831  16.285  0.00  0.00     0.210 HD
ENDBRANCH  19  25
TORSDOF 4
ENDMDL
MODEL 6
REMARK VINA RESULT:      -6.6     24.520     26.711
REMARK  4 active torsions:
REMARK  status: ('A' for Active; 'I' for Inactive)
REMARK    1  A    between atoms: C_15  and  C_19 
REMARK    2  A    between atoms: C_16  and  C_18 
REMARK    3  A    between atoms: C_17  and  O_20 
REMARK    4  A    between atoms: C_21  and  O_23 
ROOT
HETATM    1  C   UNK N   1      35.407  14.110  10.049  0.00  0.00     0.001 A 
HETATM    2  C   UNK N   1      35.664  15.328  10.712  0.00  0.00     0.002 A 
HETATM    3  C   UNK N   1      35.985  15.338  12.078  0.00  0.00     0.030 A 
HETATM    4  C   UNK N   1      36.052  14.115  12.745  0.00  0.00     0.037 A 
HETATM    5  C   UNK N   1      35.820  12.920  12.100  0.00  0.00    -0.018 A 
HETATM    6  C   UNK N   1      35.469  12.892  10.749  0.00  0.00     0.010 A 
HETATM    7  N   UNK N   1      36.355  13.905  14.093  0.00  0.00    -0.377 N 
HETATM    8  C   UNK N   1      36.617  12.504  14.259  0.00  0.00     0.133 C 
HETATM    9  C   UNK N   1      35.868  11.789  13.093  0.00  0.00     0.040 C 
HETATM   10  C   UNK N   1      36.532  11.798  15.608  0.00  0.00     0.251 C 
HETATM   11  N   UNK N   1      36.939  10.368  15.380  0.00  0.00     0.129 N 
HETATM   12  C   UNK N   1      36.203   9.789  14.214  0.00  0.00     0.235 C 
HETATM   13  C   UNK N   1      36.627  10.504  12.910  0.00  0.00     0.055 C 
HETATM   14  C   UNK N   1      35.081  11.889  16.122  0.00  0.00     0.043 C 
HETATM   15  C   UNK N   1      34.392  10.545  15.849  0.00  0.00     0.005 C 
HETATM   16  C   UNK N   1      35.062   9.508  16.771  0.00  0.00     0.049 C 
HETATM   17  C   UNK N   1      36.597   9.577  16.579  0.00  0.00     0.362 C 
HETATM   18  C   UNK N   1      34.687  10.117  14.378  0.00  0.00     0.053 C 
HETATM   19  C   UNK N   1      34.447  11.287  13.421  0.00  0.00     0.140 C 
HETATM   20  C   UNK N   1      36.860  14.927  14.972  0.00  0.00     0.150 C 
ENDROOT
BRANCH  16  21
HETATM   21  C   UNK N   1      34.669   9.613  18.250  0.00  0.00     0.005 C 
HETATM   22  C   UNK N   1      35.798  10.113  19.145  0.00  0.00     0.005 C 
ENDBRANCH  16  21
BRANCH  17  23
HETATM   23  O   UNK N   1      37.129   8.288  16.496  0.00  0.00    -0.367 OA
HETATM   24  H   UNK N   1      36.747   7.430  16.739  0.00  0.00     0.212 HD
ENDBRANCH  17  23
BRANCH  19  25
HETATM   25  O   UNK N   1      33.838  10.789  12.263  0.00  0.00    -0.394 OA
HETATM   26  H   UNK N   1      33.990   9.906  11.893  0.00  0.00     0.210 HD
ENDBRANCH  19  25
TORSDOF 4
ENDMDL
MODEL 7
REMARK VINA RESULT:      -6.6      3.237      4.885
REMARK  4 active torsions:
REMARK  status: ('A' for Active; 'I' for Inactive)
REMARK    1  A    between atoms: C_15  and  C_19 
REMARK    2  A    between atoms: C_16  and  C_18 
REMARK    3  A    between atoms: C_17  and  O_20 
REMARK    4  A    between atoms: C_21  and  O_23 
ROOT
HETATM    1  C   UNK N   1      25.550  27.338  -4.671  0.00  0.00     0.001 A 
HETATM    2  C   UNK N   1      25.134  26.877  -5.937  0.00  0.00     0.002 A 
HETATM    3  C   UNK N   1      25.765  25.773  -6.533  0.00  0.00     0.030 A 
HETATM    4  C   UNK N   1      26.796  25.150  -5.830  0.00  0.00     0.037 A 
HETATM    5  C   UNK N   1      27.194  25.583  -4.585  0.00  0.00    -0.018 A 
HETATM    6  C   UNK N   1      26.600  26.697  -3.991  0.00  0.00     0.010 A 
HETATM    7  N   UNK N   1      27.546  24.044  -6.239  0.00  0.00    -0.377 N 
HETATM    8  C   UNK N   1      28.258  23.563  -5.091  0.00  0.00     0.133 C 
HETATM    9  C   UNK N   1      28.383  24.780  -4.124  0.00  0.00     0.040 C 
HETATM   10  C   UNK N   1      29.506  22.691  -5.193  0.00  0.00     0.251 C 
HETATM   11  N   UNK N   1      29.912  22.342  -3.787  0.00  0.00     0.129 N 
HETATM   12  C   UNK N   1      29.954  23.567  -2.930  0.00  0.00     0.235 C 
HETATM   13  C   UNK N   1      28.532  24.150  -2.767  0.00  0.00     0.055 C 
HETATM   14  C   UNK N   1      30.611  23.494  -5.909  0.00  0.00     0.043 C 
HETATM   15  C   UNK N   1      31.581  24.026  -4.845  0.00  0.00     0.005 C 
HETATM   16  C   UNK N   1      32.312  22.802  -4.261  0.00  0.00     0.049 C 
HETATM   17  C   UNK N   1      31.266  21.753  -3.814  0.00  0.00     0.362 C 
HETATM   18  C   UNK N   1      30.757  24.670  -3.687  0.00  0.00     0.053 C 
HETATM   19  C   UNK N   1      29.682  25.602  -4.249  0.00  0.00     0.140 C 
HETATM   20  C   UNK N   1      27.223  23.232  -7.383  0.00  0.00     0.150 C 
ENDROOT
BRANCH  16  21
HETATM   21  C   UNK N   1      33.375  22.187  -5.182  0.00  0.00     0.005 C 
HETATM   22  C   UNK N   1      33.038  20.772  -5.640  0.00  0.00     0.005 C 
ENDBRANCH  16  21
BRANCH  17  23
HETATM   23  O   UNK N   1      31.610  21.233  -2.562  0.00  0.00    -0.367 OA
HETATM   24  H   UNK N   1      32.318  21.483  -1.948  0.00  0.00     0.212 HD
ENDBRANCH  17  23
BRANCH  19  25
HETATM   25  O   UNK N   1      29.610  26.734  -3.430  0.00  0.00    -0.394 OA
HETATM   26  H   UNK N   1      29.270  27.599  -3.709  0.00  0.00     0.210 HD
ENDBRANCH  19  25
TORSDOF 4
ENDMDL
MODEL 8
REMARK VINA RESULT:      -6.6     15.787     18.148
REMARK  4 active torsions:
REMARK  status: ('A' for Active; 'I' for Inactive)
REMARK    1  A    between atoms: C_15  and  C_19 
REMARK    2  A    between atoms: C_16  and  C_18 
REMARK    3  A    between atoms: C_17  and  O_20 
REMARK    4  A    between atoms: C_21  and  O_23 
ROOT
HETATM    1  C   UNK N   1      35.727  16.258  10.936  0.00  0.00     0.001 A 
HETATM    2  C   UNK N   1      36.163  14.922  10.823  0.00  0.00     0.002 A 
HETATM    3  C   UNK N   1      35.833  14.162   9.689  0.00  0.00     0.030 A 
HETATM    4  C   UNK N   1      35.079  14.772   8.688  0.00  0.00     0.037 A 
HETATM    5  C   UNK N   1      34.666  16.083   8.784  0.00  0.00    -0.018 A 
HETATM    6  C   UNK N   1      34.958  16.845   9.916  0.00  0.00     0.010 A 
HETATM    7  N   UNK N   1      34.649  14.199   7.488  0.00  0.00    -0.377 N 
HETATM    8  C   UNK N   1      34.191  15.265   6.644  0.00  0.00     0.133 C 
HETATM    9  C   UNK N   1      33.795  16.429   7.604  0.00  0.00     0.040 C 
HETATM   10  C   UNK N   1      33.242  15.046   5.471  0.00  0.00     0.251 C 
HETATM   11  N   UNK N   1      33.058  16.381   4.802  0.00  0.00     0.129 N 
HETATM   12  C   UNK N   1      32.730  17.436   5.810  0.00  0.00     0.235 C 
HETATM   13  C   UNK N   1      33.933  17.661   6.754  0.00  0.00     0.055 C 
HETATM   14  C   UNK N   1      31.904  14.506   6.014  0.00  0.00     0.043 C 
HETATM   15  C   UNK N   1      30.903  15.668   6.062  0.00  0.00     0.005 C 
HETATM   16  C   UNK N   1      30.599  16.053   4.601  0.00  0.00     0.049 C 
HETATM   17  C   UNK N   1      31.932  16.287   3.851  0.00  0.00     0.362 C 
HETATM   18  C   UNK N   1      31.591  16.899   6.731  0.00  0.00     0.053 C 
HETATM   19  C   UNK N   1      32.310  16.478   8.015  0.00  0.00     0.140 C 
HETATM   20  C   UNK N   1      35.106  12.925   6.997  0.00  0.00     0.150 C 
ENDROOT
BRANCH  16  21
HETATM   21  C   UNK N   1      29.692  15.066   3.853  0.00  0.00     0.005 C 
HETATM   22  C   UNK N   1      28.760  15.737   2.850  0.00  0.00     0.005 C 
ENDBRANCH  16  21
BRANCH  17  23
HETATM   23  O   UNK N   1      31.845  17.439   3.064  0.00  0.00    -0.367 OA
HETATM   24  H   UNK N   1      32.253  18.311   3.175  0.00  0.00     0.212 HD
ENDBRANCH  17  23
BRANCH  19  25
HETATM   25  O   UNK N   1      32.114  17.477   8.975  0.00  0.00    -0.394 OA
HETATM   26  H   UNK N   1      31.650  18.314   8.818  0.00  0.00     0.210 HD
ENDBRANCH  19  25
TORSDOF 4
ENDMDL
MODEL 9
REMARK VINA RESULT:      -6.5     17.945     20.656
REMARK  4 active torsions:
REMARK  status: ('A' for Active; 'I' for Inactive)
REMARK    1  A    between atoms: C_15  and  C_19 
REMARK    2  A    between atoms: C_16  and  C_18 
REMARK    3  A    between atoms: C_17  and  O_20 
REMARK    4  A    between atoms: C_21  and  O_23 
ROOT
HETATM    1  C   UNK N   1      35.434  11.373  11.896  0.00  0.00     0.001 A 
HETATM    2  C   UNK N   1      35.145  10.259  11.080  0.00  0.00     0.002 A 
HETATM    3  C   UNK N   1      34.697  10.443   9.762  0.00  0.00     0.030 A 
HETATM    4  C   UNK N   1      34.562  11.748   9.292  0.00  0.00     0.037 A 
HETATM    5  C   UNK N   1      34.860  12.840  10.077  0.00  0.00    -0.018 A 
HETATM    6  C   UNK N   1      35.277  12.678  11.399  0.00  0.00     0.010 A 
HETATM    7  N   UNK N   1      34.137  12.146   8.021  0.00  0.00    -0.377 N 
HETATM    8  C   UNK N   1      34.452  13.539   7.883  0.00  0.00     0.133 C 
HETATM    9  C   UNK N   1      34.527  14.107   9.334  0.00  0.00     0.040 C 
HETATM   10  C   UNK N   1      33.765  14.449   6.869  0.00  0.00     0.251 C 
HETATM   11  N   UNK N   1      34.414  15.801   6.986  0.00  0.00     0.129 N 
HETATM   12  C   UNK N   1      34.480  16.233   8.416  0.00  0.00     0.235 C 
HETATM   13  C   UNK N   1      35.428  15.303   9.207  0.00  0.00     0.055 C 
HETATM   14  C   UNK N   1      32.263  14.519   7.210  0.00  0.00     0.043 C 
HETATM   15  C   UNK N   1      32.001  15.842   7.944  0.00  0.00     0.005 C 
HETATM   16  C   UNK N   1      32.216  16.970   6.916  0.00  0.00     0.049 C 
HETATM   17  C   UNK N   1      33.599  16.786   6.245  0.00  0.00     0.362 C 
HETATM   18  C   UNK N   1      33.076  16.021   9.060  0.00  0.00     0.053 C 
HETATM   19  C   UNK N   1      33.224  14.732   9.873  0.00  0.00     0.140 C 
HETATM   20  C   UNK N   1      33.969  11.245   6.911  0.00  0.00     0.150 C 
ENDROOT
BRANCH  16  21
HETATM   21  C   UNK N   1      31.096  17.116   5.878  0.00  0.00     0.005 C 
HETATM   22  C   UNK N   1      29.702  17.184   6.492  0.00  0.00     0.005 C 
ENDBRANCH  16  21
BRANCH  17  23
HETATM   23  O   UNK N   1      34.258  18.015   6.158  0.00  0.00    -0.367 OA
HETATM   24  H   UNK N   1      34.062  18.800   5.623  0.00  0.00     0.212 HD
ENDBRANCH  17  23
BRANCH  19  25
HETATM   25  O   UNK N   1      33.384  15.078  11.219  0.00  0.00    -0.394 OA
HETATM   26  H   UNK N   1      32.986  14.601  11.965  0.00  0.00     0.210 HD
ENDBRANCH  19  25
TORSDOF 4
ENDMDL
