MODEL 1
REMARK VINA RESULT:      -5.7      0.000      0.000
REMARK WARNING: 32 MAX_TORS EXCEEDED!!!
REMARK  104 active torsions:
REMARK  status: ('A' for Active; 'I' for Inactive)
REMARK    1  A    between atoms: C_2  and  C_1 
REMARK       I    between atoms: C_1  and  N_7 
REMARK    2  A    between atoms: C_2  and  N_4 
REMARK    3  A    between atoms: C_5  and  C_2 
REMARK    4  A    between atoms: O_6  and  C_5 
REMARK    5  A    between atoms: C_10  and  N_7 
REMARK    6  A    between atoms: C_10  and  C_8 
REMARK       I    between atoms: C_8  and  N_19 
REMARK    7  A    between atoms: C_11  and  C_10 
REMARK    8  A    between atoms: C_12  and  C_11 
REMARK    9  A    between atoms: O_18  and  C_16 
REMARK   10  A    between atoms: C_21  and  N_19 
REMARK   11  A    between atoms: C_21  and  C_20 
REMARK       I    between atoms: C_20  and  N_25 
REMARK   12  A    between atoms: C_23  and  C_21 
REMARK   13  A    between atoms: O_24  and  C_23 
REMARK   14  A    between atoms: C_28  and  N_25 
REMARK   15  A    between atoms: C_28  and  C_26 
REMARK       I    between atoms: C_26  and  N_33 
REMARK   16  A    between atoms: C_30  and  C_28 
REMARK   17  A    between atoms: C_31  and  S_29 
REMARK   18  A    between atoms: C_31  and  C_30 
REMARK   19  A    between atoms: C_37  and  N_33 
REMARK   20  A    between atoms: C_37  and  C_34 
REMARK       I    between atoms: C_34  and  N_42 
REMARK   21  A    between atoms: C_40  and  C_35 
REMARK   22  A    between atoms: O_41  and  C_35 
REMARK   23  A    between atoms: C_39  and  C_37 
REMARK   24  A    between atoms: C_40  and  C_39 
REMARK   25  A    between atoms: C_45  and  N_42 
REMARK   26  A    between atoms: C_45  and  C_43 
REMARK       I    between atoms: C_43  and  N_53 
REMARK   27  A    between atoms: C_46  and  C_45 
REMARK   28  A    between atoms: C_47  and  C_46 
REMARK   29  A    between atoms: C_55  and  N_53 
REMARK   30  A    between atoms: C_55  and  C_54 
REMARK       I    between atoms: C_54  and  N_64 
REMARK   31  A    between atoms: C_57  and  C_55 
REMARK   32  A    between atoms: C_58  and  C_57 
REMARK   33  A    between atoms: C_71  and  N_64 
REMARK       I    between atoms: N_70  and  C_65 
REMARK       I    between atoms: N_72  and  C_65 
REMARK   34  A    between atoms: C_71  and  C_66 
REMARK       I    between atoms: C_66  and  N_76 
REMARK   35  A    between atoms: C_73  and  N_70 
REMARK   36  A    between atoms: C_74  and  C_71 
REMARK   37  A    between atoms: C_75  and  C_73 
REMARK   38  A    between atoms: C_75  and  C_74 
REMARK   39  A    between atoms: C_79  and  N_76 
REMARK   40  A    between atoms: C_79  and  C_77 
REMARK       I    between atoms: C_77  and  N_90 
REMARK   41  A    between atoms: C_80  and  C_79 
REMARK   42  A    between atoms: C_81  and  C_80 
REMARK   43  A    between atoms: N_90  and  C_93 
REMARK   44  A    between atoms: C_93  and  C_91 
REMARK       I    between atoms: C_91  and  N_94 
REMARK   45  A    between atoms: C_97  and  N_94 
REMARK       I    between atoms: N_96  and  C_95 
REMARK   46  A    between atoms: C_97  and  C_95 
REMARK   47  A    between atoms: C_100  and  C_97 
REMARK   48  A    between atoms: C_99  and  N_98 
REMARK   49  A    between atoms: C_101  and  C_99 
REMARK   50  A    between atoms: C_102  and  C_100 
REMARK   51  A    between atoms: C_102  and  C_101 
REMARK   52  A    between atoms: C_104  and  C_108 
REMARK       I    between atoms: C_108  and  N_110 
REMARK   53  A    between atoms: C_112  and  N_110 
REMARK   54  A    between atoms: C_112  and  C_111 
REMARK       I    between atoms: C_111  and  N_117 
REMARK   55  A    between atoms: C_114  and  C_112 
REMARK   56  A    between atoms: N_117  and  C_120 
REMARK   57  A    between atoms: C_120  and  C_118 
REMARK       I    between atoms: C_118  and  N_121 
REMARK   58  A    between atoms: C_124  and  N_121 
REMARK   59  A    between atoms: C_124  and  C_122 
REMARK       I    between atoms: C_122  and  N_130 
REMARK   60  A    between atoms: C_127  and  C_124 
REMARK   61  A    between atoms: C_126  and  N_125 
REMARK   62  A    between atoms: C_128  and  C_126 
REMARK   63  A    between atoms: C_129  and  C_127 
REMARK   64  A    between atoms: C_129  and  C_128 
REMARK   65  A    between atoms: C_133  and  N_130 
REMARK   66  A    between atoms: C_133  and  C_131 
REMARK       I    between atoms: C_131  and  N_139 
REMARK   67  A    between atoms: C_136  and  C_133 
REMARK   68  A    between atoms: C_135  and  N_134 
REMARK   69  A    between atoms: C_137  and  C_135 
REMARK   70  A    between atoms: C_138  and  C_136 
REMARK   71  A    between atoms: C_138  and  C_137 
REMARK   72  A    between atoms: C_146  and  N_139 
REMARK       I    between atoms: N_145  and  C_140 
REMARK       I    between atoms: N_147  and  C_140 
REMARK   73  A    between atoms: C_146  and  C_141 
REMARK       I    between atoms: C_141  and  N_151 
REMARK   74  A    between atoms: C_148  and  N_145 
REMARK   75  A    between atoms: C_149  and  C_146 
REMARK   76  A    between atoms: C_150  and  C_148 
REMARK   77  A    between atoms: C_150  and  C_149 
REMARK   78  A    between atoms: C_158  and  N_151 
REMARK       I    between atoms: N_157  and  C_152 
REMARK       I    between atoms: N_159  and  C_152 
REMARK   79  A    between atoms: C_158  and  C_153 
REMARK       I    between atoms: N_156  and  C_153 
REMARK   80  A    between atoms: C_160  and  N_157 
REMARK   81  A    between atoms: C_161  and  C_158 
REMARK   82  A    between atoms: C_162  and  C_160 
REMARK   83  A    between atoms: C_162  and  C_161 
REMARK   84  A    between atoms: C_164  and  C_168 
REMARK       I    between atoms: C_168  and  N_170 
REMARK   85  A    between atoms: C_172  and  N_170 
REMARK   86  A    between atoms: C_172  and  C_171 
REMARK       I    between atoms: C_171  and  N_177 
REMARK   87  A    between atoms: C_174  and  C_172 
REMARK   88  A    between atoms: C_180  and  N_177 
REMARK   89  A    between atoms: C_180  and  C_178 
REMARK       I    between atoms: C_178  and  N_186 
REMARK   90  A    between atoms: C_183  and  C_180 
REMARK   91  A    between atoms: C_182  and  N_181 
REMARK   92  A    between atoms: C_184  and  C_182 
REMARK   93  A    between atoms: C_185  and  C_183 
REMARK   94  A    between atoms: C_185  and  C_184 
REMARK   95  A    between atoms: C_188  and  N_186 
REMARK   96  A    between atoms: C_188  and  C_187 
REMARK       I    between atoms: C_187  and  N_193 
REMARK   97  A    between atoms: C_190  and  C_188 
REMARK   98  A    between atoms: C_196  and  N_193 
REMARK       I    between atoms: N_195  and  C_194 
REMARK   99  A    between atoms: C_196  and  C_194 
REMARK  100  A    between atoms: C_197  and  C_196 
REMARK  101  A    between atoms: C_198  and  C_197 
REMARK  102  A    between atoms: O_204  and  C_202 
REMARK  103  A    between atoms: C_206  and  C_210 
REMARK  104  A    between atoms: C_210  and  O_212 
ROOT
HETATM    1  C   UNK N   1      34.752  12.038   4.246  0.00  0.00     0.243 C 
HETATM    2  N   UNK N   1      36.076  12.272   3.967  0.00  0.00    -0.337 N 
HETATM    3  O   UNK N   1      34.246  10.966   3.940  0.00  0.00    -0.271 OA
HETATM    4  C   UNK N   1      36.776  13.437   4.439  0.00  0.00     0.179 C 
HETATM    5  C   UNK N   1      36.874  11.365   3.198  0.00  0.00     0.127 C 
HETATM    6  C   UNK N   1      38.182  12.104   2.949  0.00  0.00     0.022 C 
HETATM    7  C   UNK N   1      38.087  13.452   3.667  0.00  0.00     0.037 C 
ENDROOT
BRANCH   4   8
HETATM    8  C   UNK N   1      37.000  13.160   5.895  0.00  0.00     0.241 C 
HETATM    9  O   UNK N   1      36.720  14.020   6.716  0.00  0.00    -0.271 OA
HETATM   10  N   UNK N   1      37.829  12.143   6.216  0.00  0.00    -0.346 N 
HETATM   11  H   UNK N   1      37.857  11.367   5.610  0.00  0.00     0.163 HD
BRANCH  10  12
HETATM   12  C   UNK N   1      38.677  12.112   7.390  0.00  0.00     0.180 C 
BRANCH  12  13
HETATM   13  C   UNK N   1      38.311  11.289   8.612  0.00  0.00     0.241 C 
HETATM   14  O   UNK N   1      38.199  10.080   8.488  0.00  0.00    -0.271 OA
HETATM   15  N   UNK N   1      38.026  11.848   9.816  0.00  0.00    -0.351 N 
HETATM   16  H   UNK N   1      37.691  11.260  10.530  0.00  0.00     0.163 HD
BRANCH  15  17
HETATM   17  C   UNK N   1      38.186  13.252  10.116  0.00  0.00     0.225 C 
BRANCH  17  18
HETATM   18  C   UNK N   1      37.294  13.554  11.260  0.00  0.00     0.236 C 
HETATM   19  O   UNK N   1      36.282  14.216  11.080  0.00  0.00    -0.272 OA
HETATM   20  N   UNK N   1      37.521  12.934  12.442  0.00  0.00    -0.346 N 
HETATM   21  H   UNK N   1      38.419  12.579  12.633  0.00  0.00     0.163 HD
BRANCH  20  22
HETATM   22  C   UNK N   1      36.486  12.779  13.424  0.00  0.00     0.176 C 
BRANCH  22  23
HETATM   23  C   UNK N   1      35.868  11.437  13.159  0.00  0.00     0.241 C 
HETATM   24  O   UNK N   1      34.654  11.326  13.056  0.00  0.00    -0.271 OA
HETATM   25  N   UNK N   1      36.652  10.345  13.159  0.00  0.00    -0.346 N 
HETATM   26  H   UNK N   1      37.626  10.456  13.247  0.00  0.00     0.163 HD
BRANCH  25  27
HETATM   27  C   UNK N   1      36.109   9.016  13.033  0.00  0.00     0.176 C 
BRANCH  27  28
HETATM   28  C   UNK N   1      36.674   8.320  11.832  0.00  0.00     0.241 C 
HETATM   29  O   UNK N   1      37.838   8.525  11.534  0.00  0.00    -0.271 OA
HETATM   30  N   UNK N   1      35.949   7.450  11.089  0.00  0.00    -0.346 N 
HETATM   31  H   UNK N   1      36.369   7.069  10.284  0.00  0.00     0.163 HD
BRANCH  30  32
HETATM   32  C   UNK N   1      34.594   7.043  11.403  0.00  0.00     0.176 C 
BRANCH  32  33
HETATM   33  C   UNK N   1      34.376   5.663  12.003  0.00  0.00     0.241 C 
HETATM   34  O   UNK N   1      34.674   5.457  13.167  0.00  0.00    -0.271 OA
HETATM   35  N   UNK N   1      33.827   4.661  11.263  0.00  0.00    -0.346 N 
HETATM   36  H   UNK N   1      33.608   3.800  11.686  0.00  0.00     0.163 HD
BRANCH  35  37
HETATM   37  C   UNK N   1      33.569   4.862   9.855  0.00  0.00     0.176 C 
BRANCH  37  38
HETATM   38  C   UNK N   1      34.543   3.991   9.072  0.00  0.00     0.243 C 
HETATM   39  N   UNK N   1      35.605   4.529   8.412  0.00  0.00    -0.337 N 
HETATM   40  C   UNK N   1      35.613   5.886   7.955  0.00  0.00     0.179 C 
HETATM   41  C   UNK N   1      36.669   3.718   7.891  0.00  0.00     0.127 C 
HETATM   42  C   UNK N   1      37.048   6.098   7.498  0.00  0.00     0.037 C 
HETATM   43  C   UNK N   1      37.616   4.702   7.231  0.00  0.00     0.022 C 
HETATM   44  O   UNK N   1      34.457   2.774   9.171  0.00  0.00    -0.271 OA
BRANCH  40  45
HETATM   45  C   UNK N   1      34.715   5.887   6.738  0.00  0.00     0.241 C 
HETATM   46  O   UNK N   1      33.521   6.130   6.833  0.00  0.00    -0.271 OA
HETATM   47  N   UNK N   1      35.290   5.631   5.533  0.00  0.00    -0.346 N 
HETATM   48  H   UNK N   1      36.261   5.467   5.529  0.00  0.00     0.163 HD
BRANCH  47  49
HETATM   49  C   UNK N   1      34.624   5.576   4.278  0.00  0.00     0.180 C 
BRANCH  49  50
HETATM   50  C   UNK N   1      34.472   6.974   3.748  0.00  0.00     0.241 C 
HETATM   51  O   UNK N   1      35.365   7.796   3.890  0.00  0.00    -0.271 OA
HETATM   52  N   UNK N   1      33.302   7.343   3.164  0.00  0.00    -0.346 N 
HETATM   53  H   UNK N   1      33.198   8.271   2.852  0.00  0.00     0.163 HD
BRANCH  52  54
HETATM   54  C   UNK N   1      32.195   6.411   2.987  0.00  0.00     0.176 C 
BRANCH  54  55
HETATM   55  C   UNK N   1      31.470   6.820   1.747  0.00  0.00     0.241 C 
HETATM   56  O   UNK N   1      31.314   7.998   1.468  0.00  0.00    -0.271 OA
HETATM   57  N   UNK N   1      30.835   5.840   1.088  0.00  0.00    -0.346 N 
HETATM   58  H   UNK N   1      31.181   4.940   1.286  0.00  0.00     0.163 HD
BRANCH  57  59
HETATM   59  C   UNK N   1      29.749   5.848   0.150  0.00  0.00     0.180 C 
BRANCH  59  60
HETATM   60  C   UNK N   1      30.254   4.981  -0.966  0.00  0.00     0.241 C 
HETATM   61  O   UNK N   1      30.636   3.842  -0.731  0.00  0.00    -0.271 OA
HETATM   62  N   UNK N   1      30.407   5.479  -2.210  0.00  0.00    -0.346 N 
HETATM   63  H   UNK N   1      30.744   4.880  -2.914  0.00  0.00     0.163 HD
BRANCH  62  64
HETATM   64  C   UNK N   1      30.102   6.852  -2.563  0.00  0.00     0.181 C 
BRANCH  64  65
HETATM   65  C   UNK N   1      31.197   7.855  -2.256  0.00  0.00     0.243 C 
HETATM   66  N   UNK N   1      30.968   9.087  -1.711  0.00  0.00    -0.336 N 
HETATM   67  C   UNK N   1      31.996  10.067  -1.553  0.00  0.00     0.185 C 
HETATM   68  C   UNK N   1      29.668   9.530  -1.260  0.00  0.00     0.127 C 
HETATM   69  C   UNK N   1      31.404  11.098  -0.606  0.00  0.00     0.038 C 
HETATM   70  C   UNK N   1      29.894  10.902  -0.658  0.00  0.00     0.022 C 
HETATM   71  O   UNK N   1      32.361   7.546  -2.541  0.00  0.00    -0.271 OA
BRANCH  67  72
HETATM   72  C   UNK N   1      32.289  10.668  -2.913  0.00  0.00     0.163 C 
HETATM   73  O   UNK N   1      32.203  11.873  -3.079  0.00  0.00    -0.648 OA
BRANCH  72  74
HETATM   74  O   UNK N   1      32.691   9.889  -3.937  0.00  0.00    -0.775 OA
HETATM   75  H   UNK N   1      32.247   9.159  -4.321  0.00  0.00     0.167 HD
ENDBRANCH  72  74
ENDBRANCH  67  72
ENDBRANCH  64  65
BRANCH  64  76
HETATM   76  C   UNK N   1      29.506   6.964  -3.969  0.00  0.00     0.073 C 
BRANCH  76  77
HETATM   77  C   UNK N   1      28.090   7.424  -3.877  0.00  0.00    -0.056 A 
HETATM   78  C   UNK N   1      27.532   8.149  -4.934  0.00  0.00     0.010 A 
HETATM   79  C   UNK N   1      26.186   8.525  -4.889  0.00  0.00     0.037 A 
HETATM   80  C   UNK N   1      25.398   8.175  -3.788  0.00  0.00     0.065 A 
HETATM   81  C   UNK N   1      25.959   7.466  -2.723  0.00  0.00     0.037 A 
HETATM   82  C   UNK N   1      27.303   7.091  -2.767  0.00  0.00     0.010 A 
BRANCH  80  83
HETATM   83  O   UNK N   1      24.101   8.516  -3.755  0.00  0.00    -0.361 OA
HETATM   84  H   UNK N   1      23.655   8.634  -2.939  0.00  0.00     0.217 HD
ENDBRANCH  80  83
ENDBRANCH  76  77
ENDBRANCH  64  76
ENDBRANCH  62  64
ENDBRANCH  59  60
BRANCH  59  85
HETATM   85  C   UNK N   1      28.304   5.504   0.587  0.00  0.00     0.009 C 
HETATM   86  C   UNK N   1      27.394   6.700   0.785  0.00  0.00     0.012 C 
HETATM   87  C   UNK N   1      28.156   4.500   1.709  0.00  0.00     0.012 C 
ENDBRANCH  59  85
ENDBRANCH  57  59
ENDBRANCH  54  55
BRANCH  54  88
HETATM   88  C   UNK N   1      31.255   6.532   4.183  0.00  0.00     0.035 C 
BRANCH  88  89
HETATM   89  C   UNK N   1      30.741   5.191   4.696  0.00  0.00     0.004 C 
BRANCH  89  90
HETATM   90  C   UNK N   1      29.376   5.275   5.357  0.00  0.00     0.019 C 
BRANCH  90  91
HETATM   91  C   UNK N   1      29.558   5.156   6.856  0.00  0.00     0.111 C 
BRANCH  91  92
HETATM   92  N   UNK N   1      29.358   6.451   7.476  0.00  0.00    -0.430 N 
HETATM   93  H   UNK N   1      29.858   7.176   7.990  0.00  0.00     0.149 HD
HETATM   94  H   UNK N   1      28.384   6.735   7.358  0.00  0.00     0.149 HD
ENDBRANCH  91  92
ENDBRANCH  90  91
ENDBRANCH  89  90
ENDBRANCH  88  89
ENDBRANCH  54  88
ENDBRANCH  52  54
ENDBRANCH  49  50
BRANCH  49  95
HETATM   95  C   UNK N   1      35.305   4.581   3.334  0.00  0.00     0.009 C 
HETATM   96  C   UNK N   1      34.628   3.232   3.451  0.00  0.00     0.012 C 
HETATM   97  C   UNK N   1      36.788   4.410   3.632  0.00  0.00     0.012 C 
ENDBRANCH  49  95
ENDBRANCH  47  49
ENDBRANCH  40  45
ENDBRANCH  37  38
BRANCH  37  98
HETATM   98  C   UNK N   1      32.093   4.783   9.447  0.00  0.00     0.036 C 
BRANCH  98  99
HETATM   99  C   UNK N   1      31.056   5.145  10.518  0.00  0.00     0.023 C 
BRANCH  99 100
HETATM  100  C   UNK N   1      30.274   3.961  11.077  0.00  0.00     0.138 C 
BRANCH 100 101
HETATM  101  N   UNK N   1      28.994   3.853  10.421  0.00  0.00    -0.227 N 
HETATM  102  C   UNK N   1      27.765   3.746  11.126  0.00  0.00     0.665 C 
HETATM  103  N   UNK N   1      26.660   3.752  10.479  0.00  0.00    -0.235 N 
HETATM  104  N   UNK N   1      27.745   3.691  12.538  0.00  0.00    -0.235 N 
HETATM  105  H   UNK N   1      25.765   3.453  10.758  0.00  0.00     0.174 HD
ATOM    106  HN  UNK N   1      26.716   4.121   9.529  1.00  0.00     0.174 HD
HETATM  107  H   UNK N   1      28.228   4.355  13.082  0.00  0.00     0.174 HD
HETATM  108  H   UNK N   1      27.239   2.976  12.986  0.00  0.00     0.174 HD
HETATM  109  H   UNK N   1      28.970   3.853   9.436  0.00  0.00     0.177 HD
ENDBRANCH 100 101
ENDBRANCH  99 100
ENDBRANCH  98  99
ENDBRANCH  37  98
ENDBRANCH  35  37
ENDBRANCH  32  33
BRANCH  32 110
HETATM  110  C   UNK N   1      33.493   8.069  11.137  0.00  0.00     0.036 C 
BRANCH 110 111
HETATM  111  C   UNK N   1      33.389   8.340   9.640  0.00  0.00     0.023 C 
BRANCH 111 112
HETATM  112  C   UNK N   1      33.877   9.728   9.259  0.00  0.00     0.138 C 
BRANCH 112 113
HETATM  113  N   UNK N   1      35.029   9.636   8.393  0.00  0.00    -0.227 N 
HETATM  114  C   UNK N   1      34.922   9.443   6.990  0.00  0.00     0.665 C 
HETATM  115  N   UNK N   1      35.982   9.395   6.274  0.00  0.00    -0.235 N 
HETATM  116  N   UNK N   1      33.656   9.296   6.376  0.00  0.00    -0.235 N 
HETATM  117  H   UNK N   1      36.643  10.012   5.883  0.00  0.00     0.174 HD
ATOM    118  HN  UNK N   1      36.211   8.430   6.038  1.00  0.00     0.174 HD
HETATM  119  H   UNK N   1      33.422   8.467   5.900  0.00  0.00     0.174 HD
HETATM  120  H   UNK N   1      33.002  10.029   6.426  0.00  0.00     0.174 HD
HETATM  121  H   UNK N   1      35.926   9.710   8.791  0.00  0.00     0.177 HD
ENDBRANCH 112 113
ENDBRANCH 111 112
ENDBRANCH 110 111
ENDBRANCH  32 110
ENDBRANCH  30  32
ENDBRANCH  27  28
BRANCH  27 122
HETATM  122  C   UNK N   1      36.356   8.225  14.301  0.00  0.00     0.035 C 
BRANCH 122 123
HETATM  123  C   UNK N   1      36.430   9.138  15.505  0.00  0.00     0.004 C 
BRANCH 123 124
HETATM  124  C   UNK N   1      35.065   9.335  16.124  0.00  0.00     0.019 C 
BRANCH 124 125
HETATM  125  C   UNK N   1      35.241   9.500  17.618  0.00  0.00     0.111 C 
BRANCH 125 126
HETATM  126  N   UNK N   1      36.622   9.827  17.915  0.00  0.00    -0.430 N 
HETATM  127  H   UNK N   1      37.401  10.281  17.440  0.00  0.00     0.149 HD
HETATM  128  H   UNK N   1      36.884   9.521  18.852  0.00  0.00     0.149 HD
ENDBRANCH 125 126
ENDBRANCH 124 125
ENDBRANCH 123 124
ENDBRANCH 122 123
ENDBRANCH  27 122
ENDBRANCH  25  27
ENDBRANCH  22  23
BRANCH  22 129
HETATM  129  C   UNK N   1      37.101  12.838  14.819  0.00  0.00     0.035 C 
BRANCH 129 130
HETATM  130  C   UNK N   1      36.334  13.789  15.717  0.00  0.00     0.004 C 
BRANCH 130 131
HETATM  131  C   UNK N   1      35.141  13.082  16.331  0.00  0.00     0.019 C 
BRANCH 131 132
HETATM  132  C   UNK N   1      35.140  13.235  17.838  0.00  0.00     0.111 C 
BRANCH 132 133
HETATM  133  N   UNK N   1      35.532  14.586  18.183  0.00  0.00    -0.430 N 
HETATM  134  H   UNK N   1      35.182  15.387  18.708  0.00  0.00     0.149 HD
HETATM  135  H   UNK N   1      36.440  14.803  17.774  0.00  0.00     0.149 HD
ENDBRANCH 132 133
ENDBRANCH 131 132
ENDBRANCH 130 131
ENDBRANCH 129 130
ENDBRANCH  22 129
ENDBRANCH  20  22
ENDBRANCH  17  18
ENDBRANCH  15  17
ENDBRANCH  12  13
BRANCH  12 136
HETATM  136  C   UNK N   1      40.100  12.592   7.118  0.00  0.00     0.009 C 
HETATM  137  C   UNK N   1      41.114  11.977   8.063  0.00  0.00     0.012 C 
HETATM  138  C   UNK N   1      40.210  14.102   7.093  0.00  0.00     0.012 C 
ENDBRANCH  12 136
ENDBRANCH  10  12
ENDBRANCH   4   8
BRANCH   1 139
HETATM  139  C   UNK N   1      33.869  13.180   4.750  0.00  0.00     0.176 C 
BRANCH 139 140
HETATM  140  N   UNK N   1      32.722  13.117   3.857  0.00  0.00    -0.346 N 
HETATM  141  C   UNK N   1      32.432  14.180   3.068  0.00  0.00     0.236 C 
HETATM  142  O   UNK N   1      33.297  14.991   2.804  0.00  0.00    -0.272 OA
HETATM  143  H   UNK N   1      32.160  12.309   3.826  0.00  0.00     0.163 HD
BRANCH 141 144
HETATM  144  C   UNK N   1      31.028  14.577   2.842  0.00  0.00     0.225 C 
BRANCH 144 145
HETATM  145  N   UNK N   1      30.250  13.768   3.762  0.00  0.00    -0.351 N 
HETATM  146  C   UNK N   1      29.151  14.175   4.474  0.00  0.00     0.241 C 
HETATM  147  O   UNK N   1      28.672  13.403   5.289  0.00  0.00    -0.271 OA
HETATM  148  H   UNK N   1      30.539  12.836   3.887  0.00  0.00     0.163 HD
BRANCH 146 149
HETATM  149  C   UNK N   1      28.460  15.518   4.282  0.00  0.00     0.181 C 
BRANCH 149 150
HETATM  150  C   UNK N   1      29.423  16.717   4.453  0.00  0.00     0.075 C 
BRANCH 150 151
HETATM  151  C   UNK N   1      29.981  17.047   5.825  0.00  0.00    -0.028 A 
HETATM  152  C   UNK N   1      29.298  17.206   7.034  0.00  0.00     0.096 A 
HETATM  153  N   UNK N   1      30.169  17.533   8.018  0.00  0.00    -0.365 N 
HETATM  154  C   UNK N   1      31.381  17.565   7.443  0.00  0.00     0.042 A 
HETATM  155  H   UNK N   1      29.956  17.712   8.963  0.00  0.00     0.165 HD
HETATM  156  C   UNK N   1      31.305  17.266   6.111  0.00  0.00    -0.002 A 
HETATM  157  C   UNK N   1      32.590  17.852   8.068  0.00  0.00     0.030 A 
HETATM  158  C   UNK N   1      32.439  17.228   5.304  0.00  0.00     0.014 A 
HETATM  159  C   UNK N   1      33.680  17.506   5.905  0.00  0.00     0.001 A 
HETATM  160  C   UNK N   1      33.755  17.819   7.282  0.00  0.00     0.002 A 
ENDBRANCH 150 151
ENDBRANCH 149 150
BRANCH 149 161
HETATM  161  N   UNK N   1      27.657  15.586   3.090  0.00  0.00    -0.346 N 
HETATM  162  C   UNK N   1      26.395  16.066   3.025  0.00  0.00     0.241 C 
HETATM  163  O   UNK N   1      25.816  16.029   1.952  0.00  0.00    -0.271 OA
HETATM  164  H   UNK N   1      28.059  15.256   2.254  0.00  0.00     0.163 HD
BRANCH 162 165
HETATM  165  C   UNK N   1      25.667  16.638   4.215  0.00  0.00     0.176 C 
BRANCH 165 166
HETATM  166  C   UNK N   1      24.868  17.934   4.197  0.00  0.00     0.036 C 
BRANCH 166 167
HETATM  167  C   UNK N   1      25.721  19.069   3.670  0.00  0.00     0.023 C 
BRANCH 167 168
HETATM  168  C   UNK N   1      26.795  19.461   4.674  0.00  0.00     0.138 C 
BRANCH 168 169
HETATM  169  N   UNK N   1      26.240  19.674   5.990  0.00  0.00    -0.227 N 
HETATM  170  C   UNK N   1      26.549  20.817   6.770  0.00  0.00     0.665 C 
HETATM  171  N   UNK N   1      25.968  20.992   7.897  0.00  0.00    -0.235 N 
HETATM  172  N   UNK N   1      27.472  21.780   6.302  0.00  0.00    -0.235 N 
HETATM  173  H   UNK N   1      25.829  20.442   8.702  0.00  0.00     0.174 HD
ATOM    174  HN  UNK N   1      25.548  21.918   7.981  1.00  0.00     0.174 HD
HETATM  175  H   UNK N   1      27.237  22.736   6.318  0.00  0.00     0.174 HD
HETATM  176  H   UNK N   1      28.350  21.495   5.960  0.00  0.00     0.174 HD
HETATM  177  H   UNK N   1      25.623  19.001   6.360  0.00  0.00     0.177 HD
ENDBRANCH 168 169
ENDBRANCH 167 168
ENDBRANCH 166 167
ENDBRANCH 165 166
BRANCH 165 178
HETATM  178  N   UNK N   1      26.117  16.140   5.496  0.00  0.00    -0.346 N 
HETATM  179  C   UNK N   1      25.332  15.520   6.419  0.00  0.00     0.241 C 
HETATM  180  O   UNK N   1      25.824  15.222   7.495  0.00  0.00    -0.271 OA
HETATM  181  H   UNK N   1      27.069  16.260   5.719  0.00  0.00     0.163 HD
BRANCH 179 182
HETATM  182  C   UNK N   1      23.873  15.176   6.177  0.00  0.00     0.180 C 
BRANCH 182 183
HETATM  183  C   UNK N   1      23.665  13.668   6.352  0.00  0.00     0.073 C 
BRANCH 183 184
HETATM  184  C   UNK N   1      23.450  13.179   7.756  0.00  0.00    -0.056 A 
HETATM  185  C   UNK N   1      22.149  13.054   8.250  0.00  0.00     0.007 A 
HETATM  186  C   UNK N   1      21.932  12.472   9.504  0.00  0.00     0.001 A 
HETATM  187  C   UNK N   1      23.006  12.005  10.266  0.00  0.00     0.000 A 
HETATM  188  C   UNK N   1      24.308  12.133   9.781  0.00  0.00     0.001 A 
HETATM  189  C   UNK N   1      24.527  12.711   8.528  0.00  0.00     0.007 A 
ENDBRANCH 183 184
ENDBRANCH 182 183
BRANCH 182 190
HETATM  190  N   UNK N   1      22.967  15.911   7.040  0.00  0.00    -0.346 N 
HETATM  191  C   UNK N   1      21.742  16.390   6.717  0.00  0.00     0.241 C 
HETATM  192  O   UNK N   1      21.077  16.929   7.589  0.00  0.00    -0.271 OA
HETATM  193  H   UNK N   1      23.276  16.078   7.960  0.00  0.00     0.163 HD
BRANCH 191 194
HETATM  194  C   UNK N   1      21.206  16.313   5.307  0.00  0.00     0.182 C 
BRANCH 194 195
HETATM  195  C   UNK N   1      21.515  17.524   4.449  0.00  0.00     0.093 C 
BRANCH 195 196
HETATM  196  C   UNK N   1      20.747  17.330   3.191  0.00  0.00     0.028 A 
HETATM  197  N   UNK N   1      21.099  16.459   2.233  0.00  0.00    -0.354 N 
HETATM  198  C   UNK N   1      20.200  16.646   1.248  0.00  0.00     0.180 A 
HETATM  199  H   UNK N   1      21.849  15.822   2.246  0.00  0.00     0.166 HD
HETATM  200  N   UNK N   1      19.309  17.611   1.562  0.00  0.00    -0.360 N 
HETATM  201  C   UNK N   1      19.653  18.049   2.788  0.00  0.00     0.114 A 
ATOM    202  HN  UNK N   1      18.533  17.941   0.987  1.00  0.00     0.166 HD
ENDBRANCH 195 196
ENDBRANCH 194 195
BRANCH 194 203
HETATM  203  N   UNK N   1      19.824  15.911   5.229  0.00  0.00    -0.346 N 
HETATM  204  C   UNK N   1      19.395  14.669   4.942  0.00  0.00     0.241 C 
HETATM  205  O   UNK N   1      18.193  14.472   4.867  0.00  0.00    -0.271 OA
HETATM  206  H   UNK N   1      19.140  16.601   5.397  0.00  0.00     0.163 HD
BRANCH 204 207
HETATM  207  C   UNK N   1      20.385  13.536   4.717  0.00  0.00     0.177 C 
BRANCH 207 208
HETATM  208  C   UNK N   1      20.195  12.317   5.640  0.00  0.00     0.045 C 
BRANCH 208 209
HETATM  209  C   UNK N   1      21.084  11.133   5.281  0.00  0.00     0.112 C 
BRANCH 209 210
HETATM  210  C   UNK N   1      20.259   9.974   4.820  0.00  0.00     0.139 C 
HETATM  211  O   UNK N   1      20.353   8.887   5.368  0.00  0.00    -0.650 OA
BRANCH 210 212
HETATM  212  O   UNK N   1      19.437  10.121   3.767  0.00  0.00    -0.776 OA
HETATM  213  H   UNK N   1      18.616  10.565   3.857  0.00  0.00     0.167 HD
ENDBRANCH 210 212
ENDBRANCH 209 210
ENDBRANCH 208 209
ENDBRANCH 207 208
BRANCH 207 214
HETATM  214  N   UNK N   1      20.387  13.106   3.332  0.00  0.00    -0.346 N 
HETATM  215  C   UNK N   1      21.480  13.273   2.554  0.00  0.00     0.241 C 
HETATM  216  O   UNK N   1      22.490  13.776   3.029  0.00  0.00    -0.271 OA
HETATM  217  H   UNK N   1      19.580  12.688   2.953  0.00  0.00     0.163 HD
BRANCH 215 218
HETATM  218  C   UNK N   1      21.459  12.941   1.086  0.00  0.00     0.177 C 
BRANCH 218 219
HETATM  219  N   UNK N   1      22.288  11.785   0.931  0.00  0.00    -0.346 N 
HETATM  220  C   UNK N   1      23.439  11.947   0.245  0.00  0.00     0.243 C 
HETATM  221  O   UNK N   1      23.558  12.877  -0.546  0.00  0.00    -0.271 OA
HETATM  222  H   UNK N   1      22.031  10.912   1.308  0.00  0.00     0.163 HD
BRANCH 220 223
HETATM  223  C   UNK N   1      24.587  11.039   0.527  0.00  0.00     0.200 C 
BRANCH 223 224
HETATM  224  N   UNK N   1      24.643  10.979   1.960  0.00  0.00    -0.344 N 
HETATM  225  C   UNK N   1      25.748  11.434   2.594  0.00  0.00     0.241 C 
HETATM  226  O   UNK N   1      26.414  12.337   2.104  0.00  0.00    -0.271 OA
HETATM  227  H   UNK N   1      23.887  10.614   2.474  0.00  0.00     0.163 HD
BRANCH 225 228
HETATM  228  C   UNK N   1      26.287  10.721   3.788  0.00  0.00     0.180 C 
BRANCH 228 229
HETATM  229  C   UNK N   1      25.517  11.020   5.088  0.00  0.00     0.073 C 
BRANCH 229 230
HETATM  230  C   UNK N   1      24.820   9.780   5.555  0.00  0.00    -0.056 A 
HETATM  231  C   UNK N   1      24.024   9.839   6.705  0.00  0.00     0.010 A 
HETATM  232  C   UNK N   1      23.361   8.705   7.164  0.00  0.00     0.037 A 
HETATM  233  C   UNK N   1      23.472   7.505   6.465  0.00  0.00     0.065 A 
HETATM  234  C   UNK N   1      24.250   7.437   5.303  0.00  0.00     0.037 A 
HETATM  235  C   UNK N   1      24.932   8.575   4.849  0.00  0.00     0.010 A 
BRANCH 233 236
HETATM  236  O   UNK N   1      22.836   6.416   6.917  0.00  0.00    -0.361 OA
HETATM  237  H   UNK N   1      23.125   5.983   7.696  0.00  0.00     0.217 HD
ENDBRANCH 233 236
ENDBRANCH 229 230
ENDBRANCH 228 229
BRANCH 228 238
HETATM  238  N   UNK N   1      27.678  11.033   3.777  0.00  0.00    -0.346 N 
HETATM  239  C   UNK N   1      28.686  10.212   3.463  0.00  0.00     0.242 C 
HETATM  240  O   UNK N   1      28.544   9.283   2.681  0.00  0.00    -0.271 OA
HETATM  241  H   UNK N   1      27.923  11.952   4.030  0.00  0.00     0.163 HD
BRANCH 239 242
HETATM  242  C   UNK N   1      29.871  10.323   4.349  0.00  0.00     0.191 C 
BRANCH 242 243
HETATM  243  N   UNK N   1      31.101  10.083   3.620  0.00  0.00    -0.417 N 
HETATM  244  H   UNK N   1      32.072  10.261   3.878  0.00  0.00     0.150 HD
HETATM  245  H   UNK N   1      30.974   9.668   2.697  0.00  0.00     0.150 HD
ENDBRANCH 242 243
BRANCH 242 246
HETATM  246  C   UNK N   1      29.659   9.204   5.379  0.00  0.00     0.198 C 
BRANCH 246 247
HETATM  247  O   UNK N   1      30.449   9.377   6.508  0.00  0.00    -0.398 OA
HETATM  248  H   UNK N   1      31.344   9.745   6.432  0.00  0.00     0.209 HD
ENDBRANCH 246 247
ENDBRANCH 242 246
ENDBRANCH 239 242
ENDBRANCH 228 238
ENDBRANCH 225 228
ENDBRANCH 223 224
BRANCH 223 249
HETATM  249  C   UNK N   1      24.385   9.687  -0.169  0.00  0.00     0.199 C 
BRANCH 249 250
HETATM  250  O   UNK N   1      23.422   9.787  -1.166  0.00  0.00    -0.398 OA
HETATM  251  H   UNK N   1      22.648   9.298  -1.485  0.00  0.00     0.209 HD
ENDBRANCH 249 250
ENDBRANCH 223 249
ENDBRANCH 220 223
ENDBRANCH 218 219
BRANCH 218 252
HETATM  252  C   UNK N   1      20.070  12.709   0.565  0.00  0.00     0.045 C 
BRANCH 252 253
HETATM  253  C   UNK N   1      19.878  11.222   0.397  0.00  0.00     0.076 C 
BRANCH 253 254
HETATM  254  S   UNK N   1      18.268  10.803  -0.342  0.00  0.00    -0.173 SA
HETATM  255  C   UNK N   1      17.498  12.276   0.385  0.00  0.00     0.089 C 
ENDBRANCH 253 254
ENDBRANCH 252 253
ENDBRANCH 218 252
ENDBRANCH 215 218
ENDBRANCH 207 214
ENDBRANCH 204 207
ENDBRANCH 194 203
ENDBRANCH 191 194
ENDBRANCH 182 190
ENDBRANCH 179 182
ENDBRANCH 165 178
ENDBRANCH 162 165
ENDBRANCH 149 161
ENDBRANCH 146 149
ENDBRANCH 144 145
ENDBRANCH 141 144
ENDBRANCH 139 140
BRANCH 139 256
HETATM  256  C   UNK N   1      33.420  12.959   6.211  0.00  0.00     0.035 C 
BRANCH 256 257
HETATM  257  C   UNK N   1      32.347  13.905   6.689  0.00  0.00     0.004 C 
BRANCH 257 258
HETATM  258  C   UNK N   1      32.538  14.145   8.174  0.00  0.00     0.019 C 
BRANCH 258 259
HETATM  259  C   UNK N   1      33.911  13.684   8.630  0.00  0.00     0.111 C 
BRANCH 259 260
HETATM  260  N   UNK N   1      34.799  14.823   8.777  0.00  0.00    -0.430 N 
HETATM  261  H   UNK N   1      34.572  15.797   8.985  0.00  0.00     0.149 HD
HETATM  262  H   UNK N   1      35.792  14.622   8.656  0.00  0.00     0.149 HD
ENDBRANCH 259 260
ENDBRANCH 258 259
ENDBRANCH 257 258
ENDBRANCH 256 257
ENDBRANCH 139 256
ENDBRANCH   1 139
TORSDOF 104
ENDMDL
MODEL 2
REMARK VINA RESULT:      -5.6      1.315      2.772
REMARK WARNING: 32 MAX_TORS EXCEEDED!!!
REMARK  104 active torsions:
REMARK  status: ('A' for Active; 'I' for Inactive)
REMARK    1  A    between atoms: C_2  and  C_1 
REMARK       I    between atoms: C_1  and  N_7 
REMARK    2  A    between atoms: C_2  and  N_4 
REMARK    3  A    between atoms: C_5  and  C_2 
REMARK    4  A    between atoms: O_6  and  C_5 
REMARK    5  A    between atoms: C_10  and  N_7 
REMARK    6  A    between atoms: C_10  and  C_8 
REMARK       I    between atoms: C_8  and  N_19 
REMARK    7  A    between atoms: C_11  and  C_10 
REMARK    8  A    between atoms: C_12  and  C_11 
REMARK    9  A    between atoms: O_18  and  C_16 
REMARK   10  A    between atoms: C_21  and  N_19 
REMARK   11  A    between atoms: C_21  and  C_20 
REMARK       I    between atoms: C_20  and  N_25 
REMARK   12  A    between atoms: C_23  and  C_21 
REMARK   13  A    between atoms: O_24  and  C_23 
REMARK   14  A    between atoms: C_28  and  N_25 
REMARK   15  A    between atoms: C_28  and  C_26 
REMARK       I    between atoms: C_26  and  N_33 
REMARK   16  A    between atoms: C_30  and  C_28 
REMARK   17  A    between atoms: C_31  and  S_29 
REMARK   18  A    between atoms: C_31  and  C_30 
REMARK   19  A    between atoms: C_37  and  N_33 
REMARK   20  A    between atoms: C_37  and  C_34 
REMARK       I    between atoms: C_34  and  N_42 
REMARK   21  A    between atoms: C_40  and  C_35 
REMARK   22  A    between atoms: O_41  and  C_35 
REMARK   23  A    between atoms: C_39  and  C_37 
REMARK   24  A    between atoms: C_40  and  C_39 
REMARK   25  A    between atoms: C_45  and  N_42 
REMARK   26  A    between atoms: C_45  and  C_43 
REMARK       I    between atoms: C_43  and  N_53 
REMARK   27  A    between atoms: C_46  and  C_45 
REMARK   28  A    between atoms: C_47  and  C_46 
REMARK   29  A    between atoms: C_55  and  N_53 
REMARK   30  A    between atoms: C_55  and  C_54 
REMARK       I    between atoms: C_54  and  N_64 
REMARK   31  A    between atoms: C_57  and  C_55 
REMARK   32  A    between atoms: C_58  and  C_57 
REMARK   33  A    between atoms: C_71  and  N_64 
REMARK       I    between atoms: N_70  and  C_65 
REMARK       I    between atoms: N_72  and  C_65 
REMARK   34  A    between atoms: C_71  and  C_66 
REMARK       I    between atoms: C_66  and  N_76 
REMARK   35  A    between atoms: C_73  and  N_70 
REMARK   36  A    between atoms: C_74  and  C_71 
REMARK   37  A    between atoms: C_75  and  C_73 
REMARK   38  A    between atoms: C_75  and  C_74 
REMARK   39  A    between atoms: C_79  and  N_76 
REMARK   40  A    between atoms: C_79  and  C_77 
REMARK       I    between atoms: C_77  and  N_90 
REMARK   41  A    between atoms: C_80  and  C_79 
REMARK   42  A    between atoms: C_81  and  C_80 
REMARK   43  A    between atoms: N_90  and  C_93 
REMARK   44  A    between atoms: C_93  and  C_91 
REMARK       I    between atoms: C_91  and  N_94 
REMARK   45  A    between atoms: C_97  and  N_94 
REMARK       I    between atoms: N_96  and  C_95 
REMARK   46  A    between atoms: C_97  and  C_95 
REMARK   47  A    between atoms: C_100  and  C_97 
REMARK   48  A    between atoms: C_99  and  N_98 
REMARK   49  A    between atoms: C_101  and  C_99 
REMARK   50  A    between atoms: C_102  and  C_100 
REMARK   51  A    between atoms: C_102  and  C_101 
REMARK   52  A    between atoms: C_104  and  C_108 
REMARK       I    between atoms: C_108  and  N_110 
REMARK   53  A    between atoms: C_112  and  N_110 
REMARK   54  A    between atoms: C_112  and  C_111 
REMARK       I    between atoms: C_111  and  N_117 
REMARK   55  A    between atoms: C_114  and  C_112 
REMARK   56  A    between atoms: N_117  and  C_120 
REMARK   57  A    between atoms: C_120  and  C_118 
REMARK       I    between atoms: C_118  and  N_121 
REMARK   58  A    between atoms: C_124  and  N_121 
REMARK   59  A    between atoms: C_124  and  C_122 
REMARK       I    between atoms: C_122  and  N_130 
REMARK   60  A    between atoms: C_127  and  C_124 
REMARK   61  A    between atoms: C_126  and  N_125 
REMARK   62  A    between atoms: C_128  and  C_126 
REMARK   63  A    between atoms: C_129  and  C_127 
REMARK   64  A    between atoms: C_129  and  C_128 
REMARK   65  A    between atoms: C_133  and  N_130 
REMARK   66  A    between atoms: C_133  and  C_131 
REMARK       I    between atoms: C_131  and  N_139 
REMARK   67  A    between atoms: C_136  and  C_133 
REMARK   68  A    between atoms: C_135  and  N_134 
REMARK   69  A    between atoms: C_137  and  C_135 
REMARK   70  A    between atoms: C_138  and  C_136 
REMARK   71  A    between atoms: C_138  and  C_137 
REMARK   72  A    between atoms: C_146  and  N_139 
REMARK       I    between atoms: N_145  and  C_140 
REMARK       I    between atoms: N_147  and  C_140 
REMARK   73  A    between atoms: C_146  and  C_141 
REMARK       I    between atoms: C_141  and  N_151 
REMARK   74  A    between atoms: C_148  and  N_145 
REMARK   75  A    between atoms: C_149  and  C_146 
REMARK   76  A    between atoms: C_150  and  C_148 
REMARK   77  A    between atoms: C_150  and  C_149 
REMARK   78  A    between atoms: C_158  and  N_151 
REMARK       I    between atoms: N_157  and  C_152 
REMARK       I    between atoms: N_159  and  C_152 
REMARK   79  A    between atoms: C_158  and  C_153 
REMARK       I    between atoms: N_156  and  C_153 
REMARK   80  A    between atoms: C_160  and  N_157 
REMARK   81  A    between atoms: C_161  and  C_158 
REMARK   82  A    between atoms: C_162  and  C_160 
REMARK   83  A    between atoms: C_162  and  C_161 
REMARK   84  A    between atoms: C_164  and  C_168 
REMARK       I    between atoms: C_168  and  N_170 
REMARK   85  A    between atoms: C_172  and  N_170 
REMARK   86  A    between atoms: C_172  and  C_171 
REMARK       I    between atoms: C_171  and  N_177 
REMARK   87  A    between atoms: C_174  and  C_172 
REMARK   88  A    between atoms: C_180  and  N_177 
REMARK   89  A    between atoms: C_180  and  C_178 
REMARK       I    between atoms: C_178  and  N_186 
REMARK   90  A    between atoms: C_183  and  C_180 
REMARK   91  A    between atoms: C_182  and  N_181 
REMARK   92  A    between atoms: C_184  and  C_182 
REMARK   93  A    between atoms: C_185  and  C_183 
REMARK   94  A    between atoms: C_185  and  C_184 
REMARK   95  A    between atoms: C_188  and  N_186 
REMARK   96  A    between atoms: C_188  and  C_187 
REMARK       I    between atoms: C_187  and  N_193 
REMARK   97  A    between atoms: C_190  and  C_188 
REMARK   98  A    between atoms: C_196  and  N_193 
REMARK       I    between atoms: N_195  and  C_194 
REMARK   99  A    between atoms: C_196  and  C_194 
REMARK  100  A    between atoms: C_197  and  C_196 
REMARK  101  A    between atoms: C_198  and  C_197 
REMARK  102  A    between atoms: O_204  and  C_202 
REMARK  103  A    between atoms: C_206  and  C_210 
REMARK  104  A    between atoms: C_210  and  O_212 
ROOT
HETATM    1  C   UNK N   1      34.693  11.891   4.514  0.00  0.00     0.243 C 
HETATM    2  N   UNK N   1      35.988  12.152   4.143  0.00  0.00    -0.337 N 
HETATM    3  O   UNK N   1      34.213  10.783   4.312  0.00  0.00    -0.271 OA
HETATM    4  C   UNK N   1      36.668  13.371   4.494  0.00  0.00     0.179 C 
HETATM    5  C   UNK N   1      36.778  11.222   3.391  0.00  0.00     0.127 C 
HETATM    6  C   UNK N   1      38.039  11.988   3.017  0.00  0.00     0.022 C 
HETATM    7  C   UNK N   1      37.932  13.378   3.647  0.00  0.00     0.037 C 
ENDROOT
BRANCH   4   8
HETATM    8  C   UNK N   1      36.984  13.204   5.949  0.00  0.00     0.241 C 
HETATM    9  O   UNK N   1      36.778  14.134   6.715  0.00  0.00    -0.271 OA
HETATM   10  N   UNK N   1      37.810  12.194   6.296  0.00  0.00    -0.346 N 
HETATM   11  H   UNK N   1      37.781  11.372   5.754  0.00  0.00     0.163 HD
BRANCH  10  12
HETATM   12  C   UNK N   1      38.736  12.233   7.410  0.00  0.00     0.180 C 
BRANCH  12  13
HETATM   13  C   UNK N   1      38.489  11.428   8.674  0.00  0.00     0.241 C 
HETATM   14  O   UNK N   1      38.535  10.211   8.607  0.00  0.00    -0.271 OA
HETATM   15  N   UNK N   1      38.145  12.004   9.855  0.00  0.00    -0.351 N 
HETATM   16  H   UNK N   1      37.895  11.411  10.600  0.00  0.00     0.163 HD
BRANCH  15  17
HETATM   17  C   UNK N   1      38.123  13.429  10.088  0.00  0.00     0.225 C 
BRANCH  17  18
HETATM   18  C   UNK N   1      37.222  13.665  11.240  0.00  0.00     0.236 C 
HETATM   19  O   UNK N   1      36.417  14.585  11.200  0.00  0.00    -0.272 OA
HETATM   20  N   UNK N   1      37.180  12.745  12.232  0.00  0.00    -0.346 N 
HETATM   21  H   UNK N   1      37.947  12.140  12.357  0.00  0.00     0.163 HD
BRANCH  20  22
HETATM   22  C   UNK N   1      36.049  12.628  13.107  0.00  0.00     0.176 C 
BRANCH  22  23
HETATM   23  C   UNK N   1      35.647  11.182  13.065  0.00  0.00     0.241 C 
HETATM   24  O   UNK N   1      34.498  10.868  12.787  0.00  0.00    -0.271 OA
HETATM   25  N   UNK N   1      36.530  10.247  13.456  0.00  0.00    -0.346 N 
HETATM   26  H   UNK N   1      37.449  10.521  13.678  0.00  0.00     0.163 HD
BRANCH  25  27
HETATM   27  C   UNK N   1      36.172   8.855  13.557  0.00  0.00     0.176 C 
BRANCH  27  28
HETATM   28  C   UNK N   1      37.061   8.012  12.694  0.00  0.00     0.241 C 
HETATM   29  O   UNK N   1      38.264   8.045  12.889  0.00  0.00    -0.271 OA
HETATM   30  N   UNK N   1      36.574   7.191  11.732  0.00  0.00    -0.346 N 
HETATM   31  H   UNK N   1      37.220   6.706  11.169  0.00  0.00     0.163 HD
BRANCH  30  32
HETATM   32  C   UNK N   1      35.163   6.984  11.477  0.00  0.00     0.176 C 
BRANCH  32  33
HETATM   33  C   UNK N   1      34.488   5.772  12.100  0.00  0.00     0.241 C 
HETATM   34  O   UNK N   1      34.650   5.533  13.284  0.00  0.00    -0.271 OA
HETATM   35  N   UNK N   1      33.683   4.965  11.355  0.00  0.00    -0.346 N 
HETATM   36  H   UNK N   1      33.181   4.238  11.788  0.00  0.00     0.163 HD
BRANCH  35  37
HETATM   37  C   UNK N   1      33.568   5.176   9.930  0.00  0.00     0.176 C 
BRANCH  37  38
HETATM   38  C   UNK N   1      34.343   4.066   9.229  0.00  0.00     0.243 C 
HETATM   39  N   UNK N   1      35.573   4.287   8.693  0.00  0.00    -0.337 N 
HETATM   40  C   UNK N   1      36.000   5.587   8.270  0.00  0.00     0.179 C 
HETATM   41  C   UNK N   1      36.423   3.212   8.263  0.00  0.00     0.127 C 
HETATM   42  C   UNK N   1      37.477   5.394   7.966  0.00  0.00     0.037 C 
HETATM   43  C   UNK N   1      37.666   3.894   7.725  0.00  0.00     0.022 C 
HETATM   44  O   UNK N   1      33.916   2.920   9.291  0.00  0.00    -0.271 OA
BRANCH  40  45
HETATM   45  C   UNK N   1      35.267   5.828   6.969  0.00  0.00     0.241 C 
HETATM   46  O   UNK N   1      34.077   6.101   6.955  0.00  0.00    -0.271 OA
HETATM   47  N   UNK N   1      35.988   5.753   5.820  0.00  0.00    -0.346 N 
HETATM   48  H   UNK N   1      36.949   5.552   5.909  0.00  0.00     0.163 HD
BRANCH  47  49
HETATM   49  C   UNK N   1      35.491   5.936   4.501  0.00  0.00     0.180 C 
BRANCH  49  50
HETATM   50  C   UNK N   1      35.257   7.402   4.269  0.00  0.00     0.241 C 
HETATM   51  O   UNK N   1      35.867   8.241   4.914  0.00  0.00    -0.271 OA
HETATM   52  N   UNK N   1      34.308   7.795   3.379  0.00  0.00    -0.346 N 
HETATM   53  H   UNK N   1      34.137   8.757   3.260  0.00  0.00     0.163 HD
BRANCH  52  54
HETATM   54  C   UNK N   1      33.535   6.838   2.596  0.00  0.00     0.176 C 
BRANCH  54  55
HETATM   55  C   UNK N   1      33.156   7.518   1.321  0.00  0.00     0.241 C 
HETATM   56  O   UNK N   1      32.691   6.888   0.385  0.00  0.00    -0.271 OA
HETATM   57  N   UNK N   1      33.547   8.795   1.199  0.00  0.00    -0.346 N 
HETATM   58  H   UNK N   1      33.731   9.238   2.058  0.00  0.00     0.163 HD
BRANCH  57  59
HETATM   59  C   UNK N   1      33.747   9.642   0.057  0.00  0.00     0.180 C 
BRANCH  59  60
HETATM   60  C   UNK N   1      32.918  10.851   0.378  0.00  0.00     0.241 C 
HETATM   61  O   UNK N   1      33.162  11.513   1.378  0.00  0.00    -0.271 OA
HETATM   62  N   UNK N   1      31.827  11.152  -0.356  0.00  0.00    -0.346 N 
HETATM   63  H   UNK N   1      31.307  11.951  -0.113  0.00  0.00     0.163 HD
BRANCH  62  64
HETATM   64  C   UNK N   1      31.381  10.358  -1.485  0.00  0.00     0.181 C 
BRANCH  64  65
HETATM   65  C   UNK N   1      30.256   9.387  -1.186  0.00  0.00     0.243 C 
HETATM   66  N   UNK N   1      30.147   8.151  -1.758  0.00  0.00    -0.336 N 
HETATM   67  C   UNK N   1      29.011   7.306  -1.564  0.00  0.00     0.185 C 
HETATM   68  C   UNK N   1      31.153   7.583  -2.626  0.00  0.00     0.127 C 
HETATM   69  C   UNK N   1      29.458   5.938  -2.054  0.00  0.00     0.038 C 
HETATM   70  C   UNK N   1      30.664   6.186  -2.952  0.00  0.00     0.022 C 
HETATM   71  O   UNK N   1      29.373   9.750  -0.398  0.00  0.00    -0.271 OA
BRANCH  67  72
HETATM   72  C   UNK N   1      27.870   7.848  -2.402  0.00  0.00     0.163 C 
HETATM   73  O   UNK N   1      26.733   7.843  -1.961  0.00  0.00    -0.648 OA
BRANCH  72  74
HETATM   74  O   UNK N   1      28.103   8.380  -3.618  0.00  0.00    -0.775 OA
HETATM   75  H   UNK N   1      28.484   9.210  -3.826  0.00  0.00     0.167 HD
ENDBRANCH  72  74
ENDBRANCH  67  72
ENDBRANCH  64  65
BRANCH  64  76
HETATM   76  C   UNK N   1      31.176  11.211  -2.740  0.00  0.00     0.073 C 
BRANCH  76  77
HETATM   77  C   UNK N   1      32.450  11.280  -3.512  0.00  0.00    -0.056 A 
HETATM   78  C   UNK N   1      33.339  12.333  -3.280  0.00  0.00     0.010 A 
HETATM   79  C   UNK N   1      34.568  12.371  -3.947  0.00  0.00     0.037 A 
HETATM   80  C   UNK N   1      34.907  11.354  -4.846  0.00  0.00     0.065 A 
HETATM   81  C   UNK N   1      34.011  10.311  -5.092  0.00  0.00     0.037 A 
HETATM   82  C   UNK N   1      32.785  10.274  -4.427  0.00  0.00     0.010 A 
BRANCH  80  83
HETATM   83  O   UNK N   1      36.095  11.378  -5.468  0.00  0.00    -0.361 OA
HETATM   84  H   UNK N   1      36.892  11.276  -4.987  0.00  0.00     0.217 HD
ENDBRANCH  80  83
ENDBRANCH  76  77
ENDBRANCH  64  76
ENDBRANCH  62  64
ENDBRANCH  59  60
BRANCH  59  85
HETATM   85  C   UNK N   1      35.169   9.992  -0.446  0.00  0.00     0.009 C 
HETATM   86  C   UNK N   1      36.286   9.177   0.176  0.00  0.00     0.012 C 
HETATM   87  C   UNK N   1      35.523  11.461  -0.512  0.00  0.00     0.012 C 
ENDBRANCH  59  85
ENDBRANCH  57  59
ENDBRANCH  54  55
BRANCH  54  88
HETATM   88  C   UNK N   1      32.270   6.479   3.370  0.00  0.00     0.035 C 
BRANCH  88  89
HETATM   89  C   UNK N   1      31.908   4.999   3.299  0.00  0.00     0.004 C 
BRANCH  89  90
HETATM   90  C   UNK N   1      32.284   4.219   4.547  0.00  0.00     0.019 C 
BRANCH  90  91
HETATM   91  C   UNK N   1      31.580   2.878   4.508  0.00  0.00     0.111 C 
BRANCH  91  92
HETATM   92  N   UNK N   1      32.560   1.811   4.553  0.00  0.00    -0.430 N 
HETATM   93  H   UNK N   1      32.667   0.837   4.836  0.00  0.00     0.149 HD
HETATM   94  H   UNK N   1      33.444   2.149   4.170  0.00  0.00     0.149 HD
ENDBRANCH  91  92
ENDBRANCH  90  91
ENDBRANCH  89  90
ENDBRANCH  88  89
ENDBRANCH  54  88
ENDBRANCH  52  54
ENDBRANCH  49  50
BRANCH  49  95
HETATM   95  C   UNK N   1      36.382   5.237   3.471  0.00  0.00     0.009 C 
HETATM   96  C   UNK N   1      35.793   3.885   3.128  0.00  0.00     0.012 C 
HETATM   97  C   UNK N   1      37.807   5.036   3.969  0.00  0.00     0.012 C 
ENDBRANCH  49  95
ENDBRANCH  47  49
ENDBRANCH  40  45
ENDBRANCH  37  38
BRANCH  37  98
HETATM   98  C   UNK N   1      32.146   5.448   9.426  0.00  0.00     0.036 C 
BRANCH  98  99
HETATM   99  C   UNK N   1      31.136   5.982  10.450  0.00  0.00     0.023 C 
BRANCH  99 100
HETATM  100  C   UNK N   1      30.249   7.113   9.943  0.00  0.00     0.138 C 
BRANCH 100 101
HETATM  101  N   UNK N   1      30.014   6.968   8.527  0.00  0.00    -0.227 N 
HETATM  102  C   UNK N   1      28.819   6.419   7.988  0.00  0.00     0.665 C 
HETATM  103  N   UNK N   1      28.641   6.411   6.721  0.00  0.00    -0.235 N 
HETATM  104  N   UNK N   1      27.801   5.932   8.839  0.00  0.00    -0.235 N 
HETATM  105  H   UNK N   1      28.019   5.876   6.175  0.00  0.00     0.174 HD
ATOM    106  HN  UNK N   1      29.232   7.056   6.196  1.00  0.00     0.174 HD
HETATM  107  H   UNK N   1      27.451   6.477   9.580  0.00  0.00     0.174 HD
HETATM  108  H   UNK N   1      27.435   5.031   8.687  0.00  0.00     0.174 HD
HETATM  109  H   UNK N   1      30.716   7.265   7.902  0.00  0.00     0.177 HD
ENDBRANCH 100 101
ENDBRANCH  99 100
ENDBRANCH  98  99
ENDBRANCH  37  98
ENDBRANCH  35  37
ENDBRANCH  32  33
BRANCH  32 110
HETATM  110  C   UNK N   1      34.460   8.041  10.626  0.00  0.00     0.036 C 
BRANCH 110 111
HETATM  111  C   UNK N   1      35.481   8.769   9.757  0.00  0.00     0.023 C 
BRANCH 111 112
HETATM  112  C   UNK N   1      34.857   9.869   8.916  0.00  0.00     0.138 C 
BRANCH 112 113
HETATM  113  N   UNK N   1      34.413   9.341   7.646  0.00  0.00    -0.227 N 
HETATM  114  C   UNK N   1      33.046   9.308   7.264  0.00  0.00     0.665 C 
HETATM  115  N   UNK N   1      32.721   8.850   6.113  0.00  0.00    -0.235 N 
HETATM  116  N   UNK N   1      32.039   9.768   8.143  0.00  0.00    -0.235 N 
HETATM  117  H   UNK N   1      32.714   9.141   5.172  0.00  0.00     0.174 HD
ATOM    118  HN  UNK N   1      32.361   7.900   6.195  1.00  0.00     0.174 HD
HETATM  119  H   UNK N   1      31.339   9.157   8.469  0.00  0.00     0.174 HD
HETATM  120  H   UNK N   1      32.038  10.708   8.433  0.00  0.00     0.174 HD
HETATM  121  H   UNK N   1      35.087   8.991   7.020  0.00  0.00     0.177 HD
ENDBRANCH 112 113
ENDBRANCH 111 112
ENDBRANCH 110 111
ENDBRANCH  32 110
ENDBRANCH  30  32
ENDBRANCH  27  28
BRANCH  27 122
HETATM  122  C   UNK N   1      36.212   8.405  15.002  0.00  0.00     0.035 C 
BRANCH 122 123
HETATM  123  C   UNK N   1      36.984   9.389  15.855  0.00  0.00     0.004 C 
BRANCH 123 124
HETATM  124  C   UNK N   1      36.515   9.347  17.292  0.00  0.00     0.019 C 
BRANCH 124 125
HETATM  125  C   UNK N   1      35.002   9.331  17.297  0.00  0.00     0.111 C 
BRANCH 125 126
HETATM  126  N   UNK N   1      34.524   8.569  18.434  0.00  0.00    -0.430 N 
HETATM  127  H   UNK N   1      34.933   8.032  19.198  0.00  0.00     0.149 HD
HETATM  128  H   UNK N   1      33.505   8.569  18.481  0.00  0.00     0.149 HD
ENDBRANCH 125 126
ENDBRANCH 124 125
ENDBRANCH 123 124
ENDBRANCH 122 123
ENDBRANCH  27 122
ENDBRANCH  25  27
ENDBRANCH  22  23
BRANCH  22 129
HETATM  129  C   UNK N   1      36.455  13.048  14.516  0.00  0.00     0.035 C 
BRANCH 129 130
HETATM  130  C   UNK N   1      35.282  12.960  15.474  0.00  0.00     0.004 C 
BRANCH 130 131
HETATM  131  C   UNK N   1      35.779  12.877  16.904  0.00  0.00     0.019 C 
BRANCH 131 132
HETATM  132  C   UNK N   1      35.239  14.026  17.730  0.00  0.00     0.111 C 
BRANCH 132 133
HETATM  133  N   UNK N   1      35.245  13.655  19.130  0.00  0.00    -0.430 N 
HETATM  134  H   UNK N   1      34.621  13.651  19.937  0.00  0.00     0.149 HD
HETATM  135  H   UNK N   1      36.157  13.280  19.389  0.00  0.00     0.149 HD
ENDBRANCH 132 133
ENDBRANCH 131 132
ENDBRANCH 130 131
ENDBRANCH 129 130
ENDBRANCH  22 129
ENDBRANCH  20  22
ENDBRANCH  17  18
ENDBRANCH  15  17
ENDBRANCH  12  13
BRANCH  12 136
HETATM  136  C   UNK N   1      40.113  12.768   7.031  0.00  0.00     0.009 C 
HETATM  137  C   UNK N   1      41.225  12.155   7.859  0.00  0.00     0.012 C 
HETATM  138  C   UNK N   1      40.176  14.281   7.051  0.00  0.00     0.012 C 
ENDBRANCH  12 136
ENDBRANCH  10  12
ENDBRANCH   4   8
BRANCH   1 139
HETATM  139  C   UNK N   1      33.795  13.033   4.991  0.00  0.00     0.176 C 
BRANCH 139 140
HETATM  140  N   UNK N   1      32.647  12.931   4.103  0.00  0.00    -0.346 N 
HETATM  141  C   UNK N   1      32.386  13.936   3.231  0.00  0.00     0.236 C 
HETATM  142  O   UNK N   1      33.273  14.700   2.907  0.00  0.00    -0.272 OA
HETATM  143  H   UNK N   1      32.063  12.139   4.135  0.00  0.00     0.163 HD
BRANCH 141 144
HETATM  144  C   UNK N   1      30.994  14.353   2.972  0.00  0.00     0.225 C 
BRANCH 144 145
HETATM  145  N   UNK N   1      30.174  13.467   3.778  0.00  0.00    -0.351 N 
HETATM  146  C   UNK N   1      28.994  13.789   4.396  0.00  0.00     0.241 C 
HETATM  147  O   UNK N   1      28.479  12.959   5.128  0.00  0.00    -0.271 OA
HETATM  148  H   UNK N   1      30.497  12.544   3.892  0.00  0.00     0.163 HD
BRANCH 146 149
HETATM  149  C   UNK N   1      28.256  15.106   4.193  0.00  0.00     0.181 C 
BRANCH 149 150
HETATM  150  C   UNK N   1      29.185  16.337   4.319  0.00  0.00     0.075 C 
BRANCH 150 151
HETATM  151  C   UNK N   1      29.757  16.716   5.672  0.00  0.00    -0.028 A 
HETATM  152  C   UNK N   1      29.103  16.823   6.902  0.00  0.00     0.096 A 
HETATM  153  N   UNK N   1      29.975  17.223   7.858  0.00  0.00    -0.365 N 
HETATM  154  C   UNK N   1      31.163  17.348   7.245  0.00  0.00     0.042 A 
HETATM  155  H   UNK N   1      29.778  17.387   8.809  0.00  0.00     0.165 HD
HETATM  156  C   UNK N   1      31.068  17.040   5.917  0.00  0.00    -0.002 A 
HETATM  157  C   UNK N   1      32.363  17.732   7.831  0.00  0.00     0.030 A 
HETATM  158  C   UNK N   1      32.176  17.090   5.073  0.00  0.00     0.014 A 
HETATM  159  C   UNK N   1      33.409  17.467   5.635  0.00  0.00     0.001 A 
HETATM  160  C   UNK N   1      33.502  17.790   7.009  0.00  0.00     0.002 A 
ENDBRANCH 150 151
ENDBRANCH 149 150
BRANCH 149 161
HETATM  161  N   UNK N   1      27.426  15.124   3.018  0.00  0.00    -0.346 N 
HETATM  162  C   UNK N   1      26.189  15.665   2.944  0.00  0.00     0.241 C 
HETATM  163  O   UNK N   1      25.580  15.576   1.891  0.00  0.00    -0.271 OA
HETATM  164  H   UNK N   1      27.788  14.710   2.201  0.00  0.00     0.163 HD
BRANCH 162 165
HETATM  165  C   UNK N   1      25.524  16.365   4.103  0.00  0.00     0.176 C 
BRANCH 165 166
HETATM  166  C   UNK N   1      24.779  17.688   3.998  0.00  0.00     0.036 C 
BRANCH 166 167
HETATM  167  C   UNK N   1      25.664  18.741   3.365  0.00  0.00     0.023 C 
BRANCH 167 168
HETATM  168  C   UNK N   1      26.743  19.205   4.331  0.00  0.00     0.138 C 
BRANCH 168 169
HETATM  169  N   UNK N   1      26.393  20.459   4.956  0.00  0.00    -0.227 N 
HETATM  170  C   UNK N   1      26.623  20.713   6.332  0.00  0.00     0.665 C 
HETATM  171  N   UNK N   1      26.363  21.870   6.815  0.00  0.00    -0.235 N 
HETATM  172  N   UNK N   1      27.163  19.711   7.169  0.00  0.00    -0.235 N 
HETATM  173  H   UNK N   1      25.583  22.471   6.803  0.00  0.00     0.174 HD
ATOM    174  HN  UNK N   1      27.149  22.263   7.334  1.00  0.00     0.174 HD
HETATM  175  H   UNK N   1      27.929  19.917   7.754  0.00  0.00     0.174 HD
HETATM  176  H   UNK N   1      26.775  18.806   7.168  0.00  0.00     0.174 HD
HETATM  177  H   UNK N   1      25.979  21.164   4.407  0.00  0.00     0.177 HD
ENDBRANCH 168 169
ENDBRANCH 167 168
ENDBRANCH 166 167
ENDBRANCH 165 166
BRANCH 165 178
HETATM  178  N   UNK N   1      25.994  15.956   5.408  0.00  0.00    -0.346 N 
HETATM  179  C   UNK N   1      25.222  15.414   6.388  0.00  0.00     0.241 C 
HETATM  180  O   UNK N   1      25.731  15.188   7.473  0.00  0.00    -0.271 OA
HETATM  181  H   UNK N   1      26.952  16.080   5.603  0.00  0.00     0.163 HD
BRANCH 179 182
HETATM  182  C   UNK N   1      23.754  15.070   6.200  0.00  0.00     0.180 C 
BRANCH 182 183
HETATM  183  C   UNK N   1      23.564  13.554   6.309  0.00  0.00     0.073 C 
BRANCH 183 184
HETATM  184  C   UNK N   1      23.372  12.999   7.692  0.00  0.00    -0.056 A 
HETATM  185  C   UNK N   1      24.481  12.831   8.526  0.00  0.00     0.007 A 
HETATM  186  C   UNK N   1      24.298  12.446   9.859  0.00  0.00     0.001 A 
HETATM  187  C   UNK N   1      23.014  12.235  10.368  0.00  0.00     0.000 A 
HETATM  188  C   UNK N   1      21.903  12.395   9.538  0.00  0.00     0.001 A 
HETATM  189  C   UNK N   1      22.084  12.782   8.208  0.00  0.00     0.007 A 
ENDBRANCH 183 184
ENDBRANCH 182 183
BRANCH 182 190
HETATM  190  N   UNK N   1      22.887  15.753   7.141  0.00  0.00    -0.346 N 
HETATM  191  C   UNK N   1      21.663  16.276   6.892  0.00  0.00     0.241 C 
HETATM  192  O   UNK N   1      21.033  16.759   7.821  0.00  0.00    -0.271 OA
HETATM  193  H   UNK N   1      23.225  15.847   8.062  0.00  0.00     0.163 HD
BRANCH 191 194
HETATM  194  C   UNK N   1      21.085  16.312   5.496  0.00  0.00     0.182 C 
BRANCH 194 195
HETATM  195  C   UNK N   1      21.362  17.593   4.734  0.00  0.00     0.093 C 
BRANCH 195 196
HETATM  196  C   UNK N   1      20.696  17.425   3.415  0.00  0.00     0.028 A 
HETATM  197  N   UNK N   1      21.142  16.599   2.457  0.00  0.00    -0.354 N 
HETATM  198  C   UNK N   1      20.315  16.799   1.414  0.00  0.00     0.180 A 
HETATM  199  H   UNK N   1      21.907  15.982   2.505  0.00  0.00     0.166 HD
HETATM  200  N   UNK N   1      19.376  17.730   1.692  0.00  0.00    -0.360 N 
HETATM  201  C   UNK N   1      19.615  18.131   2.955  0.00  0.00     0.114 A 
ATOM    202  HN  UNK N   1      18.637  18.060   1.072  1.00  0.00     0.166 HD
ENDBRANCH 195 196
ENDBRANCH 194 195
BRANCH 194 203
HETATM  203  N   UNK N   1      19.703  15.907   5.426  0.00  0.00    -0.346 N 
HETATM  204  C   UNK N   1      19.272  14.695   5.030  0.00  0.00     0.241 C 
HETATM  205  O   UNK N   1      18.069  14.496   4.977  0.00  0.00    -0.271 OA
HETATM  206  H   UNK N   1      19.022  16.570   5.685  0.00  0.00     0.163 HD
BRANCH 204 207
HETATM  207  C   UNK N   1      20.260  13.600   4.660  0.00  0.00     0.177 C 
BRANCH 207 208
HETATM  208  C   UNK N   1      20.099  12.288   5.451  0.00  0.00     0.045 C 
BRANCH 208 209
HETATM  209  C   UNK N   1      19.753  11.087   4.580  0.00  0.00     0.112 C 
BRANCH 209 210
HETATM  210  C   UNK N   1      20.918  10.154   4.481  0.00  0.00     0.139 C 
HETATM  211  O   UNK N   1      21.040   9.226   5.267  0.00  0.00    -0.650 OA
BRANCH 210 212
HETATM  212  O   UNK N   1      21.859  10.363   3.545  0.00  0.00    -0.776 OA
HETATM  213  H   UNK N   1      21.621  10.581   2.665  0.00  0.00     0.167 HD
ENDBRANCH 210 212
ENDBRANCH 209 210
ENDBRANCH 208 209
ENDBRANCH 207 208
BRANCH 207 214
HETATM  214  N   UNK N   1      20.227  13.322   3.237  0.00  0.00    -0.346 N 
HETATM  215  C   UNK N   1      21.368  13.251   2.515  0.00  0.00     0.241 C 
HETATM  216  O   UNK N   1      22.448  13.405   3.073  0.00  0.00    -0.271 OA
HETATM  217  H   UNK N   1      19.361  13.183   2.790  0.00  0.00     0.163 HD
BRANCH 215 218
HETATM  218  C   UNK N   1      21.345  13.080   1.020  0.00  0.00     0.177 C 
BRANCH 218 219
HETATM  219  N   UNK N   1      22.176  11.949   0.739  0.00  0.00    -0.346 N 
HETATM  220  C   UNK N   1      23.416  12.204   0.272  0.00  0.00     0.243 C 
HETATM  221  O   UNK N   1      23.659  13.274  -0.276  0.00  0.00    -0.271 OA
HETATM  222  H   UNK N   1      21.857  11.028   0.881  0.00  0.00     0.163 HD
BRANCH 220 223
HETATM  223  C   UNK N   1      24.501  11.210   0.512  0.00  0.00     0.200 C 
BRANCH 223 224
HETATM  224  N   UNK N   1      24.489  11.014   1.934  0.00  0.00    -0.344 N 
HETATM  225  C   UNK N   1      25.603  11.302   2.646  0.00  0.00     0.241 C 
HETATM  226  O   UNK N   1      26.369  12.178   2.267  0.00  0.00    -0.271 OA
HETATM  227  H   UNK N   1      23.682  10.677   2.384  0.00  0.00     0.163 HD
BRANCH 225 228
HETATM  228  C   UNK N   1      26.023  10.435   3.784  0.00  0.00     0.180 C 
BRANCH 228 229
HETATM  229  C   UNK N   1      25.335  10.785   5.117  0.00  0.00     0.073 C 
BRANCH 229 230
HETATM  230  C   UNK N   1      24.675   9.564   5.678  0.00  0.00    -0.056 A 
HETATM  231  C   UNK N   1      24.570   8.419   4.879  0.00  0.00     0.010 A 
HETATM  232  C   UNK N   1      23.965   7.267   5.372  0.00  0.00     0.037 A 
HETATM  233  C   UNK N   1      23.476   7.243   6.676  0.00  0.00     0.065 A 
HETATM  234  C   UNK N   1      23.590   8.376   7.491  0.00  0.00     0.037 A 
HETATM  235  C   UNK N   1      24.185   9.542   6.991  0.00  0.00     0.010 A 
BRANCH 233 236
HETATM  236  O   UNK N   1      22.887   6.133   7.140  0.00  0.00    -0.361 OA
HETATM  237  H   UNK N   1      22.122   5.787   6.724  0.00  0.00     0.217 HD
ENDBRANCH 233 236
ENDBRANCH 229 230
ENDBRANCH 228 229
BRANCH 228 238
HETATM  238  N   UNK N   1      27.447  10.496   3.759  0.00  0.00    -0.346 N 
HETATM  239  C   UNK N   1      28.288   9.554   3.319  0.00  0.00     0.242 C 
HETATM  240  O   UNK N   1      27.970   8.762   2.444  0.00  0.00    -0.271 OA
HETATM  241  H   UNK N   1      27.855  11.323   4.104  0.00  0.00     0.163 HD
BRANCH 239 242
HETATM  242  C   UNK N   1      29.487   9.351   4.169  0.00  0.00     0.191 C 
BRANCH 242 243
HETATM  243  N   UNK N   1      29.396  10.108   5.401  0.00  0.00    -0.417 N 
HETATM  244  H   UNK N   1      29.346  11.115   5.561  0.00  0.00     0.150 HD
HETATM  245  H   UNK N   1      29.379   9.541   6.249  0.00  0.00     0.150 HD
ENDBRANCH 242 243
BRANCH 242 246
HETATM  246  C   UNK N   1      30.636   9.902   3.312  0.00  0.00     0.198 C 
BRANCH 246 247
HETATM  247  O   UNK N   1      30.186  10.791   2.344  0.00  0.00    -0.398 OA
HETATM  248  H   UNK N   1      29.297  10.701   1.967  0.00  0.00     0.209 HD
ENDBRANCH 246 247
ENDBRANCH 242 246
ENDBRANCH 239 242
ENDBRANCH 228 238
ENDBRANCH 225 228
ENDBRANCH 223 224
BRANCH 223 249
HETATM  249  C   UNK N   1      24.260   9.942  -0.318  0.00  0.00     0.199 C 
BRANCH 249 250
HETATM  250  O   UNK N   1      23.409  10.209  -1.384  0.00  0.00    -0.398 OA
HETATM  251  H   UNK N   1      22.556  10.639  -1.548  0.00  0.00     0.209 HD
ENDBRANCH 249 250
ENDBRANCH 223 249
ENDBRANCH 220 223
ENDBRANCH 218 219
BRANCH 218 252
HETATM  252  C   UNK N   1      19.956  12.904   0.480  0.00  0.00     0.045 C 
BRANCH 252 253
HETATM  253  C   UNK N   1      19.643  11.428   0.471  0.00  0.00     0.076 C 
BRANCH 253 254
HETATM  254  S   UNK N   1      18.024  11.059  -0.275  0.00  0.00    -0.173 SA
HETATM  255  C   UNK N   1      17.412  12.722   0.118  0.00  0.00     0.089 C 
ENDBRANCH 253 254
ENDBRANCH 252 253
ENDBRANCH 218 252
ENDBRANCH 215 218
ENDBRANCH 207 214
ENDBRANCH 204 207
ENDBRANCH 194 203
ENDBRANCH 191 194
ENDBRANCH 182 190
ENDBRANCH 179 182
ENDBRANCH 165 178
ENDBRANCH 162 165
ENDBRANCH 149 161
ENDBRANCH 146 149
ENDBRANCH 144 145
ENDBRANCH 141 144
ENDBRANCH 139 140
BRANCH 139 256
HETATM  256  C   UNK N   1      33.352  12.844   6.459  0.00  0.00     0.035 C 
BRANCH 256 257
HETATM  257  C   UNK N   1      32.388  13.886   6.964  0.00  0.00     0.004 C 
BRANCH 257 258
HETATM  258  C   UNK N   1      32.645  14.112   8.441  0.00  0.00     0.019 C 
BRANCH 258 259
HETATM  259  C   UNK N   1      34.086  13.794   8.799  0.00  0.00     0.111 C 
BRANCH 259 260
HETATM  260  N   UNK N   1      34.875  15.013   8.834  0.00  0.00    -0.430 N 
HETATM  261  H   UNK N   1      34.562  15.982   8.906  0.00  0.00     0.149 HD
HETATM  262  H   UNK N   1      35.885  14.882   8.780  0.00  0.00     0.149 HD
ENDBRANCH 259 260
ENDBRANCH 258 259
ENDBRANCH 257 258
ENDBRANCH 256 257
ENDBRANCH 139 256
ENDBRANCH   1 139
TORSDOF 104
ENDMDL
MODEL 3
REMARK VINA RESULT:      -5.4      2.484      6.003
REMARK WARNING: 32 MAX_TORS EXCEEDED!!!
REMARK  104 active torsions:
REMARK  status: ('A' for Active; 'I' for Inactive)
REMARK    1  A    between atoms: C_2  and  C_1 
REMARK       I    between atoms: C_1  and  N_7 
REMARK    2  A    between atoms: C_2  and  N_4 
REMARK    3  A    between atoms: C_5  and  C_2 
REMARK    4  A    between atoms: O_6  and  C_5 
REMARK    5  A    between atoms: C_10  and  N_7 
REMARK    6  A    between atoms: C_10  and  C_8 
REMARK       I    between atoms: C_8  and  N_19 
REMARK    7  A    between atoms: C_11  and  C_10 
REMARK    8  A    between atoms: C_12  and  C_11 
REMARK    9  A    between atoms: O_18  and  C_16 
REMARK   10  A    between atoms: C_21  and  N_19 
REMARK   11  A    between atoms: C_21  and  C_20 
REMARK       I    between atoms: C_20  and  N_25 
REMARK   12  A    between atoms: C_23  and  C_21 
REMARK   13  A    between atoms: O_24  and  C_23 
REMARK   14  A    between atoms: C_28  and  N_25 
REMARK   15  A    between atoms: C_28  and  C_26 
REMARK       I    between atoms: C_26  and  N_33 
REMARK   16  A    between atoms: C_30  and  C_28 
REMARK   17  A    between atoms: C_31  and  S_29 
REMARK   18  A    between atoms: C_31  and  C_30 
REMARK   19  A    between atoms: C_37  and  N_33 
REMARK   20  A    between atoms: C_37  and  C_34 
REMARK       I    between atoms: C_34  and  N_42 
REMARK   21  A    between atoms: C_40  and  C_35 
REMARK   22  A    between atoms: O_41  and  C_35 
REMARK   23  A    between atoms: C_39  and  C_37 
REMARK   24  A    between atoms: C_40  and  C_39 
REMARK   25  A    between atoms: C_45  and  N_42 
REMARK   26  A    between atoms: C_45  and  C_43 
REMARK       I    between atoms: C_43  and  N_53 
REMARK   27  A    between atoms: C_46  and  C_45 
REMARK   28  A    between atoms: C_47  and  C_46 
REMARK   29  A    between atoms: C_55  and  N_53 
REMARK   30  A    between atoms: C_55  and  C_54 
REMARK       I    between atoms: C_54  and  N_64 
REMARK   31  A    between atoms: C_57  and  C_55 
REMARK   32  A    between atoms: C_58  and  C_57 
REMARK   33  A    between atoms: C_71  and  N_64 
REMARK       I    between atoms: N_70  and  C_65 
REMARK       I    between atoms: N_72  and  C_65 
REMARK   34  A    between atoms: C_71  and  C_66 
REMARK       I    between atoms: C_66  and  N_76 
REMARK   35  A    between atoms: C_73  and  N_70 
REMARK   36  A    between atoms: C_74  and  C_71 
REMARK   37  A    between atoms: C_75  and  C_73 
REMARK   38  A    between atoms: C_75  and  C_74 
REMARK   39  A    between atoms: C_79  and  N_76 
REMARK   40  A    between atoms: C_79  and  C_77 
REMARK       I    between atoms: C_77  and  N_90 
REMARK   41  A    between atoms: C_80  and  C_79 
REMARK   42  A    between atoms: C_81  and  C_80 
REMARK   43  A    between atoms: N_90  and  C_93 
REMARK   44  A    between atoms: C_93  and  C_91 
REMARK       I    between atoms: C_91  and  N_94 
REMARK   45  A    between atoms: C_97  and  N_94 
REMARK       I    between atoms: N_96  and  C_95 
REMARK   46  A    between atoms: C_97  and  C_95 
REMARK   47  A    between atoms: C_100  and  C_97 
REMARK   48  A    between atoms: C_99  and  N_98 
REMARK   49  A    between atoms: C_101  and  C_99 
REMARK   50  A    between atoms: C_102  and  C_100 
REMARK   51  A    between atoms: C_102  and  C_101 
REMARK   52  A    between atoms: C_104  and  C_108 
REMARK       I    between atoms: C_108  and  N_110 
REMARK   53  A    between atoms: C_112  and  N_110 
REMARK   54  A    between atoms: C_112  and  C_111 
REMARK       I    between atoms: C_111  and  N_117 
REMARK   55  A    between atoms: C_114  and  C_112 
REMARK   56  A    between atoms: N_117  and  C_120 
REMARK   57  A    between atoms: C_120  and  C_118 
REMARK       I    between atoms: C_118  and  N_121 
REMARK   58  A    between atoms: C_124  and  N_121 
REMARK   59  A    between atoms: C_124  and  C_122 
REMARK       I    between atoms: C_122  and  N_130 
REMARK   60  A    between atoms: C_127  and  C_124 
REMARK   61  A    between atoms: C_126  and  N_125 
REMARK   62  A    between atoms: C_128  and  C_126 
REMARK   63  A    between atoms: C_129  and  C_127 
REMARK   64  A    between atoms: C_129  and  C_128 
REMARK   65  A    between atoms: C_133  and  N_130 
REMARK   66  A    between atoms: C_133  and  C_131 
REMARK       I    between atoms: C_131  and  N_139 
REMARK   67  A    between atoms: C_136  and  C_133 
REMARK   68  A    between atoms: C_135  and  N_134 
REMARK   69  A    between atoms: C_137  and  C_135 
REMARK   70  A    between atoms: C_138  and  C_136 
REMARK   71  A    between atoms: C_138  and  C_137 
REMARK   72  A    between atoms: C_146  and  N_139 
REMARK       I    between atoms: N_145  and  C_140 
REMARK       I    between atoms: N_147  and  C_140 
REMARK   73  A    between atoms: C_146  and  C_141 
REMARK       I    between atoms: C_141  and  N_151 
REMARK   74  A    between atoms: C_148  and  N_145 
REMARK   75  A    between atoms: C_149  and  C_146 
REMARK   76  A    between atoms: C_150  and  C_148 
REMARK   77  A    between atoms: C_150  and  C_149 
REMARK   78  A    between atoms: C_158  and  N_151 
REMARK       I    between atoms: N_157  and  C_152 
REMARK       I    between atoms: N_159  and  C_152 
REMARK   79  A    between atoms: C_158  and  C_153 
REMARK       I    between atoms: N_156  and  C_153 
REMARK   80  A    between atoms: C_160  and  N_157 
REMARK   81  A    between atoms: C_161  and  C_158 
REMARK   82  A    between atoms: C_162  and  C_160 
REMARK   83  A    between atoms: C_162  and  C_161 
REMARK   84  A    between atoms: C_164  and  C_168 
REMARK       I    between atoms: C_168  and  N_170 
REMARK   85  A    between atoms: C_172  and  N_170 
REMARK   86  A    between atoms: C_172  and  C_171 
REMARK       I    between atoms: C_171  and  N_177 
REMARK   87  A    between atoms: C_174  and  C_172 
REMARK   88  A    between atoms: C_180  and  N_177 
REMARK   89  A    between atoms: C_180  and  C_178 
REMARK       I    between atoms: C_178  and  N_186 
REMARK   90  A    between atoms: C_183  and  C_180 
REMARK   91  A    between atoms: C_182  and  N_181 
REMARK   92  A    between atoms: C_184  and  C_182 
REMARK   93  A    between atoms: C_185  and  C_183 
REMARK   94  A    between atoms: C_185  and  C_184 
REMARK   95  A    between atoms: C_188  and  N_186 
REMARK   96  A    between atoms: C_188  and  C_187 
REMARK       I    between atoms: C_187  and  N_193 
REMARK   97  A    between atoms: C_190  and  C_188 
REMARK   98  A    between atoms: C_196  and  N_193 
REMARK       I    between atoms: N_195  and  C_194 
REMARK   99  A    between atoms: C_196  and  C_194 
REMARK  100  A    between atoms: C_197  and  C_196 
REMARK  101  A    between atoms: C_198  and  C_197 
REMARK  102  A    between atoms: O_204  and  C_202 
REMARK  103  A    between atoms: C_206  and  C_210 
REMARK  104  A    between atoms: C_210  and  O_212 
ROOT
HETATM    1  C   UNK N   1      30.564  15.312   5.365  0.00  0.00     0.243 C 
HETATM    2  N   UNK N   1      31.784  15.263   4.735  0.00  0.00    -0.337 N 
HETATM    3  O   UNK N   1      30.072  14.288   5.818  0.00  0.00    -0.271 OA
HETATM    4  C   UNK N   1      32.496  16.444   4.324  0.00  0.00     0.179 C 
HETATM    5  C   UNK N   1      32.456  14.030   4.452  0.00  0.00     0.127 C 
HETATM    6  C   UNK N   1      33.636  14.417   3.571  0.00  0.00     0.022 C 
HETATM    7  C   UNK N   1      33.612  15.940   3.421  0.00  0.00     0.037 C 
ENDROOT
BRANCH   4   8
HETATM    8  C   UNK N   1      33.037  17.005   5.604  0.00  0.00     0.241 C 
HETATM    9  O   UNK N   1      33.827  17.936   5.561  0.00  0.00    -0.271 OA
HETATM   10  N   UNK N   1      32.926  16.244   6.714  0.00  0.00    -0.346 N 
HETATM   11  H   UNK N   1      32.141  15.654   6.788  0.00  0.00     0.163 HD
BRANCH  10  12
HETATM   12  C   UNK N   1      33.880  16.237   7.805  0.00  0.00     0.180 C 
BRANCH  12  13
HETATM   13  C   UNK N   1      33.717  17.152   9.006  0.00  0.00     0.241 C 
HETATM   14  O   UNK N   1      32.806  17.963   9.001  0.00  0.00    -0.271 OA
HETATM   15  N   UNK N   1      34.589  17.158  10.047  0.00  0.00    -0.351 N 
HETATM   16  H   UNK N   1      34.480  17.853  10.736  0.00  0.00     0.163 HD
BRANCH  15  17
HETATM   17  C   UNK N   1      35.665  16.208  10.211  0.00  0.00     0.225 C 
BRANCH  17  18
HETATM   18  C   UNK N   1      35.272  15.294  11.309  0.00  0.00     0.236 C 
HETATM   19  O   UNK N   1      34.141  14.831  11.336  0.00  0.00    -0.272 OA
HETATM   20  N   UNK N   1      36.230  14.844  12.154  0.00  0.00    -0.346 N 
HETATM   21  H   UNK N   1      37.063  15.360  12.252  0.00  0.00     0.163 HD
BRANCH  20  22
HETATM   22  C   UNK N   1      36.063  13.636  12.910  0.00  0.00     0.176 C 
BRANCH  22  23
HETATM   23  C   UNK N   1      36.925  12.609  12.235  0.00  0.00     0.241 C 
HETATM   24  O   UNK N   1      37.619  11.852  12.899  0.00  0.00    -0.271 OA
HETATM   25  N   UNK N   1      37.017  12.614  10.893  0.00  0.00    -0.346 N 
HETATM   26  H   UNK N   1      36.452  13.233  10.378  0.00  0.00     0.163 HD
BRANCH  25  27
HETATM   27  C   UNK N   1      37.918  11.737  10.188  0.00  0.00     0.176 C 
BRANCH  27  28
HETATM   28  C   UNK N   1      37.220  11.061   9.046  0.00  0.00     0.241 C 
HETATM   29  O   UNK N   1      37.015  11.700   8.029  0.00  0.00    -0.271 OA
HETATM   30  N   UNK N   1      36.842   9.761   9.094  0.00  0.00    -0.346 N 
HETATM   31  H   UNK N   1      36.342   9.398   8.327  0.00  0.00     0.163 HD
BRANCH  30  32
HETATM   32  C   UNK N   1      37.125   8.871  10.202  0.00  0.00     0.176 C 
BRANCH  32  33
HETATM   33  C   UNK N   1      36.048   8.668  11.257  0.00  0.00     0.241 C 
HETATM   34  O   UNK N   1      36.275   8.967  12.416  0.00  0.00    -0.271 OA
HETATM   35  N   UNK N   1      34.824   8.181  10.916  0.00  0.00    -0.346 N 
HETATM   36  H   UNK N   1      34.107   8.138  11.588  0.00  0.00     0.163 HD
BRANCH  35  37
HETATM   37  C   UNK N   1      34.578   7.724   9.567  0.00  0.00     0.176 C 
BRANCH  37  38
HETATM   38  C   UNK N   1      34.149   6.264   9.638  0.00  0.00     0.243 C 
HETATM   39  N   UNK N   1      34.843   5.287   8.993  0.00  0.00    -0.337 N 
HETATM   40  C   UNK N   1      35.643   5.554   7.836  0.00  0.00     0.179 C 
HETATM   41  C   UNK N   1      34.616   3.893   9.252  0.00  0.00     0.127 C 
HETATM   42  C   UNK N   1      36.388   4.248   7.611  0.00  0.00     0.037 C 
HETATM   43  C   UNK N   1      35.571   3.168   8.324  0.00  0.00     0.022 C 
HETATM   44  O   UNK N   1      33.258   5.949  10.416  0.00  0.00    -0.271 OA
BRANCH  40  45
HETATM   45  C   UNK N   1      34.646   5.740   6.714  0.00  0.00     0.241 C 
HETATM   46  O   UNK N   1      33.460   5.497   6.875  0.00  0.00    -0.271 OA
HETATM   47  N   UNK N   1      35.117   6.209   5.529  0.00  0.00    -0.346 N 
HETATM   48  H   UNK N   1      36.080   6.406   5.478  0.00  0.00     0.163 HD
BRANCH  47  49
HETATM   49  C   UNK N   1      34.352   6.444   4.353  0.00  0.00     0.180 C 
BRANCH  49  50
HETATM   50  C   UNK N   1      35.036   7.499   3.531  0.00  0.00     0.241 C 
HETATM   51  O   UNK N   1      36.095   7.262   2.967  0.00  0.00    -0.271 OA
HETATM   52  N   UNK N   1      34.504   8.747   3.469  0.00  0.00    -0.346 N 
HETATM   53  H   UNK N   1      34.978   9.442   2.957  0.00  0.00     0.163 HD
BRANCH  52  54
HETATM   54  C   UNK N   1      33.256   9.093   4.137  0.00  0.00     0.176 C 
BRANCH  54  55
HETATM   55  C   UNK N   1      32.193   9.134   3.089  0.00  0.00     0.241 C 
HETATM   56  O   UNK N   1      31.113   8.592   3.264  0.00  0.00    -0.271 OA
HETATM   57  N   UNK N   1      32.567   9.609   1.892  0.00  0.00    -0.346 N 
HETATM   58  H   UNK N   1      33.371  10.177   1.924  0.00  0.00     0.163 HD
BRANCH  57  59
HETATM   59  C   UNK N   1      32.023   9.452   0.573  0.00  0.00     0.180 C 
BRANCH  59  60
HETATM   60  C   UNK N   1      31.038  10.579   0.473  0.00  0.00     0.241 C 
HETATM   61  O   UNK N   1      31.352  11.702   0.844  0.00  0.00    -0.271 OA
HETATM   62  N   UNK N   1      29.765  10.348   0.091  0.00  0.00    -0.346 N 
HETATM   63  H   UNK N   1      29.147  11.112   0.041  0.00  0.00     0.163 HD
BRANCH  62  64
HETATM   64  C   UNK N   1      29.260   9.032  -0.248  0.00  0.00     0.181 C 
BRANCH  64  65
HETATM   65  C   UNK N   1      28.416   8.369   0.824  0.00  0.00     0.243 C 
HETATM   66  N   UNK N   1      28.636   7.104   1.289  0.00  0.00    -0.336 N 
HETATM   67  C   UNK N   1      27.752   6.449   2.201  0.00  0.00     0.185 C 
HETATM   68  C   UNK N   1      29.767   6.294   0.894  0.00  0.00     0.127 C 
HETATM   69  C   UNK N   1      28.542   5.258   2.719  0.00  0.00     0.038 C 
HETATM   70  C   UNK N   1      29.657   5.020   1.707  0.00  0.00     0.022 C 
HETATM   71  O   UNK N   1      27.459   9.006   1.283  0.00  0.00    -0.271 OA
BRANCH  67  72
HETATM   72  C   UNK N   1      26.522   6.007   1.434  0.00  0.00     0.163 C 
HETATM   73  O   UNK N   1      26.462   4.879   0.975  0.00  0.00    -0.648 OA
BRANCH  72  74
HETATM   74  O   UNK N   1      25.468   6.835   1.289  0.00  0.00    -0.775 OA
HETATM   75  H   UNK N   1      24.570   6.611   1.138  0.00  0.00     0.167 HD
ENDBRANCH  72  74
ENDBRANCH  67  72
ENDBRANCH  64  65
BRANCH  64  76
HETATM   76  C   UNK N   1      28.655   8.994  -1.654  0.00  0.00     0.073 C 
BRANCH  76  77
HETATM   77  C   UNK N   1      29.731   9.193  -2.667  0.00  0.00    -0.056 A 
HETATM   78  C   UNK N   1      29.971  10.473  -3.174  0.00  0.00     0.010 A 
HETATM   79  C   UNK N   1      31.023  10.684  -4.071  0.00  0.00     0.037 A 
HETATM   80  C   UNK N   1      31.834   9.613  -4.462  0.00  0.00     0.065 A 
HETATM   81  C   UNK N   1      31.583   8.330  -3.971  0.00  0.00     0.037 A 
HETATM   82  C   UNK N   1      30.534   8.120  -3.075  0.00  0.00     0.010 A 
BRANCH  80  83
HETATM   83  O   UNK N   1      32.857   9.819  -5.305  0.00  0.00    -0.361 OA
HETATM   84  H   UNK N   1      33.701   9.448  -5.137  0.00  0.00     0.217 HD
ENDBRANCH  80  83
ENDBRANCH  76  77
ENDBRANCH  64  76
ENDBRANCH  62  64
ENDBRANCH  59  60
BRANCH  59  85
HETATM   85  C   UNK N   1      32.942   9.331  -0.668  0.00  0.00     0.009 C 
HETATM   86  C   UNK N   1      34.016   8.267  -0.566  0.00  0.00     0.012 C 
HETATM   87  C   UNK N   1      33.489  10.622  -1.236  0.00  0.00     0.012 C 
ENDBRANCH  59  85
ENDBRANCH  57  59
ENDBRANCH  54  55
BRANCH  54  88
HETATM   88  C   UNK N   1      33.400  10.477   4.763  0.00  0.00     0.035 C 
BRANCH  88  89
HETATM   89  C   UNK N   1      34.705  10.671   5.529  0.00  0.00     0.004 C 
BRANCH  89  90
HETATM   90  C   UNK N   1      35.635  11.693   4.897  0.00  0.00     0.019 C 
BRANCH  90  91
HETATM   91  C   UNK N   1      36.926  10.997   4.515  0.00  0.00     0.111 C 
BRANCH  91  92
HETATM   92  N   UNK N   1      37.227   9.961   5.485  0.00  0.00    -0.430 N 
HETATM   93  H   UNK N   1      37.013   9.676   6.440  0.00  0.00     0.149 HD
HETATM   94  H   UNK N   1      37.872   9.288   5.070  0.00  0.00     0.149 HD
ENDBRANCH  91  92
ENDBRANCH  90  91
ENDBRANCH  89  90
ENDBRANCH  88  89
ENDBRANCH  54  88
ENDBRANCH  52  54
ENDBRANCH  49  50
BRANCH  49  95
HETATM   95  C   UNK N   1      34.042   5.134   3.624  0.00  0.00     0.009 C 
HETATM   96  C   UNK N   1      35.311   4.320   3.488  0.00  0.00     0.012 C 
HETATM   97  C   UNK N   1      33.456   5.359   2.237  0.00  0.00     0.012 C 
ENDBRANCH  49  95
ENDBRANCH  47  49
ENDBRANCH  40  45
ENDBRANCH  37  38
BRANCH  37  98
HETATM   98  C   UNK N   1      33.711   8.656   8.712  0.00  0.00     0.036 C 
BRANCH  98  99
HETATM   99  C   UNK N   1      32.492   9.290   9.396  0.00  0.00     0.023 C 
BRANCH  99 100
HETATM  100  C   UNK N   1      31.195   8.502   9.249  0.00  0.00     0.138 C 
BRANCH 100 101
HETATM  101  N   UNK N   1      31.303   7.559   8.162  0.00  0.00    -0.227 N 
HETATM  102  C   UNK N   1      30.939   7.870   6.824  0.00  0.00     0.665 C 
HETATM  103  N   UNK N   1      31.153   7.017   5.894  0.00  0.00    -0.235 N 
HETATM  104  N   UNK N   1      30.395   9.134   6.499  0.00  0.00    -0.235 N 
HETATM  105  H   UNK N   1      30.762   6.956   4.992  0.00  0.00     0.174 HD
ATOM    106  HN  UNK N   1      31.831   6.289   6.122  1.00  0.00     0.174 HD
HETATM  107  H   UNK N   1      30.834   9.968   6.782  0.00  0.00     0.174 HD
HETATM  108  H   UNK N   1      29.561   9.181   5.979  0.00  0.00     0.174 HD
HETATM  109  H   UNK N   1      31.646   6.657   8.356  0.00  0.00     0.177 HD
ENDBRANCH 100 101
ENDBRANCH  99 100
ENDBRANCH  98  99
ENDBRANCH  37  98
ENDBRANCH  35  37
ENDBRANCH  32  33
BRANCH  32 110
HETATM  110  C   UNK N   1      38.485   8.175  10.190  0.00  0.00     0.036 C 
BRANCH 110 111
HETATM  111  C   UNK N   1      38.637   7.359   8.910  0.00  0.00     0.023 C 
BRANCH 111 112
HETATM  112  C   UNK N   1      40.000   6.697   8.796  0.00  0.00     0.138 C 
BRANCH 112 113
HETATM  113  N   UNK N   1      41.049   7.672   8.982  0.00  0.00    -0.227 N 
HETATM  114  C   UNK N   1      42.411   7.310   9.162  0.00  0.00     0.665 C 
HETATM  115  N   UNK N   1      43.297   8.224   9.297  0.00  0.00    -0.235 N 
HETATM  116  N   UNK N   1      42.797   5.950   9.202  0.00  0.00    -0.235 N 
HETATM  117  H   UNK N   1      43.803   8.857   8.737  0.00  0.00     0.174 HD
ATOM    118  HN  UNK N   1      43.557   8.328  10.277  1.00  0.00     0.174 HD
HETATM  119  H   UNK N   1      43.216   5.570  10.007  0.00  0.00     0.174 HD
HETATM  120  H   UNK N   1      42.645   5.378   8.416  0.00  0.00     0.174 HD
HETATM  121  H   UNK N   1      40.812   8.627   8.984  0.00  0.00     0.177 HD
ENDBRANCH 112 113
ENDBRANCH 111 112
ENDBRANCH 110 111
ENDBRANCH  32 110
ENDBRANCH  30  32
ENDBRANCH  27  28
BRANCH  27 122
HETATM  122  C   UNK N   1      39.137  12.504   9.718  0.00  0.00     0.035 C 
BRANCH 122 123
HETATM  123  C   UNK N   1      40.091  11.598   8.968  0.00  0.00     0.004 C 
BRANCH 123 124
HETATM  124  C   UNK N   1      40.648  12.289   7.745  0.00  0.00     0.019 C 
BRANCH 124 125
HETATM  125  C   UNK N   1      39.809  13.519   7.471  0.00  0.00     0.111 C 
BRANCH 125 126
HETATM  126  N   UNK N   1      38.997  13.304   6.289  0.00  0.00    -0.430 N 
HETATM  127  H   UNK N   1      39.151  13.060   5.311  0.00  0.00     0.149 HD
HETATM  128  H   UNK N   1      38.005  13.431   6.490  0.00  0.00     0.149 HD
ENDBRANCH 125 126
ENDBRANCH 124 125
ENDBRANCH 123 124
ENDBRANCH 122 123
ENDBRANCH  27 122
ENDBRANCH  25  27
ENDBRANCH  22  23
BRANCH  22 129
HETATM  129  C   UNK N   1      36.512  13.875  14.348  0.00  0.00     0.035 C 
BRANCH 129 130
HETATM  130  C   UNK N   1      35.468  13.391  15.336  0.00  0.00     0.004 C 
BRANCH 130 131
HETATM  131  C   UNK N   1      36.047  12.302  16.218  0.00  0.00     0.019 C 
BRANCH 131 132
HETATM  132  C   UNK N   1      35.552  10.937  15.784  0.00  0.00     0.111 C 
BRANCH 132 133
HETATM  133  N   UNK N   1      36.606  10.250  15.067  0.00  0.00    -0.430 N 
HETATM  134  H   UNK N   1      36.988   9.311  14.956  0.00  0.00     0.149 HD
HETATM  135  H   UNK N   1      37.128  10.911  14.493  0.00  0.00     0.149 HD
ENDBRANCH 132 133
ENDBRANCH 131 132
ENDBRANCH 130 131
ENDBRANCH 129 130
ENDBRANCH  22 129
ENDBRANCH  20  22
ENDBRANCH  17  18
ENDBRANCH  15  17
ENDBRANCH  12  13
BRANCH  12 136
HETATM  136  C   UNK N   1      34.748  14.983   7.837  0.00  0.00     0.009 C 
HETATM  137  C   UNK N   1      35.737  14.929   6.690  0.00  0.00     0.012 C 
HETATM  138  C   UNK N   1      33.931  13.711   7.925  0.00  0.00     0.012 C 
ENDBRANCH  12 136
ENDBRANCH  10  12
ENDBRANCH   4   8
BRANCH   1 139
HETATM  139  C   UNK N   1      29.739  16.598   5.321  0.00  0.00     0.176 C 
BRANCH 139 140
HETATM  140  N   UNK N   1      28.463  16.144   4.791  0.00  0.00    -0.346 N 
HETATM  141  C   UNK N   1      28.183  16.326   3.477  0.00  0.00     0.236 C 
HETATM  142  O   UNK N   1      29.088  16.488   2.683  0.00  0.00    -0.272 OA
HETATM  143  H   UNK N   1      27.807  15.708   5.382  0.00  0.00     0.163 HD
BRANCH 141 144
HETATM  144  C   UNK N   1      26.823  16.710   3.052  0.00  0.00     0.225 C 
BRANCH 144 145
HETATM  145  N   UNK N   1      26.586  18.007   3.661  0.00  0.00    -0.351 N 
HETATM  146  C   UNK N   1      25.507  18.360   4.430  0.00  0.00     0.241 C 
HETATM  147  O   UNK N   1      25.402  19.525   4.779  0.00  0.00    -0.271 OA
HETATM  148  H   UNK N   1      27.266  18.702   3.505  0.00  0.00     0.163 HD
BRANCH 146 149
HETATM  149  C   UNK N   1      24.449  17.378   4.916  0.00  0.00     0.181 C 
BRANCH 149 150
HETATM  150  C   UNK N   1      23.186  18.084   5.466  0.00  0.00     0.075 C 
BRANCH 150 151
HETATM  151  C   UNK N   1      21.924  18.134   4.626  0.00  0.00    -0.028 A 
HETATM  152  C   UNK N   1      20.785  17.328   4.705  0.00  0.00     0.096 A 
HETATM  153  N   UNK N   1      19.898  17.681   3.746  0.00  0.00    -0.365 N 
HETATM  154  C   UNK N   1      20.461  18.704   3.083  0.00  0.00     0.042 A 
HETATM  155  H   UNK N   1      19.020  17.273   3.570  0.00  0.00     0.165 HD
HETATM  156  C   UNK N   1      21.689  19.011   3.597  0.00  0.00    -0.002 A 
HETATM  157  C   UNK N   1      19.913  19.401   2.011  0.00  0.00     0.030 A 
HETATM  158  C   UNK N   1      22.463  20.046   3.076  0.00  0.00     0.014 A 
HETATM  159  C   UNK N   1      21.936  20.778   1.997  0.00  0.00     0.001 A 
HETATM  160  C   UNK N   1      20.666  20.454   1.464  0.00  0.00     0.002 A 
ENDBRANCH 150 151
ENDBRANCH 149 150
BRANCH 149 161
HETATM  161  N   UNK N   1      24.162  16.330   3.974  0.00  0.00    -0.346 N 
HETATM  162  C   UNK N   1      24.137  15.008   4.260  0.00  0.00     0.241 C 
HETATM  163  O   UNK N   1      23.915  14.224   3.353  0.00  0.00    -0.271 OA
HETATM  164  H   UNK N   1      23.967  16.595   3.046  0.00  0.00     0.163 HD
BRANCH 162 165
HETATM  165  C   UNK N   1      24.376  14.459   5.643  0.00  0.00     0.176 C 
BRANCH 165 166
HETATM  166  C   UNK N   1      25.116  13.162   5.941  0.00  0.00     0.036 C 
BRANCH 166 167
HETATM  167  C   UNK N   1      26.578  13.294   5.570  0.00  0.00     0.023 C 
BRANCH 167 168
HETATM  168  C   UNK N   1      26.968  12.281   4.503  0.00  0.00     0.138 C 
BRANCH 168 169
HETATM  169  N   UNK N   1      27.327  12.929   3.263  0.00  0.00    -0.227 N 
HETATM  170  C   UNK N   1      28.635  12.857   2.720  0.00  0.00     0.665 C 
HETATM  171  N   UNK N   1      28.878  13.385   1.579  0.00  0.00    -0.235 N 
HETATM  172  N   UNK N   1      29.667  12.183   3.412  0.00  0.00    -0.235 N 
HETATM  173  H   UNK N   1      28.725  14.271   1.175  0.00  0.00     0.174 HD
ATOM    174  HN  UNK N   1      29.336  12.738   0.938  1.00  0.00     0.174 HD
HETATM  175  H   UNK N   1      30.225  11.522   2.942  0.00  0.00     0.174 HD
HETATM  176  H   UNK N   1      29.828  12.374   4.364  0.00  0.00     0.174 HD
HETATM  177  H   UNK N   1      26.639  13.439   2.777  0.00  0.00     0.177 HD
ENDBRANCH 168 169
ENDBRANCH 167 168
ENDBRANCH 166 167
ENDBRANCH 165 166
BRANCH 165 178
HETATM  178  N   UNK N   1      23.496  14.983   6.664  0.00  0.00    -0.346 N 
HETATM  179  C   UNK N   1      22.183  14.657   6.814  0.00  0.00     0.241 C 
HETATM  180  O   UNK N   1      21.534  15.235   7.669  0.00  0.00    -0.271 OA
HETATM  181  H   UNK N   1      23.877  15.629   7.302  0.00  0.00     0.163 HD
BRANCH 179 182
HETATM  182  C   UNK N   1      21.484  13.604   5.972  0.00  0.00     0.180 C 
BRANCH 182 183
HETATM  183  C   UNK N   1      21.605  12.238   6.653  0.00  0.00     0.073 C 
BRANCH 183 184
HETATM  184  C   UNK N   1      21.928  12.245   8.120  0.00  0.00    -0.056 A 
HETATM  185  C   UNK N   1      23.221  11.925   8.542  0.00  0.00     0.007 A 
HETATM  186  C   UNK N   1      23.569  12.062   9.890  0.00  0.00     0.001 A 
HETATM  187  C   UNK N   1      22.635  12.525  10.821  0.00  0.00     0.000 A 
HETATM  188  C   UNK N   1      21.340  12.840  10.408  0.00  0.00     0.001 A 
HETATM  189  C   UNK N   1      20.992  12.707   9.061  0.00  0.00     0.007 A 
ENDBRANCH 183 184
ENDBRANCH 182 183
BRANCH 182 190
HETATM  190  N   UNK N   1      20.089  13.917   5.718  0.00  0.00    -0.346 N 
HETATM  191  C   UNK N   1      19.255  13.286   4.858  0.00  0.00     0.241 C 
HETATM  192  O   UNK N   1      18.084  13.633   4.817  0.00  0.00    -0.271 OA
HETATM  193  H   UNK N   1      19.708  14.668   6.228  0.00  0.00     0.163 HD
BRANCH 191 194
HETATM  194  C   UNK N   1      19.747  12.203   3.926  0.00  0.00     0.182 C 
BRANCH 194 195
HETATM  195  C   UNK N   1      19.324  12.378   2.480  0.00  0.00     0.093 C 
BRANCH 195 196
HETATM  196  C   UNK N   1      20.363  13.243   1.862  0.00  0.00     0.028 A 
HETATM  197  N   UNK N   1      21.277  12.797   0.986  0.00  0.00    -0.354 N 
HETATM  198  C   UNK N   1      22.063  13.860   0.734  0.00  0.00     0.180 A 
HETATM  199  H   UNK N   1      21.356  11.891   0.610  0.00  0.00     0.166 HD
HETATM  200  N   UNK N   1      21.671  14.949   1.431  0.00  0.00    -0.360 N 
HETATM  201  C   UNK N   1      20.599  14.562   2.149  0.00  0.00     0.114 A 
ATOM    202  HN  UNK N   1      22.099  15.874   1.417  1.00  0.00     0.166 HD
ENDBRANCH 195 196
ENDBRANCH 194 195
BRANCH 194 203
HETATM  203  N   UNK N   1      19.525  10.866   4.415  0.00  0.00    -0.346 N 
HETATM  204  C   UNK N   1      20.244   9.785   4.063  0.00  0.00     0.241 C 
HETATM  205  O   UNK N   1      19.924   8.700   4.521  0.00  0.00    -0.271 OA
HETATM  206  H   UNK N   1      18.788  10.733   5.055  0.00  0.00     0.163 HD
BRANCH 204 207
HETATM  207  C   UNK N   1      21.429   9.912   3.118  0.00  0.00     0.177 C 
BRANCH 207 208
HETATM  208  C   UNK N   1      22.786  10.148   3.808  0.00  0.00     0.045 C 
BRANCH 208 209
HETATM  209  C   UNK N   1      23.584  11.300   3.210  0.00  0.00     0.112 C 
BRANCH 209 210
HETATM  210  C   UNK N   1      24.519  10.802   2.153  0.00  0.00     0.139 C 
HETATM  211  O   UNK N   1      25.082  11.583   1.403  0.00  0.00    -0.650 OA
BRANCH 210 212
HETATM  212  O   UNK N   1      24.708   9.480   2.003  0.00  0.00    -0.776 OA
HETATM  213  H   UNK N   1      25.148   9.140   1.249  0.00  0.00     0.167 HD
ENDBRANCH 210 212
ENDBRANCH 209 210
ENDBRANCH 208 209
ENDBRANCH 207 208
BRANCH 207 214
HETATM  214  N   UNK N   1      21.521   8.766   2.234  0.00  0.00    -0.346 N 
HETATM  215  C   UNK N   1      21.518   8.921   0.891  0.00  0.00     0.241 C 
HETATM  216  O   UNK N   1      21.456  10.047   0.412  0.00  0.00    -0.271 OA
HETATM  217  H   UNK N   1      21.586   7.861   2.617  0.00  0.00     0.163 HD
BRANCH 215 218
HETATM  218  C   UNK N   1      21.494   7.738  -0.039  0.00  0.00     0.177 C 
BRANCH 218 219
HETATM  219  N   UNK N   1      21.212   6.598   0.778  0.00  0.00    -0.346 N 
HETATM  220  C   UNK N   1      22.151   5.630   0.820  0.00  0.00     0.243 C 
HETATM  221  O   UNK N   1      22.967   5.524  -0.090  0.00  0.00    -0.271 OA
HETATM  222  H   UNK N   1      20.372   6.525   1.288  0.00  0.00     0.163 HD
BRANCH 220 223
HETATM  223  C   UNK N   1      22.239   4.754   2.023  0.00  0.00     0.200 C 
BRANCH 223 224
HETATM  224  N   UNK N   1      23.574   4.958   2.509  0.00  0.00    -0.344 N 
HETATM  225  C   UNK N   1      24.042   4.161   3.497  0.00  0.00     0.241 C 
HETATM  226  O   UNK N   1      23.639   3.010   3.605  0.00  0.00    -0.271 OA
HETATM  227  H   UNK N   1      24.141   5.666   2.127  0.00  0.00     0.163 HD
BRANCH 225 228
HETATM  228  C   UNK N   1      24.897   4.719   4.583  0.00  0.00     0.180 C 
BRANCH 228 229
HETATM  229  C   UNK N   1      25.452   3.653   5.546  0.00  0.00     0.073 C 
BRANCH 229 230
HETATM  230  C   UNK N   1      26.275   4.314   6.607  0.00  0.00    -0.056 A 
HETATM  231  C   UNK N   1      27.451   4.980   6.242  0.00  0.00     0.010 A 
HETATM  232  C   UNK N   1      28.236   5.606   7.205  0.00  0.00     0.037 A 
HETATM  233  C   UNK N   1      27.842   5.589   8.540  0.00  0.00     0.065 A 
HETATM  234  C   UNK N   1      26.659   4.942   8.917  0.00  0.00     0.037 A 
HETATM  235  C   UNK N   1      25.875   4.297   7.951  0.00  0.00     0.010 A 
BRANCH 233 236
HETATM  236  O   UNK N   1      28.608   6.188   9.463  0.00  0.00    -0.361 OA
HETATM  237  H   UNK N   1      29.335   5.738   9.845  0.00  0.00     0.217 HD
ENDBRANCH 233 236
ENDBRANCH 229 230
ENDBRANCH 228 229
BRANCH 228 238
HETATM  238  N   UNK N   1      24.098   5.751   5.156  0.00  0.00    -0.346 N 
HETATM  239  C   UNK N   1      24.299   7.070   5.068  0.00  0.00     0.242 C 
HETATM  240  O   UNK N   1      24.863   7.576   4.108  0.00  0.00    -0.271 OA
HETATM  241  H   UNK N   1      23.313   5.461   5.674  0.00  0.00     0.163 HD
BRANCH 239 242
HETATM  242  C   UNK N   1      24.073   7.815   6.331  0.00  0.00     0.191 C 
BRANCH 242 243
HETATM  243  N   UNK N   1      25.271   7.854   7.145  0.00  0.00    -0.417 N 
HETATM  244  H   UNK N   1      26.192   7.441   6.992  0.00  0.00     0.150 HD
HETATM  245  H   UNK N   1      25.179   8.381   8.013  0.00  0.00     0.150 HD
ENDBRANCH 242 243
BRANCH 242 246
HETATM  246  C   UNK N   1      22.992   6.993   7.048  0.00  0.00     0.198 C 
BRANCH 246 247
HETATM  247  O   UNK N   1      21.756   7.097   6.423  0.00  0.00    -0.398 OA
HETATM  248  H   UNK N   1      21.655   6.859   5.488  0.00  0.00     0.209 HD
ENDBRANCH 246 247
ENDBRANCH 242 246
ENDBRANCH 239 242
ENDBRANCH 228 238
ENDBRANCH 225 228
ENDBRANCH 223 224
BRANCH 223 249
HETATM  249  C   UNK N   1      21.127   5.103   3.022  0.00  0.00     0.199 C 
BRANCH 249 250
HETATM  250  O   UNK N   1      21.400   6.307   3.660  0.00  0.00    -0.398 OA
HETATM  251  H   UNK N   1      20.936   6.978   4.184  0.00  0.00     0.209 HD
ENDBRANCH 249 250
ENDBRANCH 223 249
ENDBRANCH 220 223
ENDBRANCH 218 219
BRANCH 218 252
HETATM  252  C   UNK N   1      20.495   7.895  -1.148  0.00  0.00     0.045 C 
BRANCH 252 253
HETATM  253  C   UNK N   1      21.188   7.576  -2.449  0.00  0.00     0.076 C 
BRANCH 253 254
HETATM  254  S   UNK N   1      22.776   8.450  -2.630  0.00  0.00    -0.173 SA
HETATM  255  C   UNK N   1      23.566   6.967  -3.317  0.00  0.00     0.089 C 
ENDBRANCH 253 254
ENDBRANCH 252 253
ENDBRANCH 218 252
ENDBRANCH 215 218
ENDBRANCH 207 214
ENDBRANCH 204 207
ENDBRANCH 194 203
ENDBRANCH 191 194
ENDBRANCH 182 190
ENDBRANCH 179 182
ENDBRANCH 165 178
ENDBRANCH 162 165
ENDBRANCH 149 161
ENDBRANCH 146 149
ENDBRANCH 144 145
ENDBRANCH 141 144
ENDBRANCH 139 140
BRANCH 139 256
HETATM  256  C   UNK N   1      29.546  17.207   6.727  0.00  0.00     0.035 C 
BRANCH 256 257
HETATM  257  C   UNK N   1      28.192  17.827   6.964  0.00  0.00     0.004 C 
BRANCH 257 258
HETATM  258  C   UNK N   1      28.251  18.655   8.233  0.00  0.00     0.019 C 
BRANCH 258 259
HETATM  259  C   UNK N   1      28.907  17.879   9.361  0.00  0.00     0.111 C 
BRANCH 259 260
HETATM  260  N   UNK N   1      30.035  18.624   9.892  0.00  0.00    -0.430 N 
HETATM  261  H   UNK N   1      30.057  19.314  10.644  0.00  0.00     0.149 HD
HETATM  262  H   UNK N   1      30.935  18.430   9.450  0.00  0.00     0.149 HD
ENDBRANCH 259 260
ENDBRANCH 258 259
ENDBRANCH 257 258
ENDBRANCH 256 257
ENDBRANCH 139 256
ENDBRANCH   1 139
TORSDOF 104
ENDMDL
MODEL 4
REMARK VINA RESULT:      -5.2      1.983      4.455
REMARK WARNING: 32 MAX_TORS EXCEEDED!!!
REMARK  104 active torsions:
REMARK  status: ('A' for Active; 'I' for Inactive)
REMARK    1  A    between atoms: C_2  and  C_1 
REMARK       I    between atoms: C_1  and  N_7 
REMARK    2  A    between atoms: C_2  and  N_4 
REMARK    3  A    between atoms: C_5  and  C_2 
REMARK    4  A    between atoms: O_6  and  C_5 
REMARK    5  A    between atoms: C_10  and  N_7 
REMARK    6  A    between atoms: C_10  and  C_8 
REMARK       I    between atoms: C_8  and  N_19 
REMARK    7  A    between atoms: C_11  and  C_10 
REMARK    8  A    between atoms: C_12  and  C_11 
REMARK    9  A    between atoms: O_18  and  C_16 
REMARK   10  A    between atoms: C_21  and  N_19 
REMARK   11  A    between atoms: C_21  and  C_20 
REMARK       I    between atoms: C_20  and  N_25 
REMARK   12  A    between atoms: C_23  and  C_21 
REMARK   13  A    between atoms: O_24  and  C_23 
REMARK   14  A    between atoms: C_28  and  N_25 
REMARK   15  A    between atoms: C_28  and  C_26 
REMARK       I    between atoms: C_26  and  N_33 
REMARK   16  A    between atoms: C_30  and  C_28 
REMARK   17  A    between atoms: C_31  and  S_29 
REMARK   18  A    between atoms: C_31  and  C_30 
REMARK   19  A    between atoms: C_37  and  N_33 
REMARK   20  A    between atoms: C_37  and  C_34 
REMARK       I    between atoms: C_34  and  N_42 
REMARK   21  A    between atoms: C_40  and  C_35 
REMARK   22  A    between atoms: O_41  and  C_35 
REMARK   23  A    between atoms: C_39  and  C_37 
REMARK   24  A    between atoms: C_40  and  C_39 
REMARK   25  A    between atoms: C_45  and  N_42 
REMARK   26  A    between atoms: C_45  and  C_43 
REMARK       I    between atoms: C_43  and  N_53 
REMARK   27  A    between atoms: C_46  and  C_45 
REMARK   28  A    between atoms: C_47  and  C_46 
REMARK   29  A    between atoms: C_55  and  N_53 
REMARK   30  A    between atoms: C_55  and  C_54 
REMARK       I    between atoms: C_54  and  N_64 
REMARK   31  A    between atoms: C_57  and  C_55 
REMARK   32  A    between atoms: C_58  and  C_57 
REMARK   33  A    between atoms: C_71  and  N_64 
REMARK       I    between atoms: N_70  and  C_65 
REMARK       I    between atoms: N_72  and  C_65 
REMARK   34  A    between atoms: C_71  and  C_66 
REMARK       I    between atoms: C_66  and  N_76 
REMARK   35  A    between atoms: C_73  and  N_70 
REMARK   36  A    between atoms: C_74  and  C_71 
REMARK   37  A    between atoms: C_75  and  C_73 
REMARK   38  A    between atoms: C_75  and  C_74 
REMARK   39  A    between atoms: C_79  and  N_76 
REMARK   40  A    between atoms: C_79  and  C_77 
REMARK       I    between atoms: C_77  and  N_90 
REMARK   41  A    between atoms: C_80  and  C_79 
REMARK   42  A    between atoms: C_81  and  C_80 
REMARK   43  A    between atoms: N_90  and  C_93 
REMARK   44  A    between atoms: C_93  and  C_91 
REMARK       I    between atoms: C_91  and  N_94 
REMARK   45  A    between atoms: C_97  and  N_94 
REMARK       I    between atoms: N_96  and  C_95 
REMARK   46  A    between atoms: C_97  and  C_95 
REMARK   47  A    between atoms: C_100  and  C_97 
REMARK   48  A    between atoms: C_99  and  N_98 
REMARK   49  A    between atoms: C_101  and  C_99 
REMARK   50  A    between atoms: C_102  and  C_100 
REMARK   51  A    between atoms: C_102  and  C_101 
REMARK   52  A    between atoms: C_104  and  C_108 
REMARK       I    between atoms: C_108  and  N_110 
REMARK   53  A    between atoms: C_112  and  N_110 
REMARK   54  A    between atoms: C_112  and  C_111 
REMARK       I    between atoms: C_111  and  N_117 
REMARK   55  A    between atoms: C_114  and  C_112 
REMARK   56  A    between atoms: N_117  and  C_120 
REMARK   57  A    between atoms: C_120  and  C_118 
REMARK       I    between atoms: C_118  and  N_121 
REMARK   58  A    between atoms: C_124  and  N_121 
REMARK   59  A    between atoms: C_124  and  C_122 
REMARK       I    between atoms: C_122  and  N_130 
REMARK   60  A    between atoms: C_127  and  C_124 
REMARK   61  A    between atoms: C_126  and  N_125 
REMARK   62  A    between atoms: C_128  and  C_126 
REMARK   63  A    between atoms: C_129  and  C_127 
REMARK   64  A    between atoms: C_129  and  C_128 
REMARK   65  A    between atoms: C_133  and  N_130 
REMARK   66  A    between atoms: C_133  and  C_131 
REMARK       I    between atoms: C_131  and  N_139 
REMARK   67  A    between atoms: C_136  and  C_133 
REMARK   68  A    between atoms: C_135  and  N_134 
REMARK   69  A    between atoms: C_137  and  C_135 
REMARK   70  A    between atoms: C_138  and  C_136 
REMARK   71  A    between atoms: C_138  and  C_137 
REMARK   72  A    between atoms: C_146  and  N_139 
REMARK       I    between atoms: N_145  and  C_140 
REMARK       I    between atoms: N_147  and  C_140 
REMARK   73  A    between atoms: C_146  and  C_141 
REMARK       I    between atoms: C_141  and  N_151 
REMARK   74  A    between atoms: C_148  and  N_145 
REMARK   75  A    between atoms: C_149  and  C_146 
REMARK   76  A    between atoms: C_150  and  C_148 
REMARK   77  A    between atoms: C_150  and  C_149 
REMARK   78  A    between atoms: C_158  and  N_151 
REMARK       I    between atoms: N_157  and  C_152 
REMARK       I    between atoms: N_159  and  C_152 
REMARK   79  A    between atoms: C_158  and  C_153 
REMARK       I    between atoms: N_156  and  C_153 
REMARK   80  A    between atoms: C_160  and  N_157 
REMARK   81  A    between atoms: C_161  and  C_158 
REMARK   82  A    between atoms: C_162  and  C_160 
REMARK   83  A    between atoms: C_162  and  C_161 
REMARK   84  A    between atoms: C_164  and  C_168 
REMARK       I    between atoms: C_168  and  N_170 
REMARK   85  A    between atoms: C_172  and  N_170 
REMARK   86  A    between atoms: C_172  and  C_171 
REMARK       I    between atoms: C_171  and  N_177 
REMARK   87  A    between atoms: C_174  and  C_172 
REMARK   88  A    between atoms: C_180  and  N_177 
REMARK   89  A    between atoms: C_180  and  C_178 
REMARK       I    between atoms: C_178  and  N_186 
REMARK   90  A    between atoms: C_183  and  C_180 
REMARK   91  A    between atoms: C_182  and  N_181 
REMARK   92  A    between atoms: C_184  and  C_182 
REMARK   93  A    between atoms: C_185  and  C_183 
REMARK   94  A    between atoms: C_185  and  C_184 
REMARK   95  A    between atoms: C_188  and  N_186 
REMARK   96  A    between atoms: C_188  and  C_187 
REMARK       I    between atoms: C_187  and  N_193 
REMARK   97  A    between atoms: C_190  and  C_188 
REMARK   98  A    between atoms: C_196  and  N_193 
REMARK       I    between atoms: N_195  and  C_194 
REMARK   99  A    between atoms: C_196  and  C_194 
REMARK  100  A    between atoms: C_197  and  C_196 
REMARK  101  A    between atoms: C_198  and  C_197 
REMARK  102  A    between atoms: O_204  and  C_202 
REMARK  103  A    between atoms: C_206  and  C_210 
REMARK  104  A    between atoms: C_210  and  O_212 
ROOT
HETATM    1  C   UNK N   1      35.834  12.788   4.436  0.00  0.00     0.243 C 
HETATM    2  N   UNK N   1      37.180  13.023   4.293  0.00  0.00    -0.337 N 
HETATM    3  O   UNK N   1      35.314  11.848   3.850  0.00  0.00    -0.271 OA
HETATM    4  C   UNK N   1      37.886  14.003   5.074  0.00  0.00     0.179 C 
HETATM    5  C   UNK N   1      37.995  12.296   3.366  0.00  0.00     0.127 C 
HETATM    6  C   UNK N   1      39.338  13.013   3.376  0.00  0.00     0.022 C 
HETATM    7  C   UNK N   1      39.242  14.147   4.398  0.00  0.00     0.037 C 
ENDROOT
BRANCH   4   8
HETATM    8  C   UNK N   1      38.011  13.369   6.426  0.00  0.00     0.241 C 
HETATM    9  O   UNK N   1      37.604  13.971   7.408  0.00  0.00    -0.271 OA
HETATM   10  N   UNK N   1      38.883  12.345   6.555  0.00  0.00    -0.346 N 
HETATM   11  H   UNK N   1      39.016  11.756   5.778  0.00  0.00     0.163 HD
BRANCH  10  12
HETATM   12  C   UNK N   1      39.634  12.052   7.759  0.00  0.00     0.180 C 
BRANCH  12  13
HETATM   13  C   UNK N   1      39.074  11.146   8.842  0.00  0.00     0.241 C 
HETATM   14  O   UNK N   1      39.013   9.947   8.624  0.00  0.00    -0.271 OA
HETATM   15  N   UNK N   1      38.568  11.622  10.009  0.00  0.00    -0.351 N 
HETATM   16  H   UNK N   1      38.124  10.984  10.613  0.00  0.00     0.163 HD
BRANCH  15  17
HETATM   17  C   UNK N   1      38.641  13.005  10.421  0.00  0.00     0.225 C 
BRANCH  17  18
HETATM   18  C   UNK N   1      37.493  13.248  11.324  0.00  0.00     0.236 C 
HETATM   19  O   UNK N   1      36.407  13.557  10.854  0.00  0.00    -0.272 OA
HETATM   20  N   UNK N   1      37.621  12.939  12.637  0.00  0.00    -0.346 N 
HETATM   21  H   UNK N   1      38.522  12.889  13.031  0.00  0.00     0.163 HD
BRANCH  20  22
HETATM   22  C   UNK N   1      36.480  12.683  13.467  0.00  0.00     0.176 C 
BRANCH  22  23
HETATM   23  C   UNK N   1      36.208  11.211  13.346  0.00  0.00     0.241 C 
HETATM   24  O   UNK N   1      35.062  10.803  13.217  0.00  0.00    -0.271 OA
HETATM   25  N   UNK N   1      37.224  10.344  13.505  0.00  0.00    -0.346 N 
HETATM   26  H   UNK N   1      38.138  10.694  13.611  0.00  0.00     0.163 HD
BRANCH  25  27
HETATM   27  C   UNK N   1      37.013   8.919  13.524  0.00  0.00     0.176 C 
BRANCH  27  28
HETATM   28  C   UNK N   1      37.553   8.284  12.278  0.00  0.00     0.241 C 
HETATM   29  O   UNK N   1      38.704   8.520  11.955  0.00  0.00    -0.271 OA
HETATM   30  N   UNK N   1      36.819   7.435  11.519  0.00  0.00    -0.346 N 
HETATM   31  H   UNK N   1      37.220   7.095  10.686  0.00  0.00     0.163 HD
BRANCH  30  32
HETATM   32  C   UNK N   1      35.480   6.994  11.855  0.00  0.00     0.176 C 
BRANCH  32  33
HETATM   33  C   UNK N   1      35.320   5.687  12.616  0.00  0.00     0.241 C 
HETATM   34  O   UNK N   1      35.560   5.652  13.810  0.00  0.00    -0.271 OA
HETATM   35  N   UNK N   1      34.888   4.562  11.984  0.00  0.00    -0.346 N 
HETATM   36  H   UNK N   1      34.702   3.747  12.503  0.00  0.00     0.163 HD
BRANCH  35  37
HETATM   37  C   UNK N   1      34.702   4.565  10.551  0.00  0.00     0.176 C 
BRANCH  37  38
HETATM   38  C   UNK N   1      35.736   3.625   9.943  0.00  0.00     0.243 C 
HETATM   39  N   UNK N   1      36.803   4.097   9.243  0.00  0.00    -0.337 N 
HETATM   40  C   UNK N   1      36.781   5.367   8.582  0.00  0.00     0.179 C 
HETATM   41  C   UNK N   1      37.915   3.260   8.889  0.00  0.00     0.127 C 
HETATM   42  C   UNK N   1      38.224   5.566   8.145  0.00  0.00     0.037 C 
HETATM   43  C   UNK N   1      38.851   4.169   8.116  0.00  0.00     0.022 C 
HETATM   44  O   UNK N   1      35.689   2.435  10.227  0.00  0.00    -0.271 OA
BRANCH  40  45
HETATM   45  C   UNK N   1      35.930   5.146   7.351  0.00  0.00     0.241 C 
HETATM   46  O   UNK N   1      35.730   4.022   6.915  0.00  0.00    -0.271 OA
HETATM   47  N   UNK N   1      35.379   6.240   6.764  0.00  0.00    -0.346 N 
HETATM   48  H   UNK N   1      35.564   7.112   7.185  0.00  0.00     0.163 HD
BRANCH  47  49
HETATM   49  C   UNK N   1      34.561   6.249   5.602  0.00  0.00     0.180 C 
BRANCH  49  50
HETATM   50  C   UNK N   1      33.120   6.175   6.021  0.00  0.00     0.241 C 
HETATM   51  O   UNK N   1      32.755   6.649   7.087  0.00  0.00    -0.271 OA
HETATM   52  N   UNK N   1      32.229   5.515   5.236  0.00  0.00    -0.346 N 
HETATM   53  H   UNK N   1      31.294   5.440   5.536  0.00  0.00     0.163 HD
BRANCH  52  54
HETATM   54  C   UNK N   1      32.612   4.912   3.965  0.00  0.00     0.176 C 
BRANCH  54  55
HETATM   55  C   UNK N   1      31.861   5.632   2.893  0.00  0.00     0.241 C 
HETATM   56  O   UNK N   1      31.394   5.031   1.939  0.00  0.00    -0.271 OA
HETATM   57  N   UNK N   1      31.914   6.971   2.937  0.00  0.00    -0.346 N 
HETATM   58  H   UNK N   1      32.143   7.330   3.825  0.00  0.00     0.163 HD
BRANCH  57  59
HETATM   59  C   UNK N   1      31.702   7.982   1.942  0.00  0.00     0.180 C 
BRANCH  59  60
HETATM   60  C   UNK N   1      30.788   8.954   2.629  0.00  0.00     0.241 C 
HETATM   61  O   UNK N   1      30.956   9.221   3.811  0.00  0.00    -0.271 OA
HETATM   62  N   UNK N   1      29.705   9.446   1.994  0.00  0.00    -0.346 N 
HETATM   63  H   UNK N   1      29.127  10.078   2.479  0.00  0.00     0.163 HD
BRANCH  62  64
HETATM   64  C   UNK N   1      29.347   9.093   0.634  0.00  0.00     0.181 C 
BRANCH  64  65
HETATM   65  C   UNK N   1      28.440   7.885   0.499  0.00  0.00     0.243 C 
HETATM   66  N   UNK N   1      28.704   6.825  -0.323  0.00  0.00    -0.336 N 
HETATM   67  C   UNK N   1      27.774   5.761  -0.536  0.00  0.00     0.185 C 
HETATM   68  C   UNK N   1      29.933   6.682  -1.070  0.00  0.00     0.127 C 
HETATM   69  C   UNK N   1      28.590   4.660  -1.194  0.00  0.00     0.038 C 
HETATM   70  C   UNK N   1      29.830   5.338  -1.764  0.00  0.00     0.022 C 
HETATM   71  O   UNK N   1      27.389   7.875   1.152  0.00  0.00    -0.271 OA
BRANCH  67  72
HETATM   72  C   UNK N   1      26.680   6.265  -1.456  0.00  0.00     0.163 C 
HETATM   73  O   UNK N   1      26.969   6.905  -2.453  0.00  0.00    -0.648 OA
BRANCH  72  74
HETATM   74  O   UNK N   1      25.387   5.976  -1.209  0.00  0.00    -0.775 OA
HETATM   75  H   UNK N   1      24.670   6.569  -1.095  0.00  0.00     0.167 HD
ENDBRANCH  72  74
ENDBRANCH  67  72
ENDBRANCH  64  65
BRANCH  64  76
HETATM   76  C   UNK N   1      28.914  10.314  -0.182  0.00  0.00     0.073 C 
BRANCH  76  77
HETATM   77  C   UNK N   1      30.003  10.697  -1.127  0.00  0.00    -0.056 A 
HETATM   78  C   UNK N   1      30.003  10.176  -2.424  0.00  0.00     0.010 A 
HETATM   79  C   UNK N   1      30.978  10.581  -3.340  0.00  0.00     0.037 A 
HETATM   80  C   UNK N   1      31.954  11.508  -2.958  0.00  0.00     0.065 A 
HETATM   81  C   UNK N   1      31.966  12.016  -1.657  0.00  0.00     0.037 A 
HETATM   82  C   UNK N   1      30.993  11.611  -0.743  0.00  0.00     0.010 A 
BRANCH  80  83
HETATM   83  O   UNK N   1      32.876  11.914  -3.844  0.00  0.00    -0.361 OA
HETATM   84  H   UNK N   1      33.036  12.827  -3.988  0.00  0.00     0.217 HD
ENDBRANCH  80  83
ENDBRANCH  76  77
ENDBRANCH  64  76
ENDBRANCH  62  64
ENDBRANCH  59  60
BRANCH  59  85
HETATM   85  C   UNK N   1      32.891   8.666   1.222  0.00  0.00     0.009 C 
HETATM   86  C   UNK N   1      33.195  10.076   1.690  0.00  0.00     0.012 C 
HETATM   87  C   UNK N   1      32.922   8.562  -0.286  0.00  0.00     0.012 C 
ENDBRANCH  59  85
ENDBRANCH  57  59
ENDBRANCH  54  55
BRANCH  54  88
HETATM   88  C   UNK N   1      32.195   3.444   3.973  0.00  0.00     0.035 C 
BRANCH  88  89
HETATM   89  C   UNK N   1      33.370   2.473   3.918  0.00  0.00     0.004 C 
BRANCH  89  90
HETATM   90  C   UNK N   1      33.982   2.337   2.534  0.00  0.00     0.019 C 
BRANCH  90  91
HETATM   91  C   UNK N   1      35.213   3.218   2.462  0.00  0.00     0.111 C 
BRANCH  91  92
HETATM   92  N   UNK N   1      36.083   2.933   3.587  0.00  0.00    -0.430 N 
HETATM   93  H   UNK N   1      36.680   2.200   3.967  0.00  0.00     0.149 HD
HETATM   94  H   UNK N   1      36.104   3.741   4.210  0.00  0.00     0.149 HD
ENDBRANCH  91  92
ENDBRANCH  90  91
ENDBRANCH  89  90
ENDBRANCH  88  89
ENDBRANCH  54  88
ENDBRANCH  52  54
ENDBRANCH  49  50
BRANCH  49  95
HETATM   95  C   UNK N   1      34.922   7.417   4.680  0.00  0.00     0.009 C 
HETATM   96  C   UNK N   1      35.804   6.917   3.555  0.00  0.00     0.012 C 
HETATM   97  C   UNK N   1      35.650   8.537   5.410  0.00  0.00     0.012 C 
ENDBRANCH  49  95
ENDBRANCH  47  49
ENDBRANCH  40  45
ENDBRANCH  37  38
BRANCH  37  98
HETATM   98  C   UNK N   1      33.253   4.390  10.082  0.00  0.00     0.036 C 
BRANCH  98  99
HETATM   99  C   UNK N   1      32.164   4.429  11.162  0.00  0.00     0.023 C 
BRANCH  99 100
HETATM  100  C   UNK N   1      30.837   5.028  10.711  0.00  0.00     0.138 C 
BRANCH 100 101
HETATM  101  N   UNK N   1      31.040   5.892   9.573  0.00  0.00    -0.227 N 
HETATM  102  C   UNK N   1      30.202   7.002   9.281  0.00  0.00     0.665 C 
HETATM  103  N   UNK N   1      30.500   7.783   8.310  0.00  0.00    -0.235 N 
HETATM  104  N   UNK N   1      29.074   7.287  10.084  0.00  0.00    -0.235 N 
HETATM  105  H   UNK N   1      29.936   8.427   7.824  0.00  0.00     0.174 HD
ATOM    106  HN  UNK N   1      31.468   7.729   7.992  1.00  0.00     0.174 HD
HETATM  107  H   UNK N   1      29.147   7.348  11.064  0.00  0.00     0.174 HD
HETATM  108  H   UNK N   1      28.200   7.427   9.655  0.00  0.00     0.174 HD
HETATM  109  H   UNK N   1      31.796   5.705   8.971  0.00  0.00     0.177 HD
ENDBRANCH 100 101
ENDBRANCH  99 100
ENDBRANCH  98  99
ENDBRANCH  37  98
ENDBRANCH  35  37
ENDBRANCH  32  33
BRANCH  32 110
HETATM  110  C   UNK N   1      34.333   7.916  11.442  0.00  0.00     0.036 C 
BRANCH 110 111
HETATM  111  C   UNK N   1      34.139   7.856   9.930  0.00  0.00     0.023 C 
BRANCH 111 112
HETATM  112  C   UNK N   1      34.894   8.952   9.198  0.00  0.00     0.138 C 
BRANCH 112 113
HETATM  113  N   UNK N   1      34.921  10.160   9.991  0.00  0.00    -0.227 N 
HETATM  114  C   UNK N   1      33.905  11.148   9.917  0.00  0.00     0.665 C 
HETATM  115  N   UNK N   1      33.974  12.185  10.665  0.00  0.00    -0.235 N 
HETATM  116  N   UNK N   1      32.820  11.004   9.021  0.00  0.00    -0.235 N 
HETATM  117  H   UNK N   1      33.801  12.440  11.601  0.00  0.00     0.174 HD
ATOM    118  HN  UNK N   1      34.309  12.988  10.133  1.00  0.00     0.174 HD
HETATM  119  H   UNK N   1      32.671  11.660   8.303  0.00  0.00     0.174 HD
HETATM  120  H   UNK N   1      32.208  10.239   9.117  0.00  0.00     0.174 HD
HETATM  121  H   UNK N   1      35.674  10.303  10.607  0.00  0.00     0.177 HD
ENDBRANCH 112 113
ENDBRANCH 111 112
ENDBRANCH 110 111
ENDBRANCH  32 110
ENDBRANCH  30  32
ENDBRANCH  27  28
BRANCH  27 122
HETATM  122  C   UNK N   1      37.630   8.312  14.767  0.00  0.00     0.035 C 
BRANCH 122 123
HETATM  123  C   UNK N   1      37.031   8.917  16.019  0.00  0.00     0.004 C 
BRANCH 123 124
HETATM  124  C   UNK N   1      35.603   8.461  16.213  0.00  0.00     0.019 C 
BRANCH 124 125
HETATM  125  C   UNK N   1      35.586   7.404  17.296  0.00  0.00     0.111 C 
BRANCH 125 126
HETATM  126  N   UNK N   1      35.317   6.106  16.708  0.00  0.00    -0.430 N 
HETATM  127  H   UNK N   1      34.894   5.226  17.002  0.00  0.00     0.149 HD
HETATM  128  H   UNK N   1      35.639   6.061  15.742  0.00  0.00     0.149 HD
ENDBRANCH 125 126
ENDBRANCH 124 125
ENDBRANCH 123 124
ENDBRANCH 122 123
ENDBRANCH  27 122
ENDBRANCH  25  27
ENDBRANCH  22  23
BRANCH  22 129
HETATM  129  C   UNK N   1      36.807  13.068  14.906  0.00  0.00     0.035 C 
BRANCH 129 130
HETATM  130  C   UNK N   1      35.543  13.308  15.710  0.00  0.00     0.004 C 
BRANCH 130 131
HETATM  131  C   UNK N   1      35.415  12.267  16.806  0.00  0.00     0.019 C 
BRANCH 131 132
HETATM  132  C   UNK N   1      35.194  12.926  18.152  0.00  0.00     0.111 C 
BRANCH 132 133
HETATM  133  N   UNK N   1      35.539  14.330  18.062  0.00  0.00    -0.430 N 
HETATM  134  H   UNK N   1      36.351  14.922  17.890  0.00  0.00     0.149 HD
HETATM  135  H   UNK N   1      34.712  14.905  18.218  0.00  0.00     0.149 HD
ENDBRANCH 132 133
ENDBRANCH 131 132
ENDBRANCH 130 131
ENDBRANCH 129 130
ENDBRANCH  22 129
ENDBRANCH  20  22
ENDBRANCH  17  18
ENDBRANCH  15  17
ENDBRANCH  12  13
BRANCH  12 136
HETATM  136  C   UNK N   1      41.123  12.355   7.629  0.00  0.00     0.009 C 
HETATM  137  C   UNK N   1      41.653  12.087   6.233  0.00  0.00     0.012 C 
HETATM  138  C   UNK N   1      41.955  11.652   8.681  0.00  0.00     0.012 C 
ENDBRANCH  12 136
ENDBRANCH  10  12
ENDBRANCH   4   8
BRANCH   1 139
HETATM  139  C   UNK N   1      34.958  13.812   5.160  0.00  0.00     0.176 C 
BRANCH 139 140
HETATM  140  N   UNK N   1      34.038  14.241   4.118  0.00  0.00    -0.346 N 
HETATM  141  C   UNK N   1      33.494  15.481   4.178  0.00  0.00     0.236 C 
HETATM  142  O   UNK N   1      34.038  16.349   4.830  0.00  0.00    -0.272 OA
HETATM  143  H   UNK N   1      33.811  13.635   3.376  0.00  0.00     0.163 HD
BRANCH 141 144
HETATM  144  C   UNK N   1      32.084  15.693   3.797  0.00  0.00     0.225 C 
BRANCH 144 145
HETATM  145  N   UNK N   1      31.371  14.538   4.312  0.00  0.00    -0.351 N 
HETATM  146  C   UNK N   1      30.072  14.512   4.749  0.00  0.00     0.241 C 
HETATM  147  O   UNK N   1      29.652  13.484   5.255  0.00  0.00    -0.271 OA
HETATM  148  H   UNK N   1      31.870  13.690   4.352  0.00  0.00     0.163 HD
BRANCH 146 149
HETATM  149  C   UNK N   1      29.100  15.676   4.605  0.00  0.00     0.181 C 
BRANCH 149 150
HETATM  150  C   UNK N   1      29.696  17.018   5.092  0.00  0.00     0.075 C 
BRANCH 150 151
HETATM  151  C   UNK N   1      28.917  17.878   6.070  0.00  0.00    -0.028 A 
HETATM  152  C   UNK N   1      28.787  17.733   7.454  0.00  0.00     0.096 A 
HETATM  153  N   UNK N   1      27.972  18.696   7.946  0.00  0.00    -0.365 N 
HETATM  154  C   UNK N   1      27.609  19.446   6.893  0.00  0.00     0.042 A 
HETATM  155  H   UNK N   1      27.702  18.822   8.884  0.00  0.00     0.165 HD
HETATM  156  C   UNK N   1      28.172  18.981   5.738  0.00  0.00    -0.002 A 
HETATM  157  C   UNK N   1      26.777  20.560   6.914  0.00  0.00     0.030 A 
HETATM  158  C   UNK N   1      27.946  19.603   4.512  0.00  0.00     0.014 A 
HETATM  159  C   UNK N   1      27.116  20.739   4.497  0.00  0.00     0.001 A 
HETATM  160  C   UNK N   1      26.530  21.214   5.694  0.00  0.00     0.002 A 
ENDBRANCH 150 151
ENDBRANCH 149 150
BRANCH 149 161
HETATM  161  N   UNK N   1      28.486  15.753   3.306  0.00  0.00    -0.346 N 
HETATM  162  C   UNK N   1      27.162  15.627   3.059  0.00  0.00     0.241 C 
HETATM  163  O   UNK N   1      26.782  15.676   1.901  0.00  0.00    -0.271 OA
HETATM  164  H   UNK N   1      29.077  15.911   2.534  0.00  0.00     0.163 HD
BRANCH 162 165
HETATM  165  C   UNK N   1      26.137  15.420   4.145  0.00  0.00     0.176 C 
BRANCH 165 166
HETATM  166  C   UNK N   1      25.545  16.536   4.995  0.00  0.00     0.036 C 
BRANCH 166 167
HETATM  167  C   UNK N   1      24.909  17.589   4.111  0.00  0.00     0.023 C 
BRANCH 167 168
HETATM  168  C   UNK N   1      24.086  18.571   4.932  0.00  0.00     0.138 C 
BRANCH 168 169
HETATM  169  N   UNK N   1      23.152  17.889   5.796  0.00  0.00    -0.227 N 
HETATM  170  C   UNK N   1      21.748  17.974   5.615  0.00  0.00     0.665 C 
HETATM  171  N   UNK N   1      20.970  17.286   6.364  0.00  0.00    -0.235 N 
HETATM  172  N   UNK N   1      21.201  18.788   4.597  0.00  0.00    -0.235 N 
HETATM  173  H   UNK N   1      20.868  17.162   7.336  0.00  0.00     0.174 HD
ATOM    174  HN  UNK N   1      20.298  16.736   5.829  1.00  0.00     0.174 HD
HETATM  175  H   UNK N   1      20.522  18.421   3.985  0.00  0.00     0.174 HD
HETATM  176  H   UNK N   1      21.498  19.721   4.500  0.00  0.00     0.174 HD
HETATM  177  H   UNK N   1      23.502  17.345   6.538  0.00  0.00     0.177 HD
ENDBRANCH 168 169
ENDBRANCH 167 168
ENDBRANCH 166 167
ENDBRANCH 165 166
BRANCH 165 178
HETATM  178  N   UNK N   1      26.056  14.069   4.653  0.00  0.00    -0.346 N 
HETATM  179  C   UNK N   1      24.956  13.270   4.592  0.00  0.00     0.241 C 
HETATM  180  O   UNK N   1      25.000  12.178   5.133  0.00  0.00    -0.271 OA
HETATM  181  H   UNK N   1      26.863  13.697   5.078  0.00  0.00     0.163 HD
BRANCH 179 182
HETATM  182  C   UNK N   1      23.674  13.668   3.881  0.00  0.00     0.180 C 
BRANCH 182 183
HETATM  183  C   UNK N   1      22.820  14.536   4.810  0.00  0.00     0.073 C 
BRANCH 183 184
HETATM  184  C   UNK N   1      22.443  13.934   6.134  0.00  0.00    -0.056 A 
HETATM  185  C   UNK N   1      21.582  12.835   6.170  0.00  0.00     0.007 A 
HETATM  186  C   UNK N   1      21.334  12.183   7.383  0.00  0.00     0.001 A 
HETATM  187  C   UNK N   1      21.948  12.617   8.561  0.00  0.00     0.000 A 
HETATM  188  C   UNK N   1      22.803  13.719   8.533  0.00  0.00     0.001 A 
HETATM  189  C   UNK N   1      23.054  14.369   7.322  0.00  0.00     0.007 A 
ENDBRANCH 183 184
ENDBRANCH 182 183
BRANCH 182 190
HETATM  190  N   UNK N   1      23.913  14.358   2.627  0.00  0.00    -0.346 N 
HETATM  191  C   UNK N   1      23.816  13.840   1.379  0.00  0.00     0.241 C 
HETATM  192  O   UNK N   1      23.984  14.583   0.423  0.00  0.00    -0.271 OA
HETATM  193  H   UNK N   1      24.173  15.306   2.690  0.00  0.00     0.163 HD
BRANCH 191 194
HETATM  194  C   UNK N   1      23.552  12.371   1.149  0.00  0.00     0.182 C 
BRANCH 194 195
HETATM  195  C   UNK N   1      24.762  11.577   0.696  0.00  0.00     0.093 C 
BRANCH 195 196
HETATM  196  C   UNK N   1      24.419  10.151   0.937  0.00  0.00     0.028 A 
HETATM  197  N   UNK N   1      24.218   9.632   2.158  0.00  0.00    -0.354 N 
HETATM  198  C   UNK N   1      24.011   8.319   1.946  0.00  0.00     0.180 A 
HETATM  199  H   UNK N   1      24.223  10.106   3.020  0.00  0.00     0.166 HD
HETATM  200  N   UNK N   1      24.085   8.006   0.634  0.00  0.00    -0.360 N 
HETATM  201  C   UNK N   1      24.346   9.161  -0.008  0.00  0.00     0.114 A 
ATOM    202  HN  UNK N   1      23.967   7.084   0.215  1.00  0.00     0.166 HD
ENDBRANCH 195 196
ENDBRANCH 194 195
BRANCH 194 203
HETATM  203  N   UNK N   1      22.380  12.106   0.352  0.00  0.00    -0.346 N 
HETATM  204  C   UNK N   1      21.116  12.104   0.814  0.00  0.00     0.241 C 
HETATM  205  O   UNK N   1      20.216  11.823   0.039  0.00  0.00    -0.271 OA
HETATM  206  H   UNK N   1      22.516  11.910  -0.604  0.00  0.00     0.163 HD
BRANCH 204 207
HETATM  207  C   UNK N   1      20.816  12.445   2.265  0.00  0.00     0.177 C 
BRANCH 207 208
HETATM  208  C   UNK N   1      19.996  13.732   2.472  0.00  0.00     0.045 C 
BRANCH 208 209
HETATM  209  C   UNK N   1      19.116  13.703   3.716  0.00  0.00     0.112 C 
BRANCH 209 210
HETATM  210  C   UNK N   1      19.128  15.032   4.403  0.00  0.00     0.139 C 
HETATM  211  O   UNK N   1      18.798  15.129   5.575  0.00  0.00    -0.650 OA
BRANCH 210 212
HETATM  212  O   UNK N   1      19.467  16.133   3.711  0.00  0.00    -0.776 OA
HETATM  213  H   UNK N   1      20.296  16.549   3.847  0.00  0.00     0.167 HD
ENDBRANCH 210 212
ENDBRANCH 209 210
ENDBRANCH 208 209
ENDBRANCH 207 208
BRANCH 207 214
HETATM  214  N   UNK N   1      20.171  11.337   2.943  0.00  0.00    -0.346 N 
HETATM  215  C   UNK N   1      20.893  10.439   3.650  0.00  0.00     0.241 C 
HETATM  216  O   UNK N   1      22.107  10.572   3.737  0.00  0.00    -0.271 OA
HETATM  217  H   UNK N   1      19.193  11.238   2.886  0.00  0.00     0.163 HD
BRANCH 215 218
HETATM  218  C   UNK N   1      20.253   9.220   4.260  0.00  0.00     0.177 C 
BRANCH 218 219
HETATM  219  N   UNK N   1      20.893   9.030   5.525  0.00  0.00    -0.346 N 
HETATM  220  C   UNK N   1      21.636   7.913   5.672  0.00  0.00     0.243 C 
HETATM  221  O   UNK N   1      21.430   6.939   4.955  0.00  0.00    -0.271 OA
HETATM  222  H   UNK N   1      20.797   9.685   6.255  0.00  0.00     0.163 HD
BRANCH 220 223
HETATM  223  C   UNK N   1      22.762   7.912   6.649  0.00  0.00     0.200 C 
BRANCH 223 224
HETATM  224  N   UNK N   1      23.530   6.752   6.297  0.00  0.00    -0.344 N 
HETATM  225  C   UNK N   1      24.129   6.038   7.278  0.00  0.00     0.241 C 
HETATM  226  O   UNK N   1      23.635   5.992   8.397  0.00  0.00    -0.271 OA
HETATM  227  H   UNK N   1      23.619   6.479   5.356  0.00  0.00     0.163 HD
BRANCH 225 228
HETATM  228  C   UNK N   1      25.490   5.463   7.078  0.00  0.00     0.180 C 
BRANCH 228 229
HETATM  229  C   UNK N   1      26.488   5.830   8.192  0.00  0.00     0.073 C 
BRANCH 229 230
HETATM  230  C   UNK N   1      26.924   4.588   8.906  0.00  0.00    -0.056 A 
HETATM  231  C   UNK N   1      26.139   4.095   9.956  0.00  0.00     0.010 A 
HETATM  232  C   UNK N   1      26.516   2.942  10.637  0.00  0.00     0.037 A 
HETATM  233  C   UNK N   1      27.669   2.259  10.262  0.00  0.00     0.065 A 
HETATM  234  C   UNK N   1      28.453   2.730   9.201  0.00  0.00     0.037 A 
HETATM  235  C   UNK N   1      28.084   3.901   8.525  0.00  0.00     0.010 A 
BRANCH 233 236
HETATM  236  O   UNK N   1      28.029   1.153  10.928  0.00  0.00    -0.361 OA
HETATM  237  H   UNK N   1      27.384   0.610  11.336  0.00  0.00     0.217 HD
ENDBRANCH 233 236
ENDBRANCH 229 230
ENDBRANCH 228 229
BRANCH 228 238
HETATM  238  N   UNK N   1      25.836   5.849   5.751  0.00  0.00    -0.346 N 
HETATM  239  C   UNK N   1      26.853   5.387   5.016  0.00  0.00     0.242 C 
HETATM  240  O   UNK N   1      27.299   4.258   5.165  0.00  0.00    -0.271 OA
HETATM  241  H   UNK N   1      25.264   6.530   5.329  0.00  0.00     0.163 HD
BRANCH 239 242
HETATM  242  C   UNK N   1      27.582   6.426   4.247  0.00  0.00     0.191 C 
BRANCH 242 243
HETATM  243  N   UNK N   1      28.526   5.835   3.320  0.00  0.00    -0.417 N 
HETATM  244  H   UNK N   1      29.109   6.265   2.602  0.00  0.00     0.150 HD
HETATM  245  H   UNK N   1      28.623   4.823   3.400  0.00  0.00     0.150 HD
ENDBRANCH 242 243
BRANCH 242 246
HETATM  246  C   UNK N   1      28.344   7.208   5.327  0.00  0.00     0.198 C 
BRANCH 246 247
HETATM  247  O   UNK N   1      29.709   6.957   5.289  0.00  0.00    -0.398 OA
HETATM  248  H   UNK N   1      30.277   7.421   4.654  0.00  0.00     0.209 HD
ENDBRANCH 246 247
ENDBRANCH 242 246
ENDBRANCH 239 242
ENDBRANCH 228 238
ENDBRANCH 225 228
ENDBRANCH 223 224
BRANCH 223 249
HETATM  249  C   UNK N   1      23.529   9.240   6.584  0.00  0.00     0.199 C 
BRANCH 249 250
HETATM  250  O   UNK N   1      24.018   9.462   5.302  0.00  0.00    -0.398 OA
HETATM  251  H   UNK N   1      23.758   9.297   4.382  0.00  0.00     0.209 HD
ENDBRANCH 249 250
ENDBRANCH 223 249
ENDBRANCH 220 223
ENDBRANCH 218 219
BRANCH 218 252
HETATM  252  C   UNK N   1      18.765   9.358   4.399  0.00  0.00     0.045 C 
BRANCH 252 253
HETATM  253  C   UNK N   1      18.126   8.131   3.796  0.00  0.00     0.076 C 
BRANCH 253 254
HETATM  254  S   UNK N   1      17.982   8.234   1.984  0.00  0.00    -0.173 SA
HETATM  255  C   UNK N   1      17.010   9.762   2.102  0.00  0.00     0.089 C 
ENDBRANCH 253 254
ENDBRANCH 252 253
ENDBRANCH 218 252
ENDBRANCH 215 218
ENDBRANCH 207 214
ENDBRANCH 204 207
ENDBRANCH 194 203
ENDBRANCH 191 194
ENDBRANCH 182 190
ENDBRANCH 179 182
ENDBRANCH 165 178
ENDBRANCH 162 165
ENDBRANCH 149 161
ENDBRANCH 146 149
ENDBRANCH 144 145
ENDBRANCH 141 144
ENDBRANCH 139 140
BRANCH 139 256
HETATM  256  C   UNK N   1      34.179  13.176   6.332  0.00  0.00     0.035 C 
BRANCH 256 257
HETATM  257  C   UNK N   1      33.941  14.097   7.502  0.00  0.00     0.004 C 
BRANCH 257 258
HETATM  258  C   UNK N   1      32.447  14.289   7.674  0.00  0.00     0.019 C 
BRANCH 258 259
HETATM  259  C   UNK N   1      32.090  15.763   7.744  0.00  0.00     0.111 C 
BRANCH 259 260
HETATM  260  N   UNK N   1      33.294  16.573   7.675  0.00  0.00    -0.430 N 
HETATM  261  H   UNK N   1      34.270  16.287   7.755  0.00  0.00     0.149 HD
HETATM  262  H   UNK N   1      33.142  17.571   7.525  0.00  0.00     0.149 HD
ENDBRANCH 259 260
ENDBRANCH 258 259
ENDBRANCH 257 258
ENDBRANCH 256 257
ENDBRANCH 139 256
ENDBRANCH   1 139
TORSDOF 104
ENDMDL
MODEL 5
REMARK VINA RESULT:      -5.2      2.110      4.380
REMARK WARNING: 32 MAX_TORS EXCEEDED!!!
REMARK  104 active torsions:
REMARK  status: ('A' for Active; 'I' for Inactive)
REMARK    1  A    between atoms: C_2  and  C_1 
REMARK       I    between atoms: C_1  and  N_7 
REMARK    2  A    between atoms: C_2  and  N_4 
REMARK    3  A    between atoms: C_5  and  C_2 
REMARK    4  A    between atoms: O_6  and  C_5 
REMARK    5  A    between atoms: C_10  and  N_7 
REMARK    6  A    between atoms: C_10  and  C_8 
REMARK       I    between atoms: C_8  and  N_19 
REMARK    7  A    between atoms: C_11  and  C_10 
REMARK    8  A    between atoms: C_12  and  C_11 
REMARK    9  A    between atoms: O_18  and  C_16 
REMARK   10  A    between atoms: C_21  and  N_19 
REMARK   11  A    between atoms: C_21  and  C_20 
REMARK       I    between atoms: C_20  and  N_25 
REMARK   12  A    between atoms: C_23  and  C_21 
REMARK   13  A    between atoms: O_24  and  C_23 
REMARK   14  A    between atoms: C_28  and  N_25 
REMARK   15  A    between atoms: C_28  and  C_26 
REMARK       I    between atoms: C_26  and  N_33 
REMARK   16  A    between atoms: C_30  and  C_28 
REMARK   17  A    between atoms: C_31  and  S_29 
REMARK   18  A    between atoms: C_31  and  C_30 
REMARK   19  A    between atoms: C_37  and  N_33 
REMARK   20  A    between atoms: C_37  and  C_34 
REMARK       I    between atoms: C_34  and  N_42 
REMARK   21  A    between atoms: C_40  and  C_35 
REMARK   22  A    between atoms: O_41  and  C_35 
REMARK   23  A    between atoms: C_39  and  C_37 
REMARK   24  A    between atoms: C_40  and  C_39 
REMARK   25  A    between atoms: C_45  and  N_42 
REMARK   26  A    between atoms: C_45  and  C_43 
REMARK       I    between atoms: C_43  and  N_53 
REMARK   27  A    between atoms: C_46  and  C_45 
REMARK   28  A    between atoms: C_47  and  C_46 
REMARK   29  A    between atoms: C_55  and  N_53 
REMARK   30  A    between atoms: C_55  and  C_54 
REMARK       I    between atoms: C_54  and  N_64 
REMARK   31  A    between atoms: C_57  and  C_55 
REMARK   32  A    between atoms: C_58  and  C_57 
REMARK   33  A    between atoms: C_71  and  N_64 
REMARK       I    between atoms: N_70  and  C_65 
REMARK       I    between atoms: N_72  and  C_65 
REMARK   34  A    between atoms: C_71  and  C_66 
REMARK       I    between atoms: C_66  and  N_76 
REMARK   35  A    between atoms: C_73  and  N_70 
REMARK   36  A    between atoms: C_74  and  C_71 
REMARK   37  A    between atoms: C_75  and  C_73 
REMARK   38  A    between atoms: C_75  and  C_74 
REMARK   39  A    between atoms: C_79  and  N_76 
REMARK   40  A    between atoms: C_79  and  C_77 
REMARK       I    between atoms: C_77  and  N_90 
REMARK   41  A    between atoms: C_80  and  C_79 
REMARK   42  A    between atoms: C_81  and  C_80 
REMARK   43  A    between atoms: N_90  and  C_93 
REMARK   44  A    between atoms: C_93  and  C_91 
REMARK       I    between atoms: C_91  and  N_94 
REMARK   45  A    between atoms: C_97  and  N_94 
REMARK       I    between atoms: N_96  and  C_95 
REMARK   46  A    between atoms: C_97  and  C_95 
REMARK   47  A    between atoms: C_100  and  C_97 
REMARK   48  A    between atoms: C_99  and  N_98 
REMARK   49  A    between atoms: C_101  and  C_99 
REMARK   50  A    between atoms: C_102  and  C_100 
REMARK   51  A    between atoms: C_102  and  C_101 
REMARK   52  A    between atoms: C_104  and  C_108 
REMARK       I    between atoms: C_108  and  N_110 
REMARK   53  A    between atoms: C_112  and  N_110 
REMARK   54  A    between atoms: C_112  and  C_111 
REMARK       I    between atoms: C_111  and  N_117 
REMARK   55  A    between atoms: C_114  and  C_112 
REMARK   56  A    between atoms: N_117  and  C_120 
REMARK   57  A    between atoms: C_120  and  C_118 
REMARK       I    between atoms: C_118  and  N_121 
REMARK   58  A    between atoms: C_124  and  N_121 
REMARK   59  A    between atoms: C_124  and  C_122 
REMARK       I    between atoms: C_122  and  N_130 
REMARK   60  A    between atoms: C_127  and  C_124 
REMARK   61  A    between atoms: C_126  and  N_125 
REMARK   62  A    between atoms: C_128  and  C_126 
REMARK   63  A    between atoms: C_129  and  C_127 
REMARK   64  A    between atoms: C_129  and  C_128 
REMARK   65  A    between atoms: C_133  and  N_130 
REMARK   66  A    between atoms: C_133  and  C_131 
REMARK       I    between atoms: C_131  and  N_139 
REMARK   67  A    between atoms: C_136  and  C_133 
REMARK   68  A    between atoms: C_135  and  N_134 
REMARK   69  A    between atoms: C_137  and  C_135 
REMARK   70  A    between atoms: C_138  and  C_136 
REMARK   71  A    between atoms: C_138  and  C_137 
REMARK   72  A    between atoms: C_146  and  N_139 
REMARK       I    between atoms: N_145  and  C_140 
REMARK       I    between atoms: N_147  and  C_140 
REMARK   73  A    between atoms: C_146  and  C_141 
REMARK       I    between atoms: C_141  and  N_151 
REMARK   74  A    between atoms: C_148  and  N_145 
REMARK   75  A    between atoms: C_149  and  C_146 
REMARK   76  A    between atoms: C_150  and  C_148 
REMARK   77  A    between atoms: C_150  and  C_149 
REMARK   78  A    between atoms: C_158  and  N_151 
REMARK       I    between atoms: N_157  and  C_152 
REMARK       I    between atoms: N_159  and  C_152 
REMARK   79  A    between atoms: C_158  and  C_153 
REMARK       I    between atoms: N_156  and  C_153 
REMARK   80  A    between atoms: C_160  and  N_157 
REMARK   81  A    between atoms: C_161  and  C_158 
REMARK   82  A    between atoms: C_162  and  C_160 
REMARK   83  A    between atoms: C_162  and  C_161 
REMARK   84  A    between atoms: C_164  and  C_168 
REMARK       I    between atoms: C_168  and  N_170 
REMARK   85  A    between atoms: C_172  and  N_170 
REMARK   86  A    between atoms: C_172  and  C_171 
REMARK       I    between atoms: C_171  and  N_177 
REMARK   87  A    between atoms: C_174  and  C_172 
REMARK   88  A    between atoms: C_180  and  N_177 
REMARK   89  A    between atoms: C_180  and  C_178 
REMARK       I    between atoms: C_178  and  N_186 
REMARK   90  A    between atoms: C_183  and  C_180 
REMARK   91  A    between atoms: C_182  and  N_181 
REMARK   92  A    between atoms: C_184  and  C_182 
REMARK   93  A    between atoms: C_185  and  C_183 
REMARK   94  A    between atoms: C_185  and  C_184 
REMARK   95  A    between atoms: C_188  and  N_186 
REMARK   96  A    between atoms: C_188  and  C_187 
REMARK       I    between atoms: C_187  and  N_193 
REMARK   97  A    between atoms: C_190  and  C_188 
REMARK   98  A    between atoms: C_196  and  N_193 
REMARK       I    between atoms: N_195  and  C_194 
REMARK   99  A    between atoms: C_196  and  C_194 
REMARK  100  A    between atoms: C_197  and  C_196 
REMARK  101  A    between atoms: C_198  and  C_197 
REMARK  102  A    between atoms: O_204  and  C_202 
REMARK  103  A    between atoms: C_206  and  C_210 
REMARK  104  A    between atoms: C_210  and  O_212 
ROOT
HETATM    1  C   UNK N   1      34.465  13.020   3.983  0.00  0.00     0.243 C 
HETATM    2  N   UNK N   1      35.787  12.807   3.678  0.00  0.00    -0.337 N 
HETATM    3  O   UNK N   1      33.646  12.130   3.797  0.00  0.00    -0.271 OA
HETATM    4  C   UNK N   1      36.825  13.743   4.020  0.00  0.00     0.179 C 
HETATM    5  C   UNK N   1      36.243  11.625   3.010  0.00  0.00     0.127 C 
HETATM    6  C   UNK N   1      37.704  11.897   2.681  0.00  0.00     0.022 C 
HETATM    7  C   UNK N   1      38.050  13.275   3.248  0.00  0.00     0.037 C 
ENDROOT
BRANCH   4   8
HETATM    8  C   UNK N   1      37.005  13.562   5.496  0.00  0.00     0.241 C 
HETATM    9  O   UNK N   1      37.024  14.545   6.221  0.00  0.00    -0.271 OA
HETATM   10  N   UNK N   1      37.500  12.380   5.924  0.00  0.00    -0.346 N 
HETATM   11  H   UNK N   1      37.274  11.574   5.405  0.00  0.00     0.163 HD
BRANCH  10  12
HETATM   12  C   UNK N   1      38.340  12.214   7.093  0.00  0.00     0.180 C 
BRANCH  12  13
HETATM   13  C   UNK N   1      37.870  11.423   8.301  0.00  0.00     0.241 C 
HETATM   14  O   UNK N   1      37.745  10.214   8.192  0.00  0.00    -0.271 OA
HETATM   15  N   UNK N   1      37.510  12.013   9.470  0.00  0.00    -0.351 N 
HETATM   16  H   UNK N   1      37.113  11.445  10.169  0.00  0.00     0.163 HD
BRANCH  15  17
HETATM   17  C   UNK N   1      37.675  13.419   9.754  0.00  0.00     0.225 C 
BRANCH  17  18
HETATM   18  C   UNK N   1      36.705  13.762  10.821  0.00  0.00     0.236 C 
HETATM   19  O   UNK N   1      35.556  14.053  10.523  0.00  0.00    -0.272 OA
HETATM   20  N   UNK N   1      37.061  13.562  12.112  0.00  0.00    -0.346 N 
HETATM   21  H   UNK N   1      38.017  13.526  12.345  0.00  0.00     0.163 HD
BRANCH  20  22
HETATM   22  C   UNK N   1      36.083  13.400  13.148  0.00  0.00     0.176 C 
BRANCH  22  23
HETATM   23  C   UNK N   1      35.966  11.920  13.373  0.00  0.00     0.241 C 
HETATM   24  O   UNK N   1      34.883  11.420  13.641  0.00  0.00    -0.271 OA
HETATM   25  N   UNK N   1      37.084  11.173  13.398  0.00  0.00    -0.346 N 
HETATM   26  H   UNK N   1      37.946  11.596  13.183  0.00  0.00     0.163 HD
BRANCH  25  27
HETATM   27  C   UNK N   1      37.056   9.771  13.729  0.00  0.00     0.176 C 
BRANCH  27  28
HETATM   28  C   UNK N   1      37.861   8.975  12.747  0.00  0.00     0.241 C 
HETATM   29  O   UNK N   1      39.068   8.903  12.904  0.00  0.00    -0.271 OA
HETATM   30  N   UNK N   1      37.293   8.307  11.714  0.00  0.00    -0.346 N 
HETATM   31  H   UNK N   1      37.888   7.847  11.078  0.00  0.00     0.163 HD
BRANCH  30  32
HETATM   32  C   UNK N   1      35.864   8.227  11.484  0.00  0.00     0.176 C 
BRANCH  32  33
HETATM   33  C   UNK N   1      35.104   7.049  12.074  0.00  0.00     0.241 C 
HETATM   34  O   UNK N   1      35.030   6.924  13.284  0.00  0.00    -0.271 OA
HETATM   35  N   UNK N   1      34.482   6.148  11.265  0.00  0.00    -0.346 N 
HETATM   36  H   UNK N   1      33.918   5.443  11.657  0.00  0.00     0.163 HD
BRANCH  35  37
HETATM   37  C   UNK N   1      34.651   6.227   9.832  0.00  0.00     0.176 C 
BRANCH  37  38
HETATM   38  C   UNK N   1      35.621   5.128   9.415  0.00  0.00     0.243 C 
HETATM   39  N   UNK N   1      36.907   5.408   9.071  0.00  0.00    -0.337 N 
HETATM   40  C   UNK N   1      37.302   6.690   8.569  0.00  0.00     0.179 C 
HETATM   41  C   UNK N   1      37.899   4.380   8.927  0.00  0.00     0.127 C 
HETATM   42  C   UNK N   1      38.820   6.609   8.544  0.00  0.00     0.037 C 
HETATM   43  C   UNK N   1      39.163   5.118   8.526  0.00  0.00     0.022 C 
HETATM   44  O   UNK N   1      35.279   3.959   9.545  0.00  0.00    -0.271 OA
BRANCH  40  45
HETATM   45  C   UNK N   1      36.797   6.716   7.143  0.00  0.00     0.241 C 
HETATM   46  O   UNK N   1      36.580   5.683   6.529  0.00  0.00    -0.271 OA
HETATM   47  N   UNK N   1      36.573   7.933   6.580  0.00  0.00    -0.346 N 
HETATM   48  H   UNK N   1      36.747   8.723   7.141  0.00  0.00     0.163 HD
BRANCH  47  49
HETATM   49  C   UNK N   1      36.111   8.175   5.257  0.00  0.00     0.180 C 
BRANCH  49  50
HETATM   50  C   UNK N   1      35.038   9.227   5.302  0.00  0.00     0.241 C 
HETATM   51  O   UNK N   1      35.169  10.222   6.000  0.00  0.00    -0.271 OA
HETATM   52  N   UNK N   1      33.885   9.035   4.612  0.00  0.00    -0.346 N 
HETATM   53  H   UNK N   1      33.173   9.713   4.676  0.00  0.00     0.163 HD
BRANCH  52  54
HETATM   54  C   UNK N   1      33.665   7.858   3.780  0.00  0.00     0.176 C 
BRANCH  54  55
HETATM   55  C   UNK N   1      33.124   8.338   2.473  0.00  0.00     0.241 C 
HETATM   56  O   UNK N   1      32.301   9.238   2.424  0.00  0.00    -0.271 OA
HETATM   57  N   UNK N   1      33.432   7.593   1.401  0.00  0.00    -0.346 N 
HETATM   58  H   UNK N   1      34.229   7.030   1.526  0.00  0.00     0.163 HD
BRANCH  57  59
HETATM   59  C   UNK N   1      32.825   7.459   0.108  0.00  0.00     0.180 C 
BRANCH  59  60
HETATM   60  C   UNK N   1      33.963   7.003  -0.758  0.00  0.00     0.241 C 
HETATM   61  O   UNK N   1      34.698   6.100  -0.379  0.00  0.00    -0.271 OA
HETATM   62  N   UNK N   1      34.264   7.657  -1.899  0.00  0.00    -0.346 N 
HETATM   63  H   UNK N   1      35.020   7.330  -2.439  0.00  0.00     0.163 HD
BRANCH  62  64
HETATM   64  C   UNK N   1      33.533   8.816  -2.371  0.00  0.00     0.181 C 
BRANCH  64  65
HETATM   65  C   UNK N   1      34.313  10.116  -2.367  0.00  0.00     0.243 C 
HETATM   66  N   UNK N   1      34.116  11.117  -1.459  0.00  0.00    -0.336 N 
HETATM   67  C   UNK N   1      34.768  12.386  -1.552  0.00  0.00     0.185 C 
HETATM   68  C   UNK N   1      33.222  11.005  -0.329  0.00  0.00     0.127 C 
HETATM   69  C   UNK N   1      34.558  13.030  -0.190  0.00  0.00     0.038 C 
HETATM   70  C   UNK N   1      33.382  12.298   0.445  0.00  0.00     0.022 C 
HETATM   71  O   UNK N   1      35.158  10.287  -3.256  0.00  0.00    -0.271 OA
BRANCH  67  72
HETATM   72  C   UNK N   1      34.094  13.184  -2.651  0.00  0.00     0.163 C 
HETATM   73  O   UNK N   1      34.171  14.401  -2.656  0.00  0.00    -0.648 OA
BRANCH  72  74
HETATM   74  O   UNK N   1      33.445  12.560  -3.654  0.00  0.00    -0.775 OA
HETATM   75  H   UNK N   1      32.909  11.792  -3.610  0.00  0.00     0.167 HD
ENDBRANCH  72  74
ENDBRANCH  67  72
ENDBRANCH  64  65
BRANCH  64  76
HETATM   76  C   UNK N   1      32.775   8.527  -3.670  0.00  0.00     0.073 C 
BRANCH  76  77
HETATM   77  C   UNK N   1      31.314   8.437  -3.388  0.00  0.00    -0.056 A 
HETATM   78  C   UNK N   1      30.537   7.498  -4.073  0.00  0.00     0.010 A 
HETATM   79  C   UNK N   1      29.180   7.357  -3.766  0.00  0.00     0.037 A 
HETATM   80  C   UNK N   1      28.600   8.155  -2.775  0.00  0.00     0.065 A 
HETATM   81  C   UNK N   1      29.371   9.106  -2.102  0.00  0.00     0.037 A 
HETATM   82  C   UNK N   1      30.725   9.248  -2.409  0.00  0.00     0.010 A 
BRANCH  80  83
HETATM   83  O   UNK N   1      27.303   8.004  -2.465  0.00  0.00    -0.361 OA
HETATM   84  H   UNK N   1      26.635   8.406  -2.984  0.00  0.00     0.217 HD
ENDBRANCH  80  83
ENDBRANCH  76  77
ENDBRANCH  64  76
ENDBRANCH  62  64
ENDBRANCH  59  60
BRANCH  59  85
HETATM   85  C   UNK N   1      31.533   6.629  -0.094  0.00  0.00     0.009 C 
HETATM   86  C   UNK N   1      30.900   6.112   1.183  0.00  0.00     0.012 C 
HETATM   87  C   UNK N   1      31.571   5.564  -1.167  0.00  0.00     0.012 C 
ENDBRANCH  59  85
ENDBRANCH  57  59
ENDBRANCH  54  55
BRANCH  54  88
HETATM   88  C   UNK N   1      32.628   6.966   4.457  0.00  0.00     0.035 C 
BRANCH  88  89
HETATM   89  C   UNK N   1      32.952   5.477   4.372  0.00  0.00     0.004 C 
BRANCH  89  90
HETATM   90  C   UNK N   1      33.223   4.836   5.722  0.00  0.00     0.019 C 
BRANCH  90  91
HETATM   91  C   UNK N   1      33.910   3.504   5.493  0.00  0.00     0.111 C 
BRANCH  91  92
HETATM   92  N   UNK N   1      34.709   3.162   6.653  0.00  0.00    -0.430 N 
HETATM   93  H   UNK N   1      35.679   3.077   6.957  0.00  0.00     0.149 HD
HETATM   94  H   UNK N   1      34.092   2.927   7.431  0.00  0.00     0.149 HD
ENDBRANCH  91  92
ENDBRANCH  90  91
ENDBRANCH  89  90
ENDBRANCH  88  89
ENDBRANCH  54  88
ENDBRANCH  52  54
ENDBRANCH  49  50
BRANCH  49  95
HETATM   95  C   UNK N   1      37.277   8.459   4.307  0.00  0.00     0.009 C 
HETATM   96  C   UNK N   1      37.633   7.195   3.554  0.00  0.00     0.012 C 
HETATM   97  C   UNK N   1      38.517   8.961   5.033  0.00  0.00     0.012 C 
ENDBRANCH  49  95
ENDBRANCH  47  49
ENDBRANCH  40  45
ENDBRANCH  37  38
BRANCH  37  98
HETATM   98  C   UNK N   1      33.349   6.338   9.029  0.00  0.00     0.036 C 
BRANCH  98  99
HETATM   99  C   UNK N   1      32.039   6.108   9.794  0.00  0.00     0.023 C 
BRANCH  99 100
HETATM  100  C   UNK N   1      31.281   4.846   9.399  0.00  0.00     0.138 C 
BRANCH 100 101
HETATM  101  N   UNK N   1      32.204   3.766   9.147  0.00  0.00    -0.227 N 
HETATM  102  C   UNK N   1      32.298   2.615   9.975  0.00  0.00     0.665 C 
HETATM  103  N   UNK N   1      33.071   1.652   9.636  0.00  0.00    -0.235 N 
HETATM  104  N   UNK N   1      31.506   2.496  11.140  0.00  0.00    -0.235 N 
HETATM  105  H   UNK N   1      33.439   0.918  10.179  0.00  0.00     0.174 HD
ATOM    106  HN  UNK N   1      33.349   1.645   8.654  1.00  0.00     0.174 HD
HETATM  107  H   UNK N   1      30.532   2.639  11.112  0.00  0.00     0.174 HD
HETATM  108  H   UNK N   1      31.936   2.264  11.994  0.00  0.00     0.174 HD
HETATM  109  H   UNK N   1      32.797   3.829   8.364  0.00  0.00     0.177 HD
ENDBRANCH 100 101
ENDBRANCH  99 100
ENDBRANCH  98  99
ENDBRANCH  37  98
ENDBRANCH  35  37
ENDBRANCH  32  33
BRANCH  32 110
HETATM  110  C   UNK N   1      35.234   9.372  10.692  0.00  0.00     0.036 C 
BRANCH 110 111
HETATM  111  C   UNK N   1      33.751   9.483  11.033  0.00  0.00     0.023 C 
BRANCH 111 112
HETATM  112  C   UNK N   1      32.890   9.770   9.815  0.00  0.00     0.138 C 
BRANCH 112 113
HETATM  113  N   UNK N   1      32.418  11.135   9.843  0.00  0.00    -0.227 N 
HETATM  114  C   UNK N   1      33.061  12.184   9.134  0.00  0.00     0.665 C 
HETATM  115  N   UNK N   1      32.578  13.369   9.179  0.00  0.00    -0.235 N 
HETATM  116  N   UNK N   1      34.234  11.936   8.384  0.00  0.00    -0.235 N 
HETATM  117  H   UNK N   1      31.844  13.888   8.777  0.00  0.00     0.174 HD
ATOM    118  HN  UNK N   1      33.112  13.948   9.826  1.00  0.00     0.174 HD
HETATM  119  H   UNK N   1      35.080  12.383   8.612  0.00  0.00     0.174 HD
HETATM  120  H   UNK N   1      34.204  11.307   7.627  0.00  0.00     0.174 HD
HETATM  121  H   UNK N   1      31.618  11.347  10.375  0.00  0.00     0.177 HD
ENDBRANCH 112 113
ENDBRANCH 111 112
ENDBRANCH 110 111
ENDBRANCH  32 110
ENDBRANCH  30  32
ENDBRANCH  27  28
BRANCH  27 122
HETATM  122  C   UNK N   1      37.541   9.556  15.148  0.00  0.00     0.035 C 
BRANCH 122 123
HETATM  123  C   UNK N   1      36.547   8.735  15.942  0.00  0.00     0.004 C 
BRANCH 123 124
HETATM  124  C   UNK N   1      35.491   9.617  16.568  0.00  0.00     0.019 C 
BRANCH 124 125
HETATM  125  C   UNK N   1      36.046  10.177  17.860  0.00  0.00     0.111 C 
BRANCH 125 126
HETATM  126  N   UNK N   1      35.029  10.124  18.892  0.00  0.00    -0.430 N 
HETATM  127  H   UNK N   1      34.657   9.430  19.539  0.00  0.00     0.149 HD
HETATM  128  H   UNK N   1      34.561  11.024  19.001  0.00  0.00     0.149 HD
ENDBRANCH 125 126
ENDBRANCH 124 125
ENDBRANCH 123 124
ENDBRANCH 122 123
ENDBRANCH  27 122
ENDBRANCH  25  27
ENDBRANCH  22  23
BRANCH  22 129
HETATM  129  C   UNK N   1      36.561  14.114  14.409  0.00  0.00     0.035 C 
BRANCH 129 130
HETATM  130  C   UNK N   1      36.508  13.194  15.613  0.00  0.00     0.004 C 
BRANCH 130 131
HETATM  131  C   UNK N   1      35.295  13.515  16.465  0.00  0.00     0.019 C 
BRANCH 131 132
HETATM  132  C   UNK N   1      35.690  14.325  17.683  0.00  0.00     0.111 C 
BRANCH 132 133
HETATM  133  N   UNK N   1      35.227  13.652  18.878  0.00  0.00    -0.430 N 
HETATM  134  H   UNK N   1      34.377  13.233  19.255  0.00  0.00     0.149 HD
HETATM  135  H   UNK N   1      35.987  13.570  19.552  0.00  0.00     0.149 HD
ENDBRANCH 132 133
ENDBRANCH 131 132
ENDBRANCH 130 131
ENDBRANCH 129 130
ENDBRANCH  22 129
ENDBRANCH  20  22
ENDBRANCH  17  18
ENDBRANCH  15  17
ENDBRANCH  12  13
BRANCH  12 136
HETATM  136  C   UNK N   1      39.812  12.507   6.823  0.00  0.00     0.009 C 
HETATM  137  C   UNK N   1      40.741  11.595   7.602  0.00  0.00     0.012 C 
HETATM  138  C   UNK N   1      40.165  13.965   7.033  0.00  0.00     0.012 C 
ENDBRANCH  12 136
ENDBRANCH  10  12
ENDBRANCH   4   8
BRANCH   1 139
HETATM  139  C   UNK N   1      33.990  14.424   4.362  0.00  0.00     0.176 C 
BRANCH 139 140
HETATM  140  N   UNK N   1      32.790  14.585   3.556  0.00  0.00    -0.346 N 
HETATM  141  C   UNK N   1      32.401  15.828   3.179  0.00  0.00     0.236 C 
HETATM  142  O   UNK N   1      33.211  16.733   3.156  0.00  0.00    -0.272 OA
HETATM  143  H   UNK N   1      32.262  13.798   3.288  0.00  0.00     0.163 HD
BRANCH 141 144
HETATM  144  C   UNK N   1      30.970  16.188   3.167  0.00  0.00     0.225 C 
BRANCH 144 145
HETATM  145  N   UNK N   1      30.298  15.103   3.858  0.00  0.00    -0.351 N 
HETATM  146  C   UNK N   1      29.021  15.123   4.356  0.00  0.00     0.241 C 
HETATM  147  O   UNK N   1      28.639  14.165   5.008  0.00  0.00    -0.271 OA
HETATM  148  H   UNK N   1      30.809  14.271   3.982  0.00  0.00     0.163 HD
BRANCH 146 149
HETATM  149  C   UNK N   1      28.027  16.251   4.111  0.00  0.00     0.181 C 
BRANCH 149 150
HETATM  150  C   UNK N   1      28.611  17.645   4.441  0.00  0.00     0.075 C 
BRANCH 150 151
HETATM  151  C   UNK N   1      28.367  18.261   5.807  0.00  0.00    -0.028 A 
HETATM  152  C   UNK N   1      27.419  19.217   6.180  0.00  0.00     0.096 A 
HETATM  153  N   UNK N   1      27.560  19.523   7.492  0.00  0.00    -0.365 N 
HETATM  154  C   UNK N   1      28.569  18.760   7.942  0.00  0.00     0.042 A 
HETATM  155  H   UNK N   1      27.031  20.171   8.010  0.00  0.00     0.165 HD
HETATM  156  C   UNK N   1      29.077  17.975   6.945  0.00  0.00    -0.002 A 
HETATM  157  C   UNK N   1      29.071  18.726   9.238  0.00  0.00     0.030 A 
HETATM  158  C   UNK N   1      30.129  17.090   7.175  0.00  0.00     0.014 A 
HETATM  159  C   UNK N   1      30.656  17.024   8.477  0.00  0.00     0.001 A 
HETATM  160  C   UNK N   1      30.131  17.842   9.505  0.00  0.00     0.002 A 
ENDBRANCH 150 151
ENDBRANCH 149 150
BRANCH 149 161
HETATM  161  N   UNK N   1      27.386  16.182   2.824  0.00  0.00    -0.346 N 
HETATM  162  C   UNK N   1      26.125  15.749   2.603  0.00  0.00     0.241 C 
HETATM  163  O   UNK N   1      25.721  15.708   1.453  0.00  0.00    -0.271 OA
HETATM  164  H   UNK N   1      27.908  16.475   2.042  0.00  0.00     0.163 HD
BRANCH 162 165
HETATM  165  C   UNK N   1      25.198  15.308   3.707  0.00  0.00     0.176 C 
BRANCH 165 166
HETATM  166  C   UNK N   1      24.380  16.254   4.576  0.00  0.00     0.036 C 
BRANCH 166 167
HETATM  167  C   UNK N   1      24.325  17.630   3.947  0.00  0.00     0.023 C 
BRANCH 167 168
HETATM  168  C   UNK N   1      22.902  18.169   3.928  0.00  0.00     0.138 C 
BRANCH 168 169
HETATM  169  N   UNK N   1      21.958  17.161   3.507  0.00  0.00    -0.227 N 
HETATM  170  C   UNK N   1      20.642  17.481   3.085  0.00  0.00     0.665 C 
HETATM  171  N   UNK N   1      19.874  16.555   2.649  0.00  0.00    -0.235 N 
HETATM  172  N   UNK N   1      20.181  18.817   3.115  0.00  0.00    -0.235 N 
HETATM  173  H   UNK N   1      19.586  15.673   2.983  0.00  0.00     0.174 HD
ATOM    174  HN  UNK N   1      19.463  16.781   1.744  1.00  0.00     0.174 HD
HETATM  175  H   UNK N   1      19.744  19.205   2.323  0.00  0.00     0.174 HD
HETATM  176  H   UNK N   1      20.296  19.359   3.929  0.00  0.00     0.174 HD
HETATM  177  H   UNK N   1      22.238  16.217   3.512  0.00  0.00     0.177 HD
ENDBRANCH 168 169
ENDBRANCH 167 168
ENDBRANCH 166 167
ENDBRANCH 165 166
BRANCH 165 178
HETATM  178  N   UNK N   1      25.445  13.974   4.208  0.00  0.00    -0.346 N 
HETATM  179  C   UNK N   1      24.593  12.920   4.091  0.00  0.00     0.241 C 
HETATM  180  O   UNK N   1      24.892  11.868   4.632  0.00  0.00    -0.271 OA
HETATM  181  H   UNK N   1      26.299  13.816   4.673  0.00  0.00     0.163 HD
BRANCH 179 182
HETATM  182  C   UNK N   1      23.288  12.983   3.317  0.00  0.00     0.180 C 
BRANCH 182 183
HETATM  183  C   UNK N   1      22.264  13.807   4.103  0.00  0.00     0.073 C 
BRANCH 183 184
HETATM  184  C   UNK N   1      22.089  13.454   5.553  0.00  0.00    -0.056 A 
HETATM  185  C   UNK N   1      22.203  14.452   6.524  0.00  0.00     0.007 A 
HETATM  186  C   UNK N   1      21.907  14.162   7.860  0.00  0.00     0.001 A 
HETATM  187  C   UNK N   1      21.490  12.882   8.234  0.00  0.00     0.000 A 
HETATM  188  C   UNK N   1      21.381  11.878   7.271  0.00  0.00     0.001 A 
HETATM  189  C   UNK N   1      21.673  12.167   5.935  0.00  0.00     0.007 A 
ENDBRANCH 183 184
ENDBRANCH 182 183
BRANCH 182 190
HETATM  190  N   UNK N   1      23.448  13.525   1.980  0.00  0.00    -0.346 N 
HETATM  191  C   UNK N   1      23.716  12.835   0.846  0.00  0.00     0.241 C 
HETATM  192  O   UNK N   1      23.750  13.441  -0.214  0.00  0.00    -0.271 OA
HETATM  193  H   UNK N   1      23.351  14.501   1.887  0.00  0.00     0.163 HD
BRANCH 191 194
HETATM  194  C   UNK N   1      24.013  11.353   0.871  0.00  0.00     0.182 C 
BRANCH 194 195
HETATM  195  C   UNK N   1      25.490  11.009   0.874  0.00  0.00     0.093 C 
BRANCH 195 196
HETATM  196  C   UNK N   1      25.576   9.624   1.409  0.00  0.00     0.028 A 
HETATM  197  N   UNK N   1      25.090   9.258   2.605  0.00  0.00    -0.354 N 
HETATM  198  C   UNK N   1      25.436   7.964   2.737  0.00  0.00     0.180 A 
HETATM  199  H   UNK N   1      24.591   9.813   3.246  0.00  0.00     0.166 HD
HETATM  200  N   UNK N   1      26.127   7.518   1.666  0.00  0.00    -0.360 N 
HETATM  201  C   UNK N   1      26.222   8.566   0.824  0.00  0.00     0.114 A 
ATOM    202  HN  UNK N   1      26.501   6.581   1.523  1.00  0.00     0.166 HD
ENDBRANCH 195 196
ENDBRANCH 194 195
BRANCH 194 203
HETATM  203  N   UNK N   1      23.264  10.591  -0.096  0.00  0.00    -0.346 N 
HETATM  204  C   UNK N   1      22.012  10.131   0.085  0.00  0.00     0.241 C 
HETATM  205  O   UNK N   1      21.506   9.462  -0.801  0.00  0.00    -0.271 OA
HETATM  206  H   UNK N   1      23.702  10.390  -0.955  0.00  0.00     0.163 HD
BRANCH 204 207
HETATM  207  C   UNK N   1      21.246  10.440   1.362  0.00  0.00     0.177 C 
BRANCH 207 208
HETATM  208  C   UNK N   1      19.943  11.235   1.160  0.00  0.00     0.045 C 
BRANCH 208 209
HETATM  209  C   UNK N   1      20.138  12.746   1.191  0.00  0.00     0.112 C 
BRANCH 209 210
HETATM  210  C   UNK N   1      18.845  13.451   0.928  0.00  0.00     0.139 C 
HETATM  211  O   UNK N   1      18.836  14.582   0.468  0.00  0.00    -0.650 OA
BRANCH 210 212
HETATM  212  O   UNK N   1      17.685  12.848   1.239  0.00  0.00    -0.776 OA
HETATM  213  H   UNK N   1      17.456  12.023   0.857  0.00  0.00     0.167 HD
ENDBRANCH 210 212
ENDBRANCH 209 210
ENDBRANCH 208 209
ENDBRANCH 207 208
BRANCH 207 214
HETATM  214  N   UNK N   1      20.971   9.231   2.115  0.00  0.00    -0.346 N 
HETATM  215  C   UNK N   1      21.633   8.960   3.262  0.00  0.00     0.241 C 
HETATM  216  O   UNK N   1      22.463   9.756   3.684  0.00  0.00    -0.271 OA
HETATM  217  H   UNK N   1      20.293   8.598   1.785  0.00  0.00     0.163 HD
BRANCH 215 218
HETATM  218  C   UNK N   1      21.444   7.657   3.992  0.00  0.00     0.177 C 
BRANCH 218 219
HETATM  219  N   UNK N   1      22.199   7.770   5.202  0.00  0.00    -0.346 N 
HETATM  220  C   UNK N   1      23.163   6.848   5.408  0.00  0.00     0.243 C 
HETATM  221  O   UNK N   1      23.109   5.763   4.836  0.00  0.00    -0.271 OA
HETATM  222  H   UNK N   1      22.024   8.487   5.854  0.00  0.00     0.163 HD
BRANCH 220 223
HETATM  223  C   UNK N   1      24.333   7.198   6.263  0.00  0.00     0.200 C 
BRANCH 223 224
HETATM  224  N   UNK N   1      25.420   6.454   5.692  0.00  0.00    -0.344 N 
HETATM  225  C   UNK N   1      26.542   6.266   6.423  0.00  0.00     0.241 C 
HETATM  226  O   UNK N   1      26.481   6.206   7.645  0.00  0.00    -0.271 OA
HETATM  227  H   UNK N   1      25.348   6.085   4.782  0.00  0.00     0.163 HD
BRANCH 225 228
HETATM  228  C   UNK N   1      27.887   6.325   5.781  0.00  0.00     0.180 C 
BRANCH 228 229
HETATM  229  C   UNK N   1      28.979   5.565   6.557  0.00  0.00     0.073 C 
BRANCH 229 230
HETATM  230  C   UNK N   1      29.457   4.403   5.744  0.00  0.00    -0.056 A 
HETATM  231  C   UNK N   1      29.426   4.491   4.347  0.00  0.00     0.010 A 
HETATM  232  C   UNK N   1      29.866   3.428   3.563  0.00  0.00     0.037 A 
HETATM  233  C   UNK N   1      30.360   2.276   4.169  0.00  0.00     0.065 A 
HETATM  234  C   UNK N   1      30.414   2.183   5.565  0.00  0.00     0.037 A 
HETATM  235  C   UNK N   1      29.956   3.245   6.357  0.00  0.00     0.010 A 
BRANCH 233 236
HETATM  236  O   UNK N   1      30.774   1.255   3.407  0.00  0.00    -0.361 OA
HETATM  237  H   UNK N   1      30.398   1.105   2.562  0.00  0.00     0.217 HD
ENDBRANCH 233 236
ENDBRANCH 229 230
ENDBRANCH 228 229
BRANCH 228 238
HETATM  238  N   UNK N   1      28.103   7.716   5.561  0.00  0.00    -0.346 N 
HETATM  239  C   UNK N   1      28.698   8.284   4.506  0.00  0.00     0.242 C 
HETATM  240  O   UNK N   1      28.680   7.767   3.398  0.00  0.00    -0.271 OA
HETATM  241  H   UNK N   1      27.780   8.327   6.263  0.00  0.00     0.163 HD
BRANCH 239 242
HETATM  242  C   UNK N   1      29.621   9.396   4.842  0.00  0.00     0.191 C 
BRANCH 242 243
HETATM  243  N   UNK N   1      30.117   9.280   6.199  0.00  0.00    -0.417 N 
HETATM  244  H   UNK N   1      31.071   9.292   6.561  0.00  0.00     0.150 HD
HETATM  245  H   UNK N   1      29.393   9.170   6.908  0.00  0.00     0.150 HD
ENDBRANCH 242 243
BRANCH 242 246
HETATM  246  C   UNK N   1      28.739  10.647   4.722  0.00  0.00     0.198 C 
BRANCH 246 247
HETATM  247  O   UNK N   1      27.424  10.331   4.407  0.00  0.00    -0.398 OA
HETATM  248  H   UNK N   1      27.107   9.417   4.475  0.00  0.00     0.209 HD
ENDBRANCH 246 247
ENDBRANCH 242 246
ENDBRANCH 239 242
ENDBRANCH 228 238
ENDBRANCH 225 228
ENDBRANCH 223 224
BRANCH 223 249
HETATM  249  C   UNK N   1      24.537   8.719   6.296  0.00  0.00     0.199 C 
BRANCH 249 250
HETATM  250  O   UNK N   1      23.858   9.281   7.370  0.00  0.00    -0.398 OA
HETATM  251  H   UNK N   1      23.494  10.140   7.635  0.00  0.00     0.209 HD
ENDBRANCH 249 250
ENDBRANCH 223 249
ENDBRANCH 220 223
ENDBRANCH 218 219
BRANCH 218 252
HETATM  252  C   UNK N   1      20.000   7.349   4.258  0.00  0.00     0.045 C 
BRANCH 252 253
HETATM  253  C   UNK N   1      19.709   5.973   3.714  0.00  0.00     0.076 C 
BRANCH 253 254
HETATM  254  S   UNK N   1      18.824   4.919   4.906  0.00  0.00    -0.173 SA
HETATM  255  C   UNK N   1      18.489   6.340   5.983  0.00  0.00     0.089 C 
ENDBRANCH 253 254
ENDBRANCH 252 253
ENDBRANCH 218 252
ENDBRANCH 215 218
ENDBRANCH 207 214
ENDBRANCH 204 207
ENDBRANCH 194 203
ENDBRANCH 191 194
ENDBRANCH 182 190
ENDBRANCH 179 182
ENDBRANCH 165 178
ENDBRANCH 162 165
ENDBRANCH 149 161
ENDBRANCH 146 149
ENDBRANCH 144 145
ENDBRANCH 141 144
ENDBRANCH 139 140
BRANCH 139 256
HETATM  256  C   UNK N   1      33.644  14.529   5.863  0.00  0.00     0.035 C 
BRANCH 256 257
HETATM  257  C   UNK N   1      33.751  15.919   6.437  0.00  0.00     0.004 C 
BRANCH 257 258
HETATM  258  C   UNK N   1      34.361  15.828   7.823  0.00  0.00     0.019 C 
BRANCH 258 259
HETATM  259  C   UNK N   1      34.349  17.179   8.514  0.00  0.00     0.111 C 
BRANCH 259 260
HETATM  260  N   UNK N   1      34.468  17.007   9.951  0.00  0.00    -0.430 N 
HETATM  261  H   UNK N   1      34.011  16.328  10.561  0.00  0.00     0.149 HD
HETATM  262  H   UNK N   1      35.100  17.659  10.419  0.00  0.00     0.149 HD
ENDBRANCH 259 260
ENDBRANCH 258 259
ENDBRANCH 257 258
ENDBRANCH 256 257
ENDBRANCH 139 256
ENDBRANCH   1 139
TORSDOF 104
ENDMDL
MODEL 6
REMARK VINA RESULT:      -5.2      2.223      5.031
REMARK WARNING: 32 MAX_TORS EXCEEDED!!!
REMARK  104 active torsions:
REMARK  status: ('A' for Active; 'I' for Inactive)
REMARK    1  A    between atoms: C_2  and  C_1 
REMARK       I    between atoms: C_1  and  N_7 
REMARK    2  A    between atoms: C_2  and  N_4 
REMARK    3  A    between atoms: C_5  and  C_2 
REMARK    4  A    between atoms: O_6  and  C_5 
REMARK    5  A    between atoms: C_10  and  N_7 
REMARK    6  A    between atoms: C_10  and  C_8 
REMARK       I    between atoms: C_8  and  N_19 
REMARK    7  A    between atoms: C_11  and  C_10 
REMARK    8  A    between atoms: C_12  and  C_11 
REMARK    9  A    between atoms: O_18  and  C_16 
REMARK   10  A    between atoms: C_21  and  N_19 
REMARK   11  A    between atoms: C_21  and  C_20 
REMARK       I    between atoms: C_20  and  N_25 
REMARK   12  A    between atoms: C_23  and  C_21 
REMARK   13  A    between atoms: O_24  and  C_23 
REMARK   14  A    between atoms: C_28  and  N_25 
REMARK   15  A    between atoms: C_28  and  C_26 
REMARK       I    between atoms: C_26  and  N_33 
REMARK   16  A    between atoms: C_30  and  C_28 
REMARK   17  A    between atoms: C_31  and  S_29 
REMARK   18  A    between atoms: C_31  and  C_30 
REMARK   19  A    between atoms: C_37  and  N_33 
REMARK   20  A    between atoms: C_37  and  C_34 
REMARK       I    between atoms: C_34  and  N_42 
REMARK   21  A    between atoms: C_40  and  C_35 
REMARK   22  A    between atoms: O_41  and  C_35 
REMARK   23  A    between atoms: C_39  and  C_37 
REMARK   24  A    between atoms: C_40  and  C_39 
REMARK   25  A    between atoms: C_45  and  N_42 
REMARK   26  A    between atoms: C_45  and  C_43 
REMARK       I    between atoms: C_43  and  N_53 
REMARK   27  A    between atoms: C_46  and  C_45 
REMARK   28  A    between atoms: C_47  and  C_46 
REMARK   29  A    between atoms: C_55  and  N_53 
REMARK   30  A    between atoms: C_55  and  C_54 
REMARK       I    between atoms: C_54  and  N_64 
REMARK   31  A    between atoms: C_57  and  C_55 
REMARK   32  A    between atoms: C_58  and  C_57 
REMARK   33  A    between atoms: C_71  and  N_64 
REMARK       I    between atoms: N_70  and  C_65 
REMARK       I    between atoms: N_72  and  C_65 
REMARK   34  A    between atoms: C_71  and  C_66 
REMARK       I    between atoms: C_66  and  N_76 
REMARK   35  A    between atoms: C_73  and  N_70 
REMARK   36  A    between atoms: C_74  and  C_71 
REMARK   37  A    between atoms: C_75  and  C_73 
REMARK   38  A    between atoms: C_75  and  C_74 
REMARK   39  A    between atoms: C_79  and  N_76 
REMARK   40  A    between atoms: C_79  and  C_77 
REMARK       I    between atoms: C_77  and  N_90 
REMARK   41  A    between atoms: C_80  and  C_79 
REMARK   42  A    between atoms: C_81  and  C_80 
REMARK   43  A    between atoms: N_90  and  C_93 
REMARK   44  A    between atoms: C_93  and  C_91 
REMARK       I    between atoms: C_91  and  N_94 
REMARK   45  A    between atoms: C_97  and  N_94 
REMARK       I    between atoms: N_96  and  C_95 
REMARK   46  A    between atoms: C_97  and  C_95 
REMARK   47  A    between atoms: C_100  and  C_97 
REMARK   48  A    between atoms: C_99  and  N_98 
REMARK   49  A    between atoms: C_101  and  C_99 
REMARK   50  A    between atoms: C_102  and  C_100 
REMARK   51  A    between atoms: C_102  and  C_101 
REMARK   52  A    between atoms: C_104  and  C_108 
REMARK       I    between atoms: C_108  and  N_110 
REMARK   53  A    between atoms: C_112  and  N_110 
REMARK   54  A    between atoms: C_112  and  C_111 
REMARK       I    between atoms: C_111  and  N_117 
REMARK   55  A    between atoms: C_114  and  C_112 
REMARK   56  A    between atoms: N_117  and  C_120 
REMARK   57  A    between atoms: C_120  and  C_118 
REMARK       I    between atoms: C_118  and  N_121 
REMARK   58  A    between atoms: C_124  and  N_121 
REMARK   59  A    between atoms: C_124  and  C_122 
REMARK       I    between atoms: C_122  and  N_130 
REMARK   60  A    between atoms: C_127  and  C_124 
REMARK   61  A    between atoms: C_126  and  N_125 
REMARK   62  A    between atoms: C_128  and  C_126 
REMARK   63  A    between atoms: C_129  and  C_127 
REMARK   64  A    between atoms: C_129  and  C_128 
REMARK   65  A    between atoms: C_133  and  N_130 
REMARK   66  A    between atoms: C_133  and  C_131 
REMARK       I    between atoms: C_131  and  N_139 
REMARK   67  A    between atoms: C_136  and  C_133 
REMARK   68  A    between atoms: C_135  and  N_134 
REMARK   69  A    between atoms: C_137  and  C_135 
REMARK   70  A    between atoms: C_138  and  C_136 
REMARK   71  A    between atoms: C_138  and  C_137 
REMARK   72  A    between atoms: C_146  and  N_139 
REMARK       I    between atoms: N_145  and  C_140 
REMARK       I    between atoms: N_147  and  C_140 
REMARK   73  A    between atoms: C_146  and  C_141 
REMARK       I    between atoms: C_141  and  N_151 
REMARK   74  A    between atoms: C_148  and  N_145 
REMARK   75  A    between atoms: C_149  and  C_146 
REMARK   76  A    between atoms: C_150  and  C_148 
REMARK   77  A    between atoms: C_150  and  C_149 
REMARK   78  A    between atoms: C_158  and  N_151 
REMARK       I    between atoms: N_157  and  C_152 
REMARK       I    between atoms: N_159  and  C_152 
REMARK   79  A    between atoms: C_158  and  C_153 
REMARK       I    between atoms: N_156  and  C_153 
REMARK   80  A    between atoms: C_160  and  N_157 
REMARK   81  A    between atoms: C_161  and  C_158 
REMARK   82  A    between atoms: C_162  and  C_160 
REMARK   83  A    between atoms: C_162  and  C_161 
REMARK   84  A    between atoms: C_164  and  C_168 
REMARK       I    between atoms: C_168  and  N_170 
REMARK   85  A    between atoms: C_172  and  N_170 
REMARK   86  A    between atoms: C_172  and  C_171 
REMARK       I    between atoms: C_171  and  N_177 
REMARK   87  A    between atoms: C_174  and  C_172 
REMARK   88  A    between atoms: C_180  and  N_177 
REMARK   89  A    between atoms: C_180  and  C_178 
REMARK       I    between atoms: C_178  and  N_186 
REMARK   90  A    between atoms: C_183  and  C_180 
REMARK   91  A    between atoms: C_182  and  N_181 
REMARK   92  A    between atoms: C_184  and  C_182 
REMARK   93  A    between atoms: C_185  and  C_183 
REMARK   94  A    between atoms: C_185  and  C_184 
REMARK   95  A    between atoms: C_188  and  N_186 
REMARK   96  A    between atoms: C_188  and  C_187 
REMARK       I    between atoms: C_187  and  N_193 
REMARK   97  A    between atoms: C_190  and  C_188 
REMARK   98  A    between atoms: C_196  and  N_193 
REMARK       I    between atoms: N_195  and  C_194 
REMARK   99  A    between atoms: C_196  and  C_194 
REMARK  100  A    between atoms: C_197  and  C_196 
REMARK  101  A    between atoms: C_198  and  C_197 
REMARK  102  A    between atoms: O_204  and  C_202 
REMARK  103  A    between atoms: C_206  and  C_210 
REMARK  104  A    between atoms: C_210  and  O_212 
ROOT
HETATM    1  C   UNK N   1      35.968  13.774   5.030  0.00  0.00     0.243 C 
HETATM    2  N   UNK N   1      37.340  13.792   4.978  0.00  0.00    -0.337 N 
HETATM    3  O   UNK N   1      35.339  13.049   4.270  0.00  0.00    -0.271 OA
HETATM    4  C   UNK N   1      38.146  14.490   5.944  0.00  0.00     0.179 C 
HETATM    5  C   UNK N   1      38.082  13.099   3.968  0.00  0.00     0.127 C 
HETATM    6  C   UNK N   1      39.522  13.559   4.152  0.00  0.00     0.022 C 
HETATM    7  C   UNK N   1      39.548  14.507   5.352  0.00  0.00     0.037 C 
ENDROOT
BRANCH   4   8
HETATM    8  C   UNK N   1      38.076  13.628   7.167  0.00  0.00     0.241 C 
HETATM    9  O   UNK N   1      37.592  14.084   8.192  0.00  0.00    -0.271 OA
HETATM   10  N   UNK N   1      38.868  12.534   7.204  0.00  0.00    -0.346 N 
HETATM   11  H   UNK N   1      39.058  12.077   6.353  0.00  0.00     0.163 HD
BRANCH  10  12
HETATM   12  C   UNK N   1      39.455  11.985   8.410  0.00  0.00     0.180 C 
BRANCH  12  13
HETATM   13  C   UNK N   1      38.653  11.105   9.352  0.00  0.00     0.241 C 
HETATM   14  O   UNK N   1      38.484   9.935   9.054  0.00  0.00    -0.271 OA
HETATM   15  N   UNK N   1      38.054  11.585  10.472  0.00  0.00    -0.351 N 
HETATM   16  H   UNK N   1      37.461  10.980  10.974  0.00  0.00     0.163 HD
BRANCH  15  17
HETATM   17  C   UNK N   1      38.230  12.928  10.976  0.00  0.00     0.225 C 
BRANCH  17  18
HETATM   18  C   UNK N   1      37.040  13.241  11.801  0.00  0.00     0.236 C 
HETATM   19  O   UNK N   1      35.969  13.466  11.257  0.00  0.00    -0.272 OA
HETATM   20  N   UNK N   1      37.121  13.085  13.144  0.00  0.00    -0.346 N 
HETATM   21  H   UNK N   1      38.005  13.103  13.576  0.00  0.00     0.163 HD
BRANCH  20  22
HETATM   22  C   UNK N   1      35.952  12.893  13.953  0.00  0.00     0.176 C 
BRANCH  22  23
HETATM   23  C   UNK N   1      35.556  11.457  13.766  0.00  0.00     0.241 C 
HETATM   24  O   UNK N   1      34.416  11.169  13.430  0.00  0.00    -0.271 OA
HETATM   25  N   UNK N   1      36.432  10.490  14.092  0.00  0.00    -0.346 N 
HETATM   26  H   UNK N   1      37.344  10.744  14.364  0.00  0.00     0.163 HD
BRANCH  25  27
HETATM   27  C   UNK N   1      36.076   9.095  14.054  0.00  0.00     0.176 C 
BRANCH  27  28
HETATM   28  C   UNK N   1      37.135   8.293  13.359  0.00  0.00     0.241 C 
HETATM   29  O   UNK N   1      38.299   8.465  13.675  0.00  0.00    -0.271 OA
HETATM   30  N   UNK N   1      36.841   7.363  12.418  0.00  0.00    -0.346 N 
HETATM   31  H   UNK N   1      37.590   6.911  11.966  0.00  0.00     0.163 HD
BRANCH  30  32
HETATM   32  C   UNK N   1      35.494   6.992  12.033  0.00  0.00     0.176 C 
BRANCH  32  33
HETATM   33  C   UNK N   1      35.067   5.543  12.211  0.00  0.00     0.241 C 
HETATM   34  O   UNK N   1      34.858   5.109  13.330  0.00  0.00    -0.271 OA
HETATM   35  N   UNK N   1      34.890   4.733  11.131  0.00  0.00    -0.346 N 
HETATM   36  H   UNK N   1      34.527   3.826  11.252  0.00  0.00     0.163 HD
BRANCH  35  37
HETATM   37  C   UNK N   1      35.236   5.204   9.810  0.00  0.00     0.176 C 
BRANCH  37  38
HETATM   38  C   UNK N   1      36.430   4.392   9.322  0.00  0.00     0.243 C 
HETATM   39  N   UNK N   1      37.665   4.949   9.195  0.00  0.00    -0.337 N 
HETATM   40  C   UNK N   1      37.852   6.354   8.988  0.00  0.00     0.179 C 
HETATM   41  C   UNK N   1      38.843   4.154   8.990  0.00  0.00     0.127 C 
HETATM   42  C   UNK N   1      39.354   6.538   9.136  0.00  0.00     0.037 C 
HETATM   43  C   UNK N   1      39.974   5.160   8.889  0.00  0.00     0.022 C 
HETATM   44  O   UNK N   1      36.306   3.181   9.194  0.00  0.00    -0.271 OA
BRANCH  40  45
HETATM   45  C   UNK N   1      37.479   6.582   7.540  0.00  0.00     0.241 C 
HETATM   46  O   UNK N   1      37.099   5.662   6.832  0.00  0.00    -0.271 OA
HETATM   47  N   UNK N   1      37.560   7.852   7.064  0.00  0.00    -0.346 N 
HETATM   48  H   UNK N   1      37.850   8.548   7.698  0.00  0.00     0.163 HD
BRANCH  47  49
HETATM   49  C   UNK N   1      37.265   8.275   5.739  0.00  0.00     0.180 C 
BRANCH  49  50
HETATM   50  C   UNK N   1      36.282   9.411   5.798  0.00  0.00     0.241 C 
HETATM   51  O   UNK N   1      36.547  10.433   6.414  0.00  0.00    -0.271 OA
HETATM   52  N   UNK N   1      35.063   9.271   5.217  0.00  0.00    -0.346 N 
HETATM   53  H   UNK N   1      34.413  10.006   5.291  0.00  0.00     0.163 HD
BRANCH  52  54
HETATM   54  C   UNK N   1      34.685   8.067   4.486  0.00  0.00     0.176 C 
BRANCH  54  55
HETATM   55  C   UNK N   1      34.009   8.508   3.230  0.00  0.00     0.241 C 
HETATM   56  O   UNK N   1      34.077   7.842   2.210  0.00  0.00    -0.271 OA
HETATM   57  N   UNK N   1      33.514   9.755   3.237  0.00  0.00    -0.346 N 
HETATM   58  H   UNK N   1      33.349  10.111   4.139  0.00  0.00     0.163 HD
BRANCH  57  59
HETATM   59  C   UNK N   1      33.179  10.670   2.184  0.00  0.00     0.180 C 
BRANCH  59  60
HETATM   60  C   UNK N   1      32.202  11.602   2.838  0.00  0.00     0.241 C 
HETATM   61  O   UNK N   1      32.476  12.123   3.911  0.00  0.00    -0.271 OA
HETATM   62  N   UNK N   1      30.969  11.781   2.319  0.00  0.00    -0.346 N 
HETATM   63  H   UNK N   1      30.355  12.398   2.779  0.00  0.00     0.163 HD
BRANCH  62  64
HETATM   64  C   UNK N   1      30.502  11.112   1.121  0.00  0.00     0.181 C 
BRANCH  64  65
HETATM   65  C   UNK N   1      29.544   9.961   1.357  0.00  0.00     0.243 C 
HETATM   66  N   UNK N   1      29.796   8.673   0.979  0.00  0.00    -0.336 N 
HETATM   67  C   UNK N   1      28.826   7.629   1.090  0.00  0.00     0.185 C 
HETATM   68  C   UNK N   1      31.054   8.239   0.414  0.00  0.00     0.127 C 
HETATM   69  C   UNK N   1      29.619   6.344   0.916  0.00  0.00     0.038 C 
HETATM   70  C   UNK N   1      30.920   6.741   0.229  0.00  0.00     0.022 C 
HETATM   71  O   UNK N   1      28.460  10.213   1.900  0.00  0.00    -0.271 OA
BRANCH  67  72
HETATM   72  C   UNK N   1      27.810   7.807  -0.019  0.00  0.00     0.163 C 
HETATM   73  O   UNK N   1      26.944   6.967  -0.195  0.00  0.00    -0.648 OA
BRANCH  72  74
HETATM   74  O   UNK N   1      27.822   8.912  -0.792  0.00  0.00    -0.775 OA
HETATM   75  H   UNK N   1      28.459   9.168  -1.430  0.00  0.00     0.167 HD
ENDBRANCH  72  74
ENDBRANCH  67  72
ENDBRANCH  64  65
BRANCH  64  76
HETATM   76  C   UNK N   1      30.057  12.107   0.045  0.00  0.00     0.073 C 
BRANCH  76  77
HETATM   77  C   UNK N   1      30.705  11.762  -1.254  0.00  0.00    -0.056 A 
HETATM   78  C   UNK N   1      32.008  12.199  -1.510  0.00  0.00     0.010 A 
HETATM   79  C   UNK N   1      32.650  11.823  -2.694  0.00  0.00     0.037 A 
HETATM   80  C   UNK N   1      31.990  11.009  -3.621  0.00  0.00     0.065 A 
HETATM   81  C   UNK N   1      30.682  10.586  -3.374  0.00  0.00     0.037 A 
HETATM   82  C   UNK N   1      30.040  10.962  -2.192  0.00  0.00     0.010 A 
BRANCH  80  83
HETATM   83  O   UNK N   1      32.615  10.630  -4.746  0.00  0.00    -0.361 OA
HETATM   84  H   UNK N   1      32.808   9.727  -4.907  0.00  0.00     0.217 HD
ENDBRANCH  80  83
ENDBRANCH  76  77
ENDBRANCH  64  76
ENDBRANCH  62  64
ENDBRANCH  59  60
BRANCH  59  85
HETATM   85  C   UNK N   1      34.276  11.405   1.375  0.00  0.00     0.009 C 
HETATM   86  C   UNK N   1      33.983  12.862   1.077  0.00  0.00     0.012 C 
HETATM   87  C   UNK N   1      34.818  10.686   0.159  0.00  0.00     0.012 C 
ENDBRANCH  59  85
ENDBRANCH  57  59
ENDBRANCH  54  55
BRANCH  54  88
HETATM   88  C   UNK N   1      33.700   7.267   5.334  0.00  0.00     0.035 C 
BRANCH  88  89
HETATM   89  C   UNK N   1      33.700   5.773   5.029  0.00  0.00     0.004 C 
BRANCH  89  90
HETATM   90  C   UNK N   1      32.466   5.306   4.275  0.00  0.00     0.019 C 
BRANCH  90  91
HETATM   91  C   UNK N   1      32.891   4.274   3.250  0.00  0.00     0.111 C 
BRANCH  91  92
HETATM   92  N   UNK N   1      33.487   4.938   2.107  0.00  0.00    -0.430 N 
HETATM   93  H   UNK N   1      34.317   5.463   1.833  0.00  0.00     0.149 HD
HETATM   94  H   UNK N   1      32.864   4.850   1.303  0.00  0.00     0.149 HD
ENDBRANCH  91  92
ENDBRANCH  90  91
ENDBRANCH  89  90
ENDBRANCH  88  89
ENDBRANCH  54  88
ENDBRANCH  52  54
ENDBRANCH  49  50
BRANCH  49  95
HETATM   95  C   UNK N   1      38.546   8.549   4.947  0.00  0.00     0.009 C 
HETATM   96  C   UNK N   1      39.553   9.240   5.841  0.00  0.00     0.012 C 
HETATM   97  C   UNK N   1      38.303   9.420   3.722  0.00  0.00     0.012 C 
ENDBRANCH  49  95
ENDBRANCH  47  49
ENDBRANCH  40  45
ENDBRANCH  37  38
BRANCH  37  98
HETATM   98  C   UNK N   1      34.057   5.347   8.840  0.00  0.00     0.036 C 
BRANCH  98  99
HETATM   99  C   UNK N   1      32.755   4.631   9.221  0.00  0.00     0.023 C 
BRANCH  99 100
HETATM  100  C   UNK N   1      31.657   5.543   9.758  0.00  0.00     0.138 C 
BRANCH 100 101
HETATM  101  N   UNK N   1      30.547   4.758  10.242  0.00  0.00    -0.227 N 
HETATM  102  C   UNK N   1      29.207   5.230  10.253  0.00  0.00     0.665 C 
HETATM  103  N   UNK N   1      28.261   4.443  10.605  0.00  0.00    -0.235 N 
HETATM  104  N   UNK N   1      28.900   6.542   9.825  0.00  0.00    -0.235 N 
HETATM  105  H   UNK N   1      27.345   4.652  10.899  0.00  0.00     0.174 HD
ATOM    106  HN  UNK N   1      28.491   3.450  10.578  1.00  0.00     0.174 HD
HETATM  107  H   UNK N   1      29.223   6.886   8.961  0.00  0.00     0.174 HD
HETATM  108  H   UNK N   1      28.353   7.122  10.401  0.00  0.00     0.174 HD
HETATM  109  H   UNK N   1      30.727   3.850  10.581  0.00  0.00     0.177 HD
ENDBRANCH 100 101
ENDBRANCH  99 100
ENDBRANCH  98  99
ENDBRANCH  37  98
ENDBRANCH  35  37
ENDBRANCH  32  33
BRANCH  32 110
HETATM  110  C   UNK N   1      34.597   8.115  11.514  0.00  0.00     0.036 C 
BRANCH 110 111
HETATM  111  C   UNK N   1      35.166   8.672  10.213  0.00  0.00     0.023 C 
BRANCH 111 112
HETATM  112  C   UNK N   1      35.397  10.172  10.269  0.00  0.00     0.138 C 
BRANCH 112 113
HETATM  113  N   UNK N   1      34.137  10.870  10.388  0.00  0.00    -0.227 N 
HETATM  114  C   UNK N   1      33.289  11.118   9.277  0.00  0.00     0.665 C 
HETATM  115  N   UNK N   1      32.172  11.720   9.454  0.00  0.00    -0.235 N 
HETATM  116  N   UNK N   1      33.666  10.714   7.976  0.00  0.00    -0.235 N 
HETATM  117  H   UNK N   1      31.265  11.522   9.780  0.00  0.00     0.174 HD
ATOM    118  HN  UNK N   1      32.245  12.698   9.173  1.00  0.00     0.174 HD
HETATM  119  H   UNK N   1      33.793  11.378   7.260  0.00  0.00     0.174 HD
HETATM  120  H   UNK N   1      33.805   9.759   7.783  0.00  0.00     0.174 HD
HETATM  121  H   UNK N   1      33.855  11.186  11.276  0.00  0.00     0.177 HD
ENDBRANCH 112 113
ENDBRANCH 111 112
ENDBRANCH 110 111
ENDBRANCH  32 110
ENDBRANCH  30  32
ENDBRANCH  27  28
BRANCH  27 122
HETATM  122  C   UNK N   1      35.821   8.578  15.455  0.00  0.00     0.035 C 
BRANCH 122 123
HETATM  123  C   UNK N   1      36.568   9.402  16.482  0.00  0.00     0.004 C 
BRANCH 123 124
HETATM  124  C   UNK N   1      35.924   9.288  17.844  0.00  0.00     0.019 C 
BRANCH 124 125
HETATM  125  C   UNK N   1      35.310   7.909  17.964  0.00  0.00     0.111 C 
BRANCH 125 126
HETATM  126  N   UNK N   1      36.167   7.060  18.769  0.00  0.00    -0.430 N 
HETATM  127  H   UNK N   1      36.688   7.138  19.641  0.00  0.00     0.149 HD
HETATM  128  H   UNK N   1      36.277   6.137  18.349  0.00  0.00     0.149 HD
ENDBRANCH 125 126
ENDBRANCH 124 125
ENDBRANCH 123 124
ENDBRANCH 122 123
ENDBRANCH  27 122
ENDBRANCH  25  27
ENDBRANCH  22  23
BRANCH  22 129
HETATM  129  C   UNK N   1      36.294  13.187  15.410  0.00  0.00     0.035 C 
BRANCH 129 130
HETATM  130  C   UNK N   1      35.109  12.914  16.317  0.00  0.00     0.004 C 
BRANCH 130 131
HETATM  131  C   UNK N   1      35.330  13.555  17.673  0.00  0.00     0.019 C 
BRANCH 131 132
HETATM  132  C   UNK N   1      34.931  12.610  18.788  0.00  0.00     0.111 C 
BRANCH 132 133
HETATM  133  N   UNK N   1      35.637  12.973  20.000  0.00  0.00    -0.430 N 
HETATM  134  H   UNK N   1      36.510  13.412  20.290  0.00  0.00     0.149 HD
HETATM  135  H   UNK N   1      35.089  12.706  20.818  0.00  0.00     0.149 HD
ENDBRANCH 132 133
ENDBRANCH 131 132
ENDBRANCH 130 131
ENDBRANCH 129 130
ENDBRANCH  22 129
ENDBRANCH  20  22
ENDBRANCH  17  18
ENDBRANCH  15  17
ENDBRANCH  12  13
BRANCH  12 136
HETATM  136  C   UNK N   1      40.981  12.002   8.398  0.00  0.00     0.009 C 
HETATM  137  C   UNK N   1      41.548  12.520   7.090  0.00  0.00     0.012 C 
HETATM  138  C   UNK N   1      41.581  10.662   8.770  0.00  0.00     0.012 C 
ENDBRANCH  12 136
ENDBRANCH  10  12
ENDBRANCH   4   8
BRANCH   1 139
HETATM  139  C   UNK N   1      35.227  14.799   5.890  0.00  0.00     0.176 C 
BRANCH 139 140
HETATM  140  N   UNK N   1      34.271  15.371   4.955  0.00  0.00    -0.346 N 
HETATM  141  C   UNK N   1      33.739  16.592   5.209  0.00  0.00     0.236 C 
HETATM  142  O   UNK N   1      34.316  17.360   5.953  0.00  0.00    -0.272 OA
HETATM  143  H   UNK N   1      34.011  14.876   4.145  0.00  0.00     0.163 HD
BRANCH 141 144
HETATM  144  C   UNK N   1      32.317  16.859   4.916  0.00  0.00     0.225 C 
BRANCH 144 145
HETATM  145  N   UNK N   1      31.934  15.856   3.939  0.00  0.00    -0.351 N 
HETATM  146  C   UNK N   1      30.657  15.550   3.547  0.00  0.00     0.241 C 
HETATM  147  O   UNK N   1      30.494  14.604   2.793  0.00  0.00    -0.271 OA
HETATM  148  H   UNK N   1      32.662  15.346   3.518  0.00  0.00     0.163 HD
BRANCH 146 149
HETATM  149  C   UNK N   1      29.424  16.344   3.959  0.00  0.00     0.181 C 
BRANCH 149 150
HETATM  150  C   UNK N   1      29.771  17.752   4.497  0.00  0.00     0.075 C 
BRANCH 150 151
HETATM  151  C   UNK N   1      29.052  18.290   5.720  0.00  0.00    -0.028 A 
HETATM  152  C   UNK N   1      29.119  17.845   7.043  0.00  0.00     0.096 A 
HETATM  153  N   UNK N   1      28.291  18.580   7.823  0.00  0.00    -0.365 N 
HETATM  154  C   UNK N   1      27.725  19.485   7.008  0.00  0.00     0.042 A 
HETATM  155  H   UNK N   1      28.137  18.474   8.789  0.00  0.00     0.165 HD
HETATM  156  C   UNK N   1      28.171  19.342   5.724  0.00  0.00    -0.002 A 
HETATM  157  C   UNK N   1      26.804  20.464   7.366  0.00  0.00     0.030 A 
HETATM  158  C   UNK N   1      27.730  20.176   4.699  0.00  0.00     0.014 A 
HETATM  159  C   UNK N   1      26.804  21.183   5.028  0.00  0.00     0.001 A 
HETATM  160  C   UNK N   1      26.340  21.325   6.357  0.00  0.00     0.002 A 
ENDBRANCH 150 151
ENDBRANCH 149 150
BRANCH 149 161
HETATM  161  N   UNK N   1      28.383  16.343   2.966  0.00  0.00    -0.346 N 
HETATM  162  C   UNK N   1      27.129  15.870   3.148  0.00  0.00     0.241 C 
HETATM  163  O   UNK N   1      26.357  15.899   2.205  0.00  0.00    -0.271 OA
HETATM  164  H   UNK N   1      28.600  16.719   2.081  0.00  0.00     0.163 HD
BRANCH 162 165
HETATM  165  C   UNK N   1      26.645  15.302   4.458  0.00  0.00     0.176 C 
BRANCH 165 166
HETATM  166  C   UNK N   1      26.101  16.136   5.610  0.00  0.00     0.036 C 
BRANCH 166 167
HETATM  167  C   UNK N   1      25.211  17.242   5.085  0.00  0.00     0.023 C 
BRANCH 167 168
HETATM  168  C   UNK N   1      23.741  16.863   5.193  0.00  0.00     0.138 C 
BRANCH 168 169
HETATM  169  N   UNK N   1      22.957  17.474   4.145  0.00  0.00    -0.227 N 
HETATM  170  C   UNK N   1      21.763  16.889   3.651  0.00  0.00     0.665 C 
HETATM  171  N   UNK N   1      21.068  17.513   2.775  0.00  0.00    -0.235 N 
HETATM  172  N   UNK N   1      21.319  15.638   4.135  0.00  0.00    -0.235 N 
HETATM  173  H   UNK N   1      21.259  17.935   1.905  0.00  0.00     0.174 HD
ATOM    174  HN  UNK N   1      20.086  17.592   3.040  1.00  0.00     0.174 HD
HETATM  175  H   UNK N   1      20.386  15.527   4.430  0.00  0.00     0.174 HD
HETATM  176  H   UNK N   1      21.942  14.877   4.179  0.00  0.00     0.174 HD
HETATM  177  H   UNK N   1      23.262  18.327   3.760  0.00  0.00     0.177 HD
ENDBRANCH 168 169
ENDBRANCH 167 168
ENDBRANCH 166 167
ENDBRANCH 165 166
BRANCH 165 178
HETATM  178  N   UNK N   1      27.122  13.970   4.755  0.00  0.00    -0.346 N 
HETATM  179  C   UNK N   1      26.372  12.836   4.701  0.00  0.00     0.241 C 
HETATM  180  O   UNK N   1      26.880  11.785   5.056  0.00  0.00    -0.271 OA
HETATM  181  H   UNK N   1      28.067  13.876   5.017  0.00  0.00     0.163 HD
BRANCH 179 182
HETATM  182  C   UNK N   1      24.933  12.809   4.217  0.00  0.00     0.180 C 
BRANCH 182 183
HETATM  183  C   UNK N   1      24.018  13.400   5.295  0.00  0.00     0.073 C 
BRANCH 183 184
HETATM  184  C   UNK N   1      24.137  12.812   6.672  0.00  0.00    -0.056 A 
HETATM  185  C   UNK N   1      24.769  13.544   7.681  0.00  0.00     0.007 A 
HETATM  186  C   UNK N   1      24.764  13.066   8.996  0.00  0.00     0.001 A 
HETATM  187  C   UNK N   1      24.123  11.865   9.313  0.00  0.00     0.000 A 
HETATM  188  C   UNK N   1      23.496  11.127   8.310  0.00  0.00     0.001 A 
HETATM  189  C   UNK N   1      23.498  11.604   6.996  0.00  0.00     0.007 A 
ENDBRANCH 183 184
ENDBRANCH 182 183
BRANCH 182 190
HETATM  190  N   UNK N   1      24.744  13.509   2.960  0.00  0.00    -0.346 N 
HETATM  191  C   UNK N   1      24.232  13.002   1.813  0.00  0.00     0.241 C 
HETATM  192  O   UNK N   1      24.077  13.752   0.861  0.00  0.00    -0.271 OA
HETATM  193  H   UNK N   1      25.018  14.455   2.939  0.00  0.00     0.163 HD
BRANCH 191 194
HETATM  194  C   UNK N   1      23.894  11.536   1.675  0.00  0.00     0.182 C 
BRANCH 194 195
HETATM  195  C   UNK N   1      24.955  10.709   0.975  0.00  0.00     0.093 C 
BRANCH 195 196
HETATM  196  C   UNK N   1      25.004   9.418   1.710  0.00  0.00     0.028 A 
HETATM  197  N   UNK N   1      24.378   8.305   1.299  0.00  0.00    -0.354 N 
HETATM  198  C   UNK N   1      24.608   7.400   2.268  0.00  0.00     0.180 A 
HETATM  199  H   UNK N   1      23.863   8.177   0.470  0.00  0.00     0.166 HD
HETATM  200  N   UNK N   1      25.350   7.919   3.271  0.00  0.00    -0.360 N 
HETATM  201  C   UNK N   1      25.599   9.196   2.924  0.00  0.00     0.114 A 
ATOM    202  HN  UNK N   1      25.657   7.441   4.117  1.00  0.00     0.166 HD
ENDBRANCH 195 196
ENDBRANCH 194 195
BRANCH 194 203
HETATM  203  N   UNK N   1      22.568  11.288   1.168  0.00  0.00    -0.346 N 
HETATM  204  C   UNK N   1      21.499  10.973   1.922  0.00  0.00     0.241 C 
HETATM  205  O   UNK N   1      20.439  10.747   1.361  0.00  0.00    -0.271 OA
HETATM  206  H   UNK N   1      22.434  11.353   0.194  0.00  0.00     0.163 HD
BRANCH 204 207
HETATM  207  C   UNK N   1      21.608  10.900   3.437  0.00  0.00     0.177 C 
BRANCH 207 208
HETATM  208  C   UNK N   1      20.914  12.049   4.192  0.00  0.00     0.045 C 
BRANCH 208 209
HETATM  209  C   UNK N   1      19.529  11.687   4.717  0.00  0.00     0.112 C 
BRANCH 209 210
HETATM  210  C   UNK N   1      18.484  12.554   4.091  0.00  0.00     0.139 C 
HETATM  211  O   UNK N   1      17.343  12.144   3.942  0.00  0.00    -0.650 OA
BRANCH 210 212
HETATM  212  O   UNK N   1      18.815  13.780   3.652  0.00  0.00    -0.776 OA
HETATM  213  H   UNK N   1      19.713  14.034   3.568  0.00  0.00     0.167 HD
ENDBRANCH 210 212
ENDBRANCH 209 210
ENDBRANCH 208 209
ENDBRANCH 207 208
BRANCH 207 214
HETATM  214  N   UNK N   1      21.132   9.625   3.938  0.00  0.00    -0.346 N 
HETATM  215  C   UNK N   1      21.957   8.789   4.608  0.00  0.00     0.241 C 
HETATM  216  O   UNK N   1      23.118   9.121   4.814  0.00  0.00    -0.271 OA
HETATM  217  H   UNK N   1      20.195   9.364   3.787  0.00  0.00     0.163 HD
BRANCH 215 218
HETATM  218  C   UNK N   1      21.512   7.415   5.032  0.00  0.00     0.177 C 
BRANCH 218 219
HETATM  219  N   UNK N   1      22.204   7.135   6.253  0.00  0.00    -0.346 N 
HETATM  220  C   UNK N   1      23.176   6.201   6.202  0.00  0.00     0.243 C 
HETATM  221  O   UNK N   1      23.176   5.359   5.310  0.00  0.00    -0.271 OA
HETATM  222  H   UNK N   1      21.980   7.603   7.090  0.00  0.00     0.163 HD
BRANCH 220 223
HETATM  223  C   UNK N   1      24.294   6.263   7.187  0.00  0.00     0.200 C 
BRANCH 223 224
HETATM  224  N   UNK N   1      25.337   5.484   6.582  0.00  0.00    -0.344 N 
HETATM  225  C   UNK N   1      26.404   5.121   7.331  0.00  0.00     0.241 C 
HETATM  226  O   UNK N   1      26.281   4.945   8.536  0.00  0.00    -0.271 OA
HETATM  227  H   UNK N   1      25.277   5.217   5.637  0.00  0.00     0.163 HD
BRANCH 225 228
HETATM  228  C   UNK N   1      27.777   5.122   6.750  0.00  0.00     0.180 C 
BRANCH 228 229
HETATM  229  C   UNK N   1      27.893   5.912   5.433  0.00  0.00     0.073 C 
BRANCH 229 230
HETATM  230  C   UNK N   1      28.894   7.012   5.593  0.00  0.00    -0.056 A 
HETATM  231  C   UNK N   1      28.786   8.153   4.788  0.00  0.00     0.010 A 
HETATM  232  C   UNK N   1      29.700   9.195   4.915  0.00  0.00     0.037 A 
HETATM  233  C   UNK N   1      30.718   9.115   5.861  0.00  0.00     0.065 A 
HETATM  234  C   UNK N   1      30.826   7.988   6.685  0.00  0.00     0.037 A 
HETATM  235  C   UNK N   1      29.917   6.930   6.548  0.00  0.00     0.010 A 
BRANCH 233 236
HETATM  236  O   UNK N   1      31.599  10.119   5.971  0.00  0.00    -0.361 OA
HETATM  237  H   UNK N   1      31.312  10.985   6.183  0.00  0.00     0.217 HD
ENDBRANCH 233 236
ENDBRANCH 229 230
ENDBRANCH 228 229
BRANCH 228 238
HETATM  238  N   UNK N   1      28.134   3.743   6.707  0.00  0.00    -0.346 N 
HETATM  239  C   UNK N   1      27.462   2.753   6.111  0.00  0.00     0.242 C 
HETATM  240  O   UNK N   1      26.759   2.948   5.130  0.00  0.00    -0.271 OA
HETATM  241  H   UNK N   1      28.967   3.492   7.169  0.00  0.00     0.163 HD
BRANCH 239 242
HETATM  242  C   UNK N   1      27.388   1.496   6.896  0.00  0.00     0.191 C 
BRANCH 242 243
HETATM  243  N   UNK N   1      26.106   1.362   7.560  0.00  0.00    -0.417 N 
HETATM  244  H   UNK N   1      25.715   0.589   8.099  0.00  0.00     0.150 HD
HETATM  245  H   UNK N   1      25.496   2.174   7.475  0.00  0.00     0.150 HD
ENDBRANCH 242 243
BRANCH 242 246
HETATM  246  C   UNK N   1      28.496   1.659   7.947  0.00  0.00     0.198 C 
BRANCH 246 247
HETATM  247  O   UNK N   1      28.438   0.674   8.924  0.00  0.00    -0.398 OA
HETATM  248  H   UNK N   1      27.645   0.125   9.025  0.00  0.00     0.209 HD
ENDBRANCH 246 247
ENDBRANCH 242 246
ENDBRANCH 239 242
ENDBRANCH 228 238
ENDBRANCH 225 228
ENDBRANCH 223 224
BRANCH 223 249
HETATM  249  C   UNK N   1      24.666   7.722   7.485  0.00  0.00     0.199 C 
BRANCH 249 250
HETATM  250  O   UNK N   1      25.219   8.326   6.362  0.00  0.00    -0.398 OA
HETATM  251  H   UNK N   1      24.997   8.479   5.431  0.00  0.00     0.209 HD
ENDBRANCH 249 250
ENDBRANCH 223 249
ENDBRANCH 220 223
ENDBRANCH 218 219
BRANCH 218 252
HETATM  252  C   UNK N   1      20.023   7.315   5.194  0.00  0.00     0.045 C 
BRANCH 252 253
HETATM  253  C   UNK N   1      19.494   6.428   4.094  0.00  0.00     0.076 C 
BRANCH 253 254
HETATM  254  S   UNK N   1      19.698   4.657   4.462  0.00  0.00    -0.173 SA
HETATM  255  C   UNK N   1      20.659   4.406   2.942  0.00  0.00     0.089 C 
ENDBRANCH 253 254
ENDBRANCH 252 253
ENDBRANCH 218 252
ENDBRANCH 215 218
ENDBRANCH 207 214
ENDBRANCH 204 207
ENDBRANCH 194 203
ENDBRANCH 191 194
ENDBRANCH 182 190
ENDBRANCH 179 182
ENDBRANCH 165 178
ENDBRANCH 162 165
ENDBRANCH 149 161
ENDBRANCH 146 149
ENDBRANCH 144 145
ENDBRANCH 141 144
ENDBRANCH 139 140
BRANCH 139 256
HETATM  256  C   UNK N   1      34.487  14.133   7.071  0.00  0.00     0.035 C 
BRANCH 256 257
HETATM  257  C   UNK N   1      32.983  14.171   6.972  0.00  0.00     0.004 C 
BRANCH 257 258
HETATM  258  C   UNK N   1      32.432  14.865   8.202  0.00  0.00     0.019 C 
BRANCH 258 259
HETATM  259  C   UNK N   1      33.548  15.257   9.154  0.00  0.00     0.111 C 
BRANCH 259 260
HETATM  260  N   UNK N   1      33.164  14.968  10.524  0.00  0.00    -0.430 N 
HETATM  261  H   UNK N   1      32.258  15.087  10.979  0.00  0.00     0.149 HD
HETATM  262  H   UNK N   1      33.905  14.592  11.116  0.00  0.00     0.149 HD
ENDBRANCH 259 260
ENDBRANCH 258 259
ENDBRANCH 257 258
ENDBRANCH 256 257
ENDBRANCH 139 256
ENDBRANCH   1 139
TORSDOF 104
ENDMDL
MODEL 7
REMARK VINA RESULT:      -5.2      2.347      6.174
REMARK WARNING: 32 MAX_TORS EXCEEDED!!!
REMARK  104 active torsions:
REMARK  status: ('A' for Active; 'I' for Inactive)
REMARK    1  A    between atoms: C_2  and  C_1 
REMARK       I    between atoms: C_1  and  N_7 
REMARK    2  A    between atoms: C_2  and  N_4 
REMARK    3  A    between atoms: C_5  and  C_2 
REMARK    4  A    between atoms: O_6  and  C_5 
REMARK    5  A    between atoms: C_10  and  N_7 
REMARK    6  A    between atoms: C_10  and  C_8 
REMARK       I    between atoms: C_8  and  N_19 
REMARK    7  A    between atoms: C_11  and  C_10 
REMARK    8  A    between atoms: C_12  and  C_11 
REMARK    9  A    between atoms: O_18  and  C_16 
REMARK   10  A    between atoms: C_21  and  N_19 
REMARK   11  A    between atoms: C_21  and  C_20 
REMARK       I    between atoms: C_20  and  N_25 
REMARK   12  A    between atoms: C_23  and  C_21 
REMARK   13  A    between atoms: O_24  and  C_23 
REMARK   14  A    between atoms: C_28  and  N_25 
REMARK   15  A    between atoms: C_28  and  C_26 
REMARK       I    between atoms: C_26  and  N_33 
REMARK   16  A    between atoms: C_30  and  C_28 
REMARK   17  A    between atoms: C_31  and  S_29 
REMARK   18  A    between atoms: C_31  and  C_30 
REMARK   19  A    between atoms: C_37  and  N_33 
REMARK   20  A    between atoms: C_37  and  C_34 
REMARK       I    between atoms: C_34  and  N_42 
REMARK   21  A    between atoms: C_40  and  C_35 
REMARK   22  A    between atoms: O_41  and  C_35 
REMARK   23  A    between atoms: C_39  and  C_37 
REMARK   24  A    between atoms: C_40  and  C_39 
REMARK   25  A    between atoms: C_45  and  N_42 
REMARK   26  A    between atoms: C_45  and  C_43 
REMARK       I    between atoms: C_43  and  N_53 
REMARK   27  A    between atoms: C_46  and  C_45 
REMARK   28  A    between atoms: C_47  and  C_46 
REMARK   29  A    between atoms: C_55  and  N_53 
REMARK   30  A    between atoms: C_55  and  C_54 
REMARK       I    between atoms: C_54  and  N_64 
REMARK   31  A    between atoms: C_57  and  C_55 
REMARK   32  A    between atoms: C_58  and  C_57 
REMARK   33  A    between atoms: C_71  and  N_64 
REMARK       I    between atoms: N_70  and  C_65 
REMARK       I    between atoms: N_72  and  C_65 
REMARK   34  A    between atoms: C_71  and  C_66 
REMARK       I    between atoms: C_66  and  N_76 
REMARK   35  A    between atoms: C_73  and  N_70 
REMARK   36  A    between atoms: C_74  and  C_71 
REMARK   37  A    between atoms: C_75  and  C_73 
REMARK   38  A    between atoms: C_75  and  C_74 
REMARK   39  A    between atoms: C_79  and  N_76 
REMARK   40  A    between atoms: C_79  and  C_77 
REMARK       I    between atoms: C_77  and  N_90 
REMARK   41  A    between atoms: C_80  and  C_79 
REMARK   42  A    between atoms: C_81  and  C_80 
REMARK   43  A    between atoms: N_90  and  C_93 
REMARK   44  A    between atoms: C_93  and  C_91 
REMARK       I    between atoms: C_91  and  N_94 
REMARK   45  A    between atoms: C_97  and  N_94 
REMARK       I    between atoms: N_96  and  C_95 
REMARK   46  A    between atoms: C_97  and  C_95 
REMARK   47  A    between atoms: C_100  and  C_97 
REMARK   48  A    between atoms: C_99  and  N_98 
REMARK   49  A    between atoms: C_101  and  C_99 
REMARK   50  A    between atoms: C_102  and  C_100 
REMARK   51  A    between atoms: C_102  and  C_101 
REMARK   52  A    between atoms: C_104  and  C_108 
REMARK       I    between atoms: C_108  and  N_110 
REMARK   53  A    between atoms: C_112  and  N_110 
REMARK   54  A    between atoms: C_112  and  C_111 
REMARK       I    between atoms: C_111  and  N_117 
REMARK   55  A    between atoms: C_114  and  C_112 
REMARK   56  A    between atoms: N_117  and  C_120 
REMARK   57  A    between atoms: C_120  and  C_118 
REMARK       I    between atoms: C_118  and  N_121 
REMARK   58  A    between atoms: C_124  and  N_121 
REMARK   59  A    between atoms: C_124  and  C_122 
REMARK       I    between atoms: C_122  and  N_130 
REMARK   60  A    between atoms: C_127  and  C_124 
REMARK   61  A    between atoms: C_126  and  N_125 
REMARK   62  A    between atoms: C_128  and  C_126 
REMARK   63  A    between atoms: C_129  and  C_127 
REMARK   64  A    between atoms: C_129  and  C_128 
REMARK   65  A    between atoms: C_133  and  N_130 
REMARK   66  A    between atoms: C_133  and  C_131 
REMARK       I    between atoms: C_131  and  N_139 
REMARK   67  A    between atoms: C_136  and  C_133 
REMARK   68  A    between atoms: C_135  and  N_134 
REMARK   69  A    between atoms: C_137  and  C_135 
REMARK   70  A    between atoms: C_138  and  C_136 
REMARK   71  A    between atoms: C_138  and  C_137 
REMARK   72  A    between atoms: C_146  and  N_139 
REMARK       I    between atoms: N_145  and  C_140 
REMARK       I    between atoms: N_147  and  C_140 
REMARK   73  A    between atoms: C_146  and  C_141 
REMARK       I    between atoms: C_141  and  N_151 
REMARK   74  A    between atoms: C_148  and  N_145 
REMARK   75  A    between atoms: C_149  and  C_146 
REMARK   76  A    between atoms: C_150  and  C_148 
REMARK   77  A    between atoms: C_150  and  C_149 
REMARK   78  A    between atoms: C_158  and  N_151 
REMARK       I    between atoms: N_157  and  C_152 
REMARK       I    between atoms: N_159  and  C_152 
REMARK   79  A    between atoms: C_158  and  C_153 
REMARK       I    between atoms: N_156  and  C_153 
REMARK   80  A    between atoms: C_160  and  N_157 
REMARK   81  A    between atoms: C_161  and  C_158 
REMARK   82  A    between atoms: C_162  and  C_160 
REMARK   83  A    between atoms: C_162  and  C_161 
REMARK   84  A    between atoms: C_164  and  C_168 
REMARK       I    between atoms: C_168  and  N_170 
REMARK   85  A    between atoms: C_172  and  N_170 
REMARK   86  A    between atoms: C_172  and  C_171 
REMARK       I    between atoms: C_171  and  N_177 
REMARK   87  A    between atoms: C_174  and  C_172 
REMARK   88  A    between atoms: C_180  and  N_177 
REMARK   89  A    between atoms: C_180  and  C_178 
REMARK       I    between atoms: C_178  and  N_186 
REMARK   90  A    between atoms: C_183  and  C_180 
REMARK   91  A    between atoms: C_182  and  N_181 
REMARK   92  A    between atoms: C_184  and  C_182 
REMARK   93  A    between atoms: C_185  and  C_183 
REMARK   94  A    between atoms: C_185  and  C_184 
REMARK   95  A    between atoms: C_188  and  N_186 
REMARK   96  A    between atoms: C_188  and  C_187 
REMARK       I    between atoms: C_187  and  N_193 
REMARK   97  A    between atoms: C_190  and  C_188 
REMARK   98  A    between atoms: C_196  and  N_193 
REMARK       I    between atoms: N_195  and  C_194 
REMARK   99  A    between atoms: C_196  and  C_194 
REMARK  100  A    between atoms: C_197  and  C_196 
REMARK  101  A    between atoms: C_198  and  C_197 
REMARK  102  A    between atoms: O_204  and  C_202 
REMARK  103  A    between atoms: C_206  and  C_210 
REMARK  104  A    between atoms: C_210  and  O_212 
ROOT
HETATM    1  C   UNK N   1      34.925  11.542   6.275  0.00  0.00     0.243 C 
HETATM    2  N   UNK N   1      35.741  12.587   5.920  0.00  0.00    -0.337 N 
HETATM    3  O   UNK N   1      35.353  10.396   6.242  0.00  0.00    -0.271 OA
HETATM    4  C   UNK N   1      35.362  13.964   6.090  0.00  0.00     0.179 C 
HETATM    5  C   UNK N   1      37.049  12.391   5.369  0.00  0.00     0.127 C 
HETATM    6  C   UNK N   1      37.502  13.775   4.926  0.00  0.00     0.022 C 
HETATM    7  C   UNK N   1      36.396  14.760   5.308  0.00  0.00     0.037 C 
ENDROOT
BRANCH   4   8
HETATM    8  C   UNK N   1      35.490  14.197   7.565  0.00  0.00     0.241 C 
HETATM    9  O   UNK N   1      35.416  13.247   8.329  0.00  0.00    -0.271 OA
HETATM   10  N   UNK N   1      35.315  15.459   8.013  0.00  0.00    -0.346 N 
HETATM   11  H   UNK N   1      35.593  16.198   7.424  0.00  0.00     0.163 HD
BRANCH  10  12
HETATM   12  C   UNK N   1      34.749  15.803   9.302  0.00  0.00     0.180 C 
BRANCH  12  13
HETATM   13  C   UNK N   1      35.599  16.407  10.406  0.00  0.00     0.241 C 
HETATM   14  O   UNK N   1      35.575  17.616  10.564  0.00  0.00    -0.271 OA
HETATM   15  N   UNK N   1      36.441  15.667  11.172  0.00  0.00    -0.351 N 
HETATM   16  H   UNK N   1      37.039  16.144  11.792  0.00  0.00     0.163 HD
BRANCH  15  17
HETATM   17  C   UNK N   1      36.515  14.225  11.137  0.00  0.00     0.225 C 
BRANCH  17  18
HETATM   18  C   UNK N   1      35.842  13.727  12.359  0.00  0.00     0.236 C 
HETATM   19  O   UNK N   1      34.633  13.860  12.481  0.00  0.00    -0.272 OA
HETATM   20  N   UNK N   1      36.551  12.969  13.229  0.00  0.00    -0.346 N 
HETATM   21  H   UNK N   1      37.533  13.036  13.233  0.00  0.00     0.163 HD
BRANCH  20  22
HETATM   22  C   UNK N   1      35.909  12.071  14.145  0.00  0.00     0.176 C 
BRANCH  22  23
HETATM   23  C   UNK N   1      35.921  10.727  13.477  0.00  0.00     0.241 C 
HETATM   24  O   UNK N   1      34.871  10.170  13.189  0.00  0.00    -0.271 OA
HETATM   25  N   UNK N   1      37.094  10.091  13.311  0.00  0.00    -0.346 N 
HETATM   26  H   UNK N   1      37.928  10.555  13.552  0.00  0.00     0.163 HD
BRANCH  25  27
HETATM   27  C   UNK N   1      37.167   8.749  12.790  0.00  0.00     0.176 C 
BRANCH  27  28
HETATM   28  C   UNK N   1      38.493   8.502  12.137  0.00  0.00     0.241 C 
HETATM   29  O   UNK N   1      39.284   7.756  12.688  0.00  0.00    -0.271 OA
HETATM   30  N   UNK N   1      38.829   9.049  10.943  0.00  0.00    -0.346 N 
HETATM   31  H   UNK N   1      39.737   8.885  10.599  0.00  0.00     0.163 HD
BRANCH  30  32
HETATM   32  C   UNK N   1      37.937   9.863  10.142  0.00  0.00     0.176 C 
BRANCH  32  33
HETATM   33  C   UNK N   1      36.794   9.175   9.412  0.00  0.00     0.241 C 
HETATM   34  O   UNK N   1      35.666   9.229   9.871  0.00  0.00    -0.271 OA
HETATM   35  N   UNK N   1      37.011   8.522   8.237  0.00  0.00    -0.346 N 
HETATM   36  H   UNK N   1      36.251   8.159   7.729  0.00  0.00     0.163 HD
BRANCH  35  37
HETATM   37  C   UNK N   1      38.358   8.362   7.739  0.00  0.00     0.176 C 
BRANCH  37  38
HETATM   38  C   UNK N   1      38.756   6.903   7.928  0.00  0.00     0.243 C 
HETATM   39  N   UNK N   1      38.859   6.052   6.872  0.00  0.00    -0.337 N 
HETATM   40  C   UNK N   1      38.136   6.255   5.653  0.00  0.00     0.179 C 
HETATM   41  C   UNK N   1      39.475   4.760   6.990  0.00  0.00     0.127 C 
HETATM   42  C   UNK N   1      38.727   5.218   4.711  0.00  0.00     0.037 C 
HETATM   43  C   UNK N   1      39.362   4.150   5.606  0.00  0.00     0.022 C 
HETATM   44  O   UNK N   1      39.143   6.535   9.030  0.00  0.00    -0.271 OA
BRANCH  40  45
HETATM   45  C   UNK N   1      36.713   5.857   5.978  0.00  0.00     0.241 C 
HETATM   46  O   UNK N   1      36.383   5.565   7.117  0.00  0.00    -0.271 OA
HETATM   47  N   UNK N   1      35.813   5.859   4.960  0.00  0.00    -0.346 N 
HETATM   48  H   UNK N   1      36.145   6.128   4.073  0.00  0.00     0.163 HD
BRANCH  47  49
HETATM   49  C   UNK N   1      34.438   5.510   5.052  0.00  0.00     0.180 C 
BRANCH  49  50
HETATM   50  C   UNK N   1      33.740   6.512   5.927  0.00  0.00     0.241 C 
HETATM   51  O   UNK N   1      33.835   7.710   5.703  0.00  0.00    -0.271 OA
HETATM   52  N   UNK N   1      33.052   6.083   7.017  0.00  0.00    -0.346 N 
HETATM   53  H   UNK N   1      32.627   6.749   7.605  0.00  0.00     0.163 HD
BRANCH  52  54
HETATM   54  C   UNK N   1      32.922   4.669   7.346  0.00  0.00     0.176 C 
BRANCH  54  55
HETATM   55  C   UNK N   1      31.479   4.313   7.195  0.00  0.00     0.241 C 
HETATM   56  O   UNK N   1      31.041   3.262   7.633  0.00  0.00    -0.271 OA
HETATM   57  N   UNK N   1      30.761   5.103   6.384  0.00  0.00    -0.346 N 
HETATM   58  H   UNK N   1      31.155   5.996   6.249  0.00  0.00     0.163 HD
BRANCH  57  59
HETATM   59  C   UNK N   1      29.531   4.901   5.674  0.00  0.00     0.180 C 
BRANCH  59  60
HETATM   60  C   UNK N   1      29.976   4.257   4.393  0.00  0.00     0.241 C 
HETATM   61  O   UNK N   1      30.381   3.103   4.397  0.00  0.00    -0.271 OA
HETATM   62  N   UNK N   1      30.051   4.974   3.253  0.00  0.00    -0.346 N 
HETATM   63  H   UNK N   1      30.351   4.518   2.434  0.00  0.00     0.163 HD
BRANCH  62  64
HETATM   64  C   UNK N   1      29.714   6.382   3.171  0.00  0.00     0.181 C 
BRANCH  64  65
HETATM   65  C   UNK N   1      28.293   6.730   3.571  0.00  0.00     0.243 C 
HETATM   66  N   UNK N   1      27.206   6.520   2.771  0.00  0.00    -0.336 N 
HETATM   67  C   UNK N   1      25.895   6.975   3.112  0.00  0.00     0.185 C 
HETATM   68  C   UNK N   1      27.272   5.838   1.498  0.00  0.00     0.127 C 
HETATM   69  C   UNK N   1      24.968   6.231   2.163  0.00  0.00     0.038 C 
HETATM   70  C   UNK N   1      25.840   5.757   1.007  0.00  0.00     0.022 C 
HETATM   71  O   UNK N   1      28.116   7.258   4.676  0.00  0.00    -0.271 OA
BRANCH  67  72
HETATM   72  C   UNK N   1      25.838   8.472   2.879  0.00  0.00     0.163 C 
HETATM   73  O   UNK N   1      25.773   8.911   1.744  0.00  0.00    -0.648 OA
BRANCH  72  74
HETATM   74  O   UNK N   1      25.814   9.328   3.920  0.00  0.00    -0.775 OA
HETATM   75  H   UNK N   1      26.268   9.262   4.737  0.00  0.00     0.167 HD
ENDBRANCH  72  74
ENDBRANCH  67  72
ENDBRANCH  64  65
BRANCH  64  76
HETATM   76  C   UNK N   1      30.793   7.267   3.802  0.00  0.00     0.073 C 
BRANCH  76  77
HETATM   77  C   UNK N   1      31.449   8.087   2.744  0.00  0.00    -0.056 A 
HETATM   78  C   UNK N   1      32.042   9.306   3.087  0.00  0.00     0.010 A 
HETATM   79  C   UNK N   1      32.721  10.050   2.117  0.00  0.00     0.037 A 
HETATM   80  C   UNK N   1      32.808   9.575   0.804  0.00  0.00     0.065 A 
HETATM   81  C   UNK N   1      32.201   8.366   0.456  0.00  0.00     0.037 A 
HETATM   82  C   UNK N   1      31.522   7.624   1.424  0.00  0.00     0.010 A 
BRANCH  80  83
HETATM   83  O   UNK N   1      33.479  10.277  -0.121  0.00  0.00    -0.361 OA
HETATM   84  H   UNK N   1      34.253  10.754   0.105  0.00  0.00     0.217 HD
ENDBRANCH  80  83
ENDBRANCH  76  77
ENDBRANCH  64  76
ENDBRANCH  62  64
ENDBRANCH  59  60
BRANCH  59  85
HETATM   85  C   UNK N   1      28.329   4.181   6.334  0.00  0.00     0.009 C 
HETATM   86  C   UNK N   1      27.169   3.888   5.402  0.00  0.00     0.012 C 
HETATM   87  C   UNK N   1      27.852   4.733   7.659  0.00  0.00     0.012 C 
ENDBRANCH  59  85
ENDBRANCH  57  59
ENDBRANCH  54  55
BRANCH  54  88
HETATM   88  C   UNK N   1      33.343   4.462   8.798  0.00  0.00     0.035 C 
BRANCH  88  89
HETATM   89  C   UNK N   1      32.755   5.490   9.759  0.00  0.00     0.004 C 
BRANCH  89  90
HETATM   90  C   UNK N   1      32.081   4.873  10.973  0.00  0.00     0.019 C 
BRANCH  90  91
HETATM   91  C   UNK N   1      30.588   5.112  10.867  0.00  0.00     0.111 C 
BRANCH  91  92
HETATM   92  N   UNK N   1      29.921   3.874  10.515  0.00  0.00    -0.430 N 
HETATM   93  H   UNK N   1      29.987   3.087   9.869  0.00  0.00     0.149 HD
HETATM   94  H   UNK N   1      29.108   3.745  11.118  0.00  0.00     0.149 HD
ENDBRANCH  91  92
ENDBRANCH  90  91
ENDBRANCH  89  90
ENDBRANCH  88  89
ENDBRANCH  54  88
ENDBRANCH  52  54
ENDBRANCH  49  50
BRANCH  49  95
HETATM   95  C   UNK N   1      33.825   5.302   3.665  0.00  0.00     0.009 C 
HETATM   96  C   UNK N   1      33.713   3.820   3.379  0.00  0.00     0.012 C 
HETATM   97  C   UNK N   1      34.646   5.951   2.559  0.00  0.00     0.012 C 
ENDBRANCH  49  95
ENDBRANCH  47  49
ENDBRANCH  40  45
ENDBRANCH  37  38
BRANCH  37  98
HETATM   98  C   UNK N   1      38.618   8.972   6.357  0.00  0.00     0.036 C 
BRANCH  98  99
HETATM   99  C   UNK N   1      39.997   9.604   6.124  0.00  0.00     0.023 C 
BRANCH  99 100
HETATM  100  C   UNK N   1      40.614   9.308   4.762  0.00  0.00     0.138 C 
BRANCH 100 101
HETATM  101  N   UNK N   1      41.054   7.936   4.700  0.00  0.00    -0.227 N 
HETATM  102  C   UNK N   1      42.158   7.438   5.444  0.00  0.00     0.665 C 
HETATM  103  N   UNK N   1      42.431   6.188   5.414  0.00  0.00    -0.235 N 
HETATM  104  N   UNK N   1      42.924   8.300   6.262  0.00  0.00    -0.235 N 
HETATM  105  H   UNK N   1      43.263   5.719   5.653  0.00  0.00     0.174 HD
ATOM    106  HN  UNK N   1      41.672   5.587   5.092  1.00  0.00     0.174 HD
HETATM  107  H   UNK N   1      42.496   8.895   6.919  0.00  0.00     0.174 HD
HETATM  108  H   UNK N   1      43.904   8.304   6.173  0.00  0.00     0.174 HD
HETATM  109  H   UNK N   1      40.566   7.312   4.114  0.00  0.00     0.177 HD
ENDBRANCH 100 101
ENDBRANCH  99 100
ENDBRANCH  98  99
ENDBRANCH  37  98
ENDBRANCH  35  37
ENDBRANCH  32  33
BRANCH  32 110
HETATM  110  C   UNK N   1      38.206  11.367  10.134  0.00  0.00     0.036 C 
BRANCH 110 111
HETATM  111  C   UNK N   1      38.363  11.858   8.698  0.00  0.00     0.023 C 
BRANCH 111 112
HETATM  112  C   UNK N   1      39.618  12.690   8.497  0.00  0.00     0.138 C 
BRANCH 112 113
HETATM  113  N   UNK N   1      40.794  11.904   8.790  0.00  0.00    -0.227 N 
HETATM  114  C   UNK N   1      41.961  11.937   7.981  0.00  0.00     0.665 C 
HETATM  115  N   UNK N   1      42.980  11.236   8.310  0.00  0.00    -0.235 N 
HETATM  116  N   UNK N   1      42.006  12.731   6.812  0.00  0.00    -0.235 N 
HETATM  117  H   UNK N   1      43.730  11.268   8.948  0.00  0.00     0.174 HD
ATOM    118  HN  UNK N   1      43.032  10.391   7.741  1.00  0.00     0.174 HD
HETATM  119  H   UNK N   1      42.136  12.317   5.928  0.00  0.00     0.174 HD
HETATM  120  H   UNK N   1      41.906  13.708   6.882  0.00  0.00     0.174 HD
HETATM  121  H   UNK N   1      40.788  11.322   9.584  0.00  0.00     0.177 HD
ENDBRANCH 112 113
ENDBRANCH 111 112
ENDBRANCH 110 111
ENDBRANCH  32 110
ENDBRANCH  30  32
ENDBRANCH  27  28
BRANCH  27 122
HETATM  122  C   UNK N   1      36.893   7.743  13.887  0.00  0.00     0.035 C 
BRANCH 122 123
HETATM  123  C   UNK N   1      35.685   6.892  13.554  0.00  0.00     0.004 C 
BRANCH 123 124
HETATM  124  C   UNK N   1      35.677   6.510  12.092  0.00  0.00     0.019 C 
BRANCH 124 125
HETATM  125  C   UNK N   1      36.494   5.246  11.927  0.00  0.00     0.111 C 
BRANCH 125 126
HETATM  126  N   UNK N   1      35.611   4.116  11.714  0.00  0.00    -0.430 N 
HETATM  127  H   UNK N   1      35.668   3.194  11.284  0.00  0.00     0.149 HD
HETATM  128  H   UNK N   1      34.682   4.292  12.098  0.00  0.00     0.149 HD
ENDBRANCH 125 126
ENDBRANCH 124 125
ENDBRANCH 123 124
ENDBRANCH 122 123
ENDBRANCH  27 122
ENDBRANCH  25  27
ENDBRANCH  22  23
BRANCH  22 129
HETATM  129  C   UNK N   1      36.689  12.044  15.455  0.00  0.00     0.035 C 
BRANCH 129 130
HETATM  130  C   UNK N   1      36.030  11.127  16.468  0.00  0.00     0.004 C 
BRANCH 130 131
HETATM  131  C   UNK N   1      35.313  11.945  17.524  0.00  0.00     0.019 C 
BRANCH 131 132
HETATM  132  C   UNK N   1      35.385  13.424  17.203  0.00  0.00     0.111 C 
BRANCH 132 133
HETATM  133  N   UNK N   1      35.312  14.186  18.432  0.00  0.00    -0.430 N 
HETATM  134  H   UNK N   1      35.557  14.098  19.418  0.00  0.00     0.149 HD
HETATM  135  H   UNK N   1      34.884  15.095  18.256  0.00  0.00     0.149 HD
ENDBRANCH 132 133
ENDBRANCH 131 132
ENDBRANCH 130 131
ENDBRANCH 129 130
ENDBRANCH  22 129
ENDBRANCH  20  22
ENDBRANCH  17  18
ENDBRANCH  15  17
ENDBRANCH  12  13
BRANCH  12 136
HETATM  136  C   UNK N   1      33.228  15.913   9.281  0.00  0.00     0.009 C 
HETATM  137  C   UNK N   1      32.544  14.562   9.358  0.00  0.00     0.012 C 
HETATM  138  C   UNK N   1      32.719  16.726   8.109  0.00  0.00     0.012 C 
ENDBRANCH  12 136
ENDBRANCH  10  12
ENDBRANCH   4   8
BRANCH   1 139
HETATM  139  C   UNK N   1      33.435  11.790   6.515  0.00  0.00     0.176 C 
BRANCH 139 140
HETATM  140  N   UNK N   1      32.941  12.094   5.181  0.00  0.00    -0.346 N 
HETATM  141  C   UNK N   1      31.872  12.914   5.036  0.00  0.00     0.236 C 
HETATM  142  O   UNK N   1      31.578  13.687   5.927  0.00  0.00    -0.272 OA
HETATM  143  H   UNK N   1      33.379  11.706   4.389  0.00  0.00     0.163 HD
BRANCH 141 144
HETATM  144  C   UNK N   1      30.849  12.629   4.011  0.00  0.00     0.225 C 
BRANCH 144 145
HETATM  145  N   UNK N   1      29.823  11.865   4.698  0.00  0.00    -0.351 N 
HETATM  146  C   UNK N   1      28.606  11.495   4.188  0.00  0.00     0.241 C 
HETATM  147  O   UNK N   1      27.810  10.945   4.932  0.00  0.00    -0.271 OA
HETATM  148  H   UNK N   1      30.022  11.584   5.620  0.00  0.00     0.163 HD
BRANCH 146 149
HETATM  149  C   UNK N   1      28.195  11.689   2.734  0.00  0.00     0.181 C 
BRANCH 149 150
HETATM  150  C   UNK N   1      28.834  10.646   1.788  0.00  0.00     0.075 C 
BRANCH 150 151
HETATM  151  C   UNK N   1      29.447  11.094   0.475  0.00  0.00    -0.028 A 
HETATM  152  C   UNK N   1      30.108  12.289   0.178  0.00  0.00     0.096 A 
HETATM  153  N   UNK N   1      30.472  12.307  -1.126  0.00  0.00    -0.365 N 
HETATM  154  C   UNK N   1      30.063  11.136  -1.639  0.00  0.00     0.042 A 
HETATM  155  H   UNK N   1      30.941  13.030  -1.601  0.00  0.00     0.165 HD
HETATM  156  C   UNK N   1      29.443  10.370  -0.692  0.00  0.00    -0.002 A 
HETATM  157  C   UNK N   1      30.223  10.702  -2.951  0.00  0.00     0.030 A 
HETATM  158  C   UNK N   1      28.939   9.105  -0.987  0.00  0.00     0.014 A 
HETATM  159  C   UNK N   1      29.092   8.631  -2.303  0.00  0.00     0.001 A 
HETATM  160  C   UNK N   1      29.729   9.429  -3.282  0.00  0.00     0.002 A 
ENDBRANCH 150 151
ENDBRANCH 149 150
BRANCH 149 161
HETATM  161  N   UNK N   1      26.776  11.842   2.555  0.00  0.00    -0.346 N 
HETATM  162  C   UNK N   1      26.097  13.007   2.657  0.00  0.00     0.241 C 
HETATM  163  O   UNK N   1      24.885  12.985   2.516  0.00  0.00    -0.271 OA
HETATM  164  H   UNK N   1      26.256  11.034   2.339  0.00  0.00     0.163 HD
BRANCH 162 165
HETATM  165  C   UNK N   1      26.764  14.328   2.943  0.00  0.00     0.176 C 
BRANCH 165 166
HETATM  166  C   UNK N   1      27.595  15.111   1.935  0.00  0.00     0.036 C 
BRANCH 166 167
HETATM  167  C   UNK N   1      29.048  15.136   2.359  0.00  0.00     0.023 C 
BRANCH 167 168
HETATM  168  C   UNK N   1      29.446  16.509   2.878  0.00  0.00     0.138 C 
BRANCH 168 169
HETATM  169  N   UNK N   1      30.825  16.812   2.575  0.00  0.00    -0.227 N 
HETATM  170  C   UNK N   1      31.845  16.779   3.561  0.00  0.00     0.665 C 
HETATM  171  N   UNK N   1      33.062  16.981   3.221  0.00  0.00    -0.235 N 
HETATM  172  N   UNK N   1      31.533  16.499   4.911  0.00  0.00    -0.235 N 
HETATM  173  H   UNK N   1      33.537  17.676   2.708  0.00  0.00     0.174 HD
ATOM    174  HN  UNK N   1      33.689  16.250   3.558  1.00  0.00     0.174 HD
HETATM  175  H   UNK N   1      32.048  15.819   5.404  0.00  0.00     0.174 HD
HETATM  176  H   UNK N   1      30.801  16.982   5.358  0.00  0.00     0.174 HD
HETATM  177  H   UNK N   1      31.068  17.049   1.651  0.00  0.00     0.177 HD
ENDBRANCH 168 169
ENDBRANCH 167 168
ENDBRANCH 166 167
ENDBRANCH 165 166
BRANCH 165 178
HETATM  178  N   UNK N   1      26.956  14.619   4.346  0.00  0.00    -0.346 N 
HETATM  179  C   UNK N   1      26.373  15.645   5.024  0.00  0.00     0.241 C 
HETATM  180  O   UNK N   1      26.686  15.824   6.190  0.00  0.00    -0.271 OA
HETATM  181  H   UNK N   1      27.557  14.025   4.853  0.00  0.00     0.163 HD
BRANCH 179 182
HETATM  182  C   UNK N   1      25.349  16.579   4.404  0.00  0.00     0.180 C 
BRANCH 182 183
HETATM  183  C   UNK N   1      26.067  17.671   3.606  0.00  0.00     0.073 C 
BRANCH 183 184
HETATM  184  C   UNK N   1      26.514  18.882   4.375  0.00  0.00    -0.056 A 
HETATM  185  C   UNK N   1      25.601  19.907   4.638  0.00  0.00     0.007 A 
HETATM  186  C   UNK N   1      25.968  20.971   5.469  0.00  0.00     0.001 A 
HETATM  187  C   UNK N   1      27.240  21.016   6.047  0.00  0.00     0.000 A 
HETATM  188  C   UNK N   1      28.158  19.999   5.783  0.00  0.00     0.001 A 
HETATM  189  C   UNK N   1      27.792  18.934   4.956  0.00  0.00     0.007 A 
ENDBRANCH 183 184
ENDBRANCH 182 183
BRANCH 182 190
HETATM  190  N   UNK N   1      24.390  15.890   3.561  0.00  0.00    -0.346 N 
HETATM  191  C   UNK N   1      23.042  15.886   3.692  0.00  0.00     0.241 C 
HETATM  192  O   UNK N   1      22.374  15.307   2.849  0.00  0.00    -0.271 OA
HETATM  193  H   UNK N   1      24.759  15.368   2.812  0.00  0.00     0.163 HD
BRANCH 191 194
HETATM  194  C   UNK N   1      22.358  16.540   4.871  0.00  0.00     0.182 C 
BRANCH 194 195
HETATM  195  C   UNK N   1      22.464  18.052   4.900  0.00  0.00     0.093 C 
BRANCH 195 196
HETATM  196  C   UNK N   1      21.434  18.543   3.947  0.00  0.00     0.028 A 
HETATM  197  N   UNK N   1      20.335  17.847   3.617  0.00  0.00    -0.354 N 
HETATM  198  C   UNK N   1      19.717  18.598   2.686  0.00  0.00     0.180 A 
HETATM  199  H   UNK N   1      20.045  16.978   3.975  0.00  0.00     0.166 HD
HETATM  200  N   UNK N   1      20.401  19.733   2.423  0.00  0.00    -0.360 N 
HETATM  201  C   UNK N   1      21.489  19.701   3.216  0.00  0.00     0.114 A 
ATOM    202  HN  UNK N   1      20.145  20.464   1.761  1.00  0.00     0.166 HD
ENDBRANCH 195 196
ENDBRANCH 194 195
BRANCH 194 203
HETATM  203  N   UNK N   1      22.674  15.933   6.139  0.00  0.00    -0.346 N 
HETATM  204  C   UNK N   1      21.787  15.320   6.945  0.00  0.00     0.241 C 
HETATM  205  O   UNK N   1      22.180  14.883   8.014  0.00  0.00    -0.271 OA
HETATM  206  H   UNK N   1      23.611  15.971   6.440  0.00  0.00     0.163 HD
BRANCH 204 207
HETATM  207  C   UNK N   1      20.331  15.175   6.532  0.00  0.00     0.177 C 
BRANCH 207 208
HETATM  208  C   UNK N   1      19.469  16.434   6.741  0.00  0.00     0.045 C 
BRANCH 208 209
HETATM  209  C   UNK N   1      19.341  16.851   8.201  0.00  0.00     0.112 C 
BRANCH 209 210
HETATM  210  C   UNK N   1      19.937  18.205   8.417  0.00  0.00     0.139 C 
HETATM  211  O   UNK N   1      20.687  18.694   7.587  0.00  0.00    -0.650 OA
BRANCH 210 212
HETATM  212  O   UNK N   1      19.676  18.872   9.555  0.00  0.00    -0.776 OA
HETATM  213  H   UNK N   1      20.324  19.426   9.945  0.00  0.00     0.167 HD
ENDBRANCH 210 212
ENDBRANCH 209 210
ENDBRANCH 208 209
ENDBRANCH 207 208
BRANCH 207 214
HETATM  214  N   UNK N   1      20.217  14.725   5.157  0.00  0.00    -0.346 N 
HETATM  215  C   UNK N   1      19.828  13.463   4.868  0.00  0.00     0.241 C 
HETATM  216  O   UNK N   1      19.547  12.693   5.778  0.00  0.00    -0.271 OA
HETATM  217  H   UNK N   1      20.427  15.348   4.424  0.00  0.00     0.163 HD
BRANCH 215 218
HETATM  218  C   UNK N   1      19.817  12.946   3.454  0.00  0.00     0.177 C 
BRANCH 218 219
HETATM  219  N   UNK N   1      20.413  11.647   3.504  0.00  0.00    -0.346 N 
HETATM  220  C   UNK N   1      21.571  11.481   2.831  0.00  0.00     0.243 C 
HETATM  221  O   UNK N   1      21.860  12.235   1.908  0.00  0.00    -0.271 OA
HETATM  222  H   UNK N   1      19.998  10.908   4.007  0.00  0.00     0.163 HD
BRANCH 220 223
HETATM  223  C   UNK N   1      22.530  10.432   3.283  0.00  0.00     0.200 C 
BRANCH 223 224
HETATM  224  N   UNK N   1      22.313  10.344   4.698  0.00  0.00    -0.344 N 
HETATM  225  C   UNK N   1      22.879  11.268   5.508  0.00  0.00     0.241 C 
HETATM  226  O   UNK N   1      23.080  12.405   5.101  0.00  0.00    -0.271 OA
HETATM  227  H   UNK N   1      21.759   9.622   5.075  0.00  0.00     0.163 HD
BRANCH 225 228
HETATM  228  C   UNK N   1      23.446  10.876   6.830  0.00  0.00     0.180 C 
BRANCH 228 229
HETATM  229  C   UNK N   1      24.219  12.007   7.534  0.00  0.00     0.073 C 
BRANCH 229 230
HETATM  230  C   UNK N   1      23.901  11.999   8.996  0.00  0.00    -0.056 A 
HETATM  231  C   UNK N   1      22.622  11.608   9.413  0.00  0.00     0.010 A 
HETATM  232  C   UNK N   1      22.297  11.587  10.766  0.00  0.00     0.037 A 
HETATM  233  C   UNK N   1      23.252  11.938  11.716  0.00  0.00     0.065 A 
HETATM  234  C   UNK N   1      24.540  12.313  11.314  0.00  0.00     0.037 A 
HETATM  235  C   UNK N   1      24.865  12.351   9.951  0.00  0.00     0.010 A 
BRANCH 233 236
HETATM  236  O   UNK N   1      22.928  11.922  13.016  0.00  0.00    -0.361 OA
HETATM  237  H   UNK N   1      22.656  11.128  13.431  0.00  0.00     0.217 HD
ENDBRANCH 233 236
ENDBRANCH 229 230
ENDBRANCH 228 229
BRANCH 228 238
HETATM  238  N   UNK N   1      24.168   9.678   6.555  0.00  0.00    -0.346 N 
HETATM  239  C   UNK N   1      23.766   8.423   6.784  0.00  0.00     0.242 C 
HETATM  240  O   UNK N   1      22.583   8.112   6.781  0.00  0.00    -0.271 OA
HETATM  241  H   UNK N   1      25.059   9.786   6.152  0.00  0.00     0.163 HD
BRANCH 239 242
HETATM  242  C   UNK N   1      24.814   7.531   7.337  0.00  0.00     0.191 C 
BRANCH 242 243
HETATM  243  N   UNK N   1      25.952   7.435   6.445  0.00  0.00    -0.417 N 
HETATM  244  H   UNK N   1      26.406   8.144   5.870  0.00  0.00     0.150 HD
HETATM  245  H   UNK N   1      26.367   6.506   6.383  0.00  0.00     0.150 HD
ENDBRANCH 242 243
BRANCH 242 246
HETATM  246  C   UNK N   1      24.117   6.165   7.428  0.00  0.00     0.198 C 
BRANCH 246 247
HETATM  247  O   UNK N   1      23.577   5.937   8.687  0.00  0.00    -0.398 OA
HETATM  248  H   UNK N   1      24.053   5.396   9.336  0.00  0.00     0.209 HD
ENDBRANCH 246 247
ENDBRANCH 242 246
ENDBRANCH 239 242
ENDBRANCH 228 238
ENDBRANCH 225 228
ENDBRANCH 223 224
BRANCH 223 249
HETATM  249  C   UNK N   1      22.297   9.126   2.510  0.00  0.00     0.199 C 
BRANCH 249 250
HETATM  250  O   UNK N   1      22.768   9.236   1.207  0.00  0.00    -0.398 OA
HETATM  251  H   UNK N   1      22.940   9.927   0.549  0.00  0.00     0.209 HD
ENDBRANCH 249 250
ENDBRANCH 223 249
ENDBRANCH 220 223
ENDBRANCH 218 219
BRANCH 218 252
HETATM  252  C   UNK N   1      18.437  12.909   2.864  0.00  0.00     0.045 C 
BRANCH 252 253
HETATM  253  C   UNK N   1      18.007  11.466   2.777  0.00  0.00     0.076 C 
BRANCH 253 254
HETATM  254  S   UNK N   1      17.158  11.079   1.214  0.00  0.00    -0.173 SA
HETATM  255  C   UNK N   1      18.450  11.915   0.252  0.00  0.00     0.089 C 
ENDBRANCH 253 254
ENDBRANCH 252 253
ENDBRANCH 218 252
ENDBRANCH 215 218
ENDBRANCH 207 214
ENDBRANCH 204 207
ENDBRANCH 194 203
ENDBRANCH 191 194
ENDBRANCH 182 190
ENDBRANCH 179 182
ENDBRANCH 165 178
ENDBRANCH 162 165
ENDBRANCH 149 161
ENDBRANCH 146 149
ENDBRANCH 144 145
ENDBRANCH 141 144
ENDBRANCH 139 140
BRANCH 139 256
HETATM  256  C   UNK N   1      32.725  10.538   7.075  0.00  0.00     0.035 C 
BRANCH 256 257
HETATM  257  C   UNK N   1      32.751  10.419   8.577  0.00  0.00     0.004 C 
BRANCH 257 258
HETATM  258  C   UNK N   1      32.115   9.101   8.973  0.00  0.00     0.019 C 
BRANCH 258 259
HETATM  259  C   UNK N   1      32.313   8.821  10.452  0.00  0.00     0.111 C 
BRANCH 259 260
HETATM  260  N   UNK N   1      33.059   9.902  11.071  0.00  0.00    -0.430 N 
HETATM  261  H   UNK N   1      34.069  10.022  11.158  0.00  0.00     0.149 HD
HETATM  262  H   UNK N   1      32.493  10.648  11.476  0.00  0.00     0.149 HD
ENDBRANCH 259 260
ENDBRANCH 258 259
ENDBRANCH 257 258
ENDBRANCH 256 257
ENDBRANCH 139 256
ENDBRANCH   1 139
TORSDOF 104
ENDMDL
MODEL 8
REMARK VINA RESULT:      -5.2      2.214      5.300
REMARK WARNING: 32 MAX_TORS EXCEEDED!!!
REMARK  104 active torsions:
REMARK  status: ('A' for Active; 'I' for Inactive)
REMARK    1  A    between atoms: C_2  and  C_1 
REMARK       I    between atoms: C_1  and  N_7 
REMARK    2  A    between atoms: C_2  and  N_4 
REMARK    3  A    between atoms: C_5  and  C_2 
REMARK    4  A    between atoms: O_6  and  C_5 
REMARK    5  A    between atoms: C_10  and  N_7 
REMARK    6  A    between atoms: C_10  and  C_8 
REMARK       I    between atoms: C_8  and  N_19 
REMARK    7  A    between atoms: C_11  and  C_10 
REMARK    8  A    between atoms: C_12  and  C_11 
REMARK    9  A    between atoms: O_18  and  C_16 
REMARK   10  A    between atoms: C_21  and  N_19 
REMARK   11  A    between atoms: C_21  and  C_20 
REMARK       I    between atoms: C_20  and  N_25 
REMARK   12  A    between atoms: C_23  and  C_21 
REMARK   13  A    between atoms: O_24  and  C_23 
REMARK   14  A    between atoms: C_28  and  N_25 
REMARK   15  A    between atoms: C_28  and  C_26 
REMARK       I    between atoms: C_26  and  N_33 
REMARK   16  A    between atoms: C_30  and  C_28 
REMARK   17  A    between atoms: C_31  and  S_29 
REMARK   18  A    between atoms: C_31  and  C_30 
REMARK   19  A    between atoms: C_37  and  N_33 
REMARK   20  A    between atoms: C_37  and  C_34 
REMARK       I    between atoms: C_34  and  N_42 
REMARK   21  A    between atoms: C_40  and  C_35 
REMARK   22  A    between atoms: O_41  and  C_35 
REMARK   23  A    between atoms: C_39  and  C_37 
REMARK   24  A    between atoms: C_40  and  C_39 
REMARK   25  A    between atoms: C_45  and  N_42 
REMARK   26  A    between atoms: C_45  and  C_43 
REMARK       I    between atoms: C_43  and  N_53 
REMARK   27  A    between atoms: C_46  and  C_45 
REMARK   28  A    between atoms: C_47  and  C_46 
REMARK   29  A    between atoms: C_55  and  N_53 
REMARK   30  A    between atoms: C_55  and  C_54 
REMARK       I    between atoms: C_54  and  N_64 
REMARK   31  A    between atoms: C_57  and  C_55 
REMARK   32  A    between atoms: C_58  and  C_57 
REMARK   33  A    between atoms: C_71  and  N_64 
REMARK       I    between atoms: N_70  and  C_65 
REMARK       I    between atoms: N_72  and  C_65 
REMARK   34  A    between atoms: C_71  and  C_66 
REMARK       I    between atoms: C_66  and  N_76 
REMARK   35  A    between atoms: C_73  and  N_70 
REMARK   36  A    between atoms: C_74  and  C_71 
REMARK   37  A    between atoms: C_75  and  C_73 
REMARK   38  A    between atoms: C_75  and  C_74 
REMARK   39  A    between atoms: C_79  and  N_76 
REMARK   40  A    between atoms: C_79  and  C_77 
REMARK       I    between atoms: C_77  and  N_90 
REMARK   41  A    between atoms: C_80  and  C_79 
REMARK   42  A    between atoms: C_81  and  C_80 
REMARK   43  A    between atoms: N_90  and  C_93 
REMARK   44  A    between atoms: C_93  and  C_91 
REMARK       I    between atoms: C_91  and  N_94 
REMARK   45  A    between atoms: C_97  and  N_94 
REMARK       I    between atoms: N_96  and  C_95 
REMARK   46  A    between atoms: C_97  and  C_95 
REMARK   47  A    between atoms: C_100  and  C_97 
REMARK   48  A    between atoms: C_99  and  N_98 
REMARK   49  A    between atoms: C_101  and  C_99 
REMARK   50  A    between atoms: C_102  and  C_100 
REMARK   51  A    between atoms: C_102  and  C_101 
REMARK   52  A    between atoms: C_104  and  C_108 
REMARK       I    between atoms: C_108  and  N_110 
REMARK   53  A    between atoms: C_112  and  N_110 
REMARK   54  A    between atoms: C_112  and  C_111 
REMARK       I    between atoms: C_111  and  N_117 
REMARK   55  A    between atoms: C_114  and  C_112 
REMARK   56  A    between atoms: N_117  and  C_120 
REMARK   57  A    between atoms: C_120  and  C_118 
REMARK       I    between atoms: C_118  and  N_121 
REMARK   58  A    between atoms: C_124  and  N_121 
REMARK   59  A    between atoms: C_124  and  C_122 
REMARK       I    between atoms: C_122  and  N_130 
REMARK   60  A    between atoms: C_127  and  C_124 
REMARK   61  A    between atoms: C_126  and  N_125 
REMARK   62  A    between atoms: C_128  and  C_126 
REMARK   63  A    between atoms: C_129  and  C_127 
REMARK   64  A    between atoms: C_129  and  C_128 
REMARK   65  A    between atoms: C_133  and  N_130 
REMARK   66  A    between atoms: C_133  and  C_131 
REMARK       I    between atoms: C_131  and  N_139 
REMARK   67  A    between atoms: C_136  and  C_133 
REMARK   68  A    between atoms: C_135  and  N_134 
REMARK   69  A    between atoms: C_137  and  C_135 
REMARK   70  A    between atoms: C_138  and  C_136 
REMARK   71  A    between atoms: C_138  and  C_137 
REMARK   72  A    between atoms: C_146  and  N_139 
REMARK       I    between atoms: N_145  and  C_140 
REMARK       I    between atoms: N_147  and  C_140 
REMARK   73  A    between atoms: C_146  and  C_141 
REMARK       I    between atoms: C_141  and  N_151 
REMARK   74  A    between atoms: C_148  and  N_145 
REMARK   75  A    between atoms: C_149  and  C_146 
REMARK   76  A    between atoms: C_150  and  C_148 
REMARK   77  A    between atoms: C_150  and  C_149 
REMARK   78  A    between atoms: C_158  and  N_151 
REMARK       I    between atoms: N_157  and  C_152 
REMARK       I    between atoms: N_159  and  C_152 
REMARK   79  A    between atoms: C_158  and  C_153 
REMARK       I    between atoms: N_156  and  C_153 
REMARK   80  A    between atoms: C_160  and  N_157 
REMARK   81  A    between atoms: C_161  and  C_158 
REMARK   82  A    between atoms: C_162  and  C_160 
REMARK   83  A    between atoms: C_162  and  C_161 
REMARK   84  A    between atoms: C_164  and  C_168 
REMARK       I    between atoms: C_168  and  N_170 
REMARK   85  A    between atoms: C_172  and  N_170 
REMARK   86  A    between atoms: C_172  and  C_171 
REMARK       I    between atoms: C_171  and  N_177 
REMARK   87  A    between atoms: C_174  and  C_172 
REMARK   88  A    between atoms: C_180  and  N_177 
REMARK   89  A    between atoms: C_180  and  C_178 
REMARK       I    between atoms: C_178  and  N_186 
REMARK   90  A    between atoms: C_183  and  C_180 
REMARK   91  A    between atoms: C_182  and  N_181 
REMARK   92  A    between atoms: C_184  and  C_182 
REMARK   93  A    between atoms: C_185  and  C_183 
REMARK   94  A    between atoms: C_185  and  C_184 
REMARK   95  A    between atoms: C_188  and  N_186 
REMARK   96  A    between atoms: C_188  and  C_187 
REMARK       I    between atoms: C_187  and  N_193 
REMARK   97  A    between atoms: C_190  and  C_188 
REMARK   98  A    between atoms: C_196  and  N_193 
REMARK       I    between atoms: N_195  and  C_194 
REMARK   99  A    between atoms: C_196  and  C_194 
REMARK  100  A    between atoms: C_197  and  C_196 
REMARK  101  A    between atoms: C_198  and  C_197 
REMARK  102  A    between atoms: O_204  and  C_202 
REMARK  103  A    between atoms: C_206  and  C_210 
REMARK  104  A    between atoms: C_210  and  O_212 
ROOT
HETATM    1  C   UNK N   1      33.508  13.668   6.524  0.00  0.00     0.243 C 
HETATM    2  N   UNK N   1      34.421  12.656   6.351  0.00  0.00    -0.337 N 
HETATM    3  O   UNK N   1      32.538  13.495   7.249  0.00  0.00    -0.271 OA
HETATM    4  C   UNK N   1      35.663  12.839   5.649  0.00  0.00     0.179 C 
HETATM    5  C   UNK N   1      34.219  11.338   6.875  0.00  0.00     0.127 C 
HETATM    6  C   UNK N   1      35.339  10.500   6.276  0.00  0.00     0.022 C 
HETATM    7  C   UNK N   1      36.207  11.435   5.431  0.00  0.00     0.037 C 
ENDROOT
BRANCH   4   8
HETATM    8  C   UNK N   1      36.513  13.614   6.609  0.00  0.00     0.241 C 
HETATM    9  O   UNK N   1      37.187  14.544   6.194  0.00  0.00    -0.271 OA
HETATM   10  N   UNK N   1      36.785  13.041   7.802  0.00  0.00    -0.346 N 
HETATM   11  H   UNK N   1      36.100  12.452   8.194  0.00  0.00     0.163 HD
BRANCH  10  12
HETATM   12  C   UNK N   1      38.014  13.234   8.545  0.00  0.00     0.180 C 
BRANCH  12  13
HETATM   13  C   UNK N   1      38.088  14.193   9.721  0.00  0.00     0.241 C 
HETATM   14  O   UNK N   1      38.988  15.015   9.746  0.00  0.00    -0.271 OA
HETATM   15  N   UNK N   1      37.241  14.121  10.780  0.00  0.00    -0.351 N 
HETATM   16  H   UNK N   1      37.419  14.704  11.553  0.00  0.00     0.163 HD
BRANCH  15  17
HETATM   17  C   UNK N   1      36.094  13.245  10.845  0.00  0.00     0.225 C 
BRANCH  17  18
HETATM   18  C   UNK N   1      35.489  13.422  12.185  0.00  0.00     0.236 C 
HETATM   19  O   UNK N   1      34.543  14.185  12.327  0.00  0.00    -0.272 OA
HETATM   20  N   UNK N   1      35.874  12.597  13.187  0.00  0.00    -0.346 N 
HETATM   21  H   UNK N   1      36.746  12.144  13.126  0.00  0.00     0.163 HD
BRANCH  20  22
HETATM   22  C   UNK N   1      35.046  12.365  14.335  0.00  0.00     0.176 C 
BRANCH  22  23
HETATM   23  C   UNK N   1      34.824  10.881  14.386  0.00  0.00     0.241 C 
HETATM   24  O   UNK N   1      33.696  10.429  14.527  0.00  0.00    -0.271 OA
HETATM   25  N   UNK N   1      35.889  10.061  14.399  0.00  0.00    -0.346 N 
HETATM   26  H   UNK N   1      36.789  10.445  14.287  0.00  0.00     0.163 HD
BRANCH  25  27
HETATM   27  C   UNK N   1      35.754   8.637  14.569  0.00  0.00     0.176 C 
BRANCH  27  28
HETATM   28  C   UNK N   1      36.779   7.902  13.760  0.00  0.00     0.241 C 
HETATM   29  O   UNK N   1      37.834   7.600  14.291  0.00  0.00    -0.271 OA
HETATM   30  N   UNK N   1      36.563   7.533  12.475  0.00  0.00    -0.346 N 
HETATM   31  H   UNK N   1      37.301   7.099  11.988  0.00  0.00     0.163 HD
BRANCH  30  32
HETATM   32  C   UNK N   1      35.314   7.739  11.768  0.00  0.00     0.176 C 
BRANCH  32  33
HETATM   33  C   UNK N   1      35.182   8.966  10.879  0.00  0.00     0.241 C 
HETATM   34  O   UNK N   1      34.965  10.054  11.382  0.00  0.00    -0.271 OA
HETATM   35  N   UNK N   1      35.329   8.866   9.530  0.00  0.00    -0.346 N 
HETATM   36  H   UNK N   1      35.331   9.678   8.974  0.00  0.00     0.163 HD
BRANCH  35  37
HETATM   37  C   UNK N   1      35.481   7.567   8.914  0.00  0.00     0.176 C 
BRANCH  37  38
HETATM   38  C   UNK N   1      34.156   7.206   8.252  0.00  0.00     0.243 C 
HETATM   39  N   UNK N   1      33.714   5.920   8.203  0.00  0.00    -0.337 N 
HETATM   40  C   UNK N   1      34.607   4.802   8.259  0.00  0.00     0.179 C 
HETATM   41  C   UNK N   1      32.369   5.590   7.822  0.00  0.00     0.127 C 
HETATM   42  C   UNK N   1      33.674   3.610   8.402  0.00  0.00     0.037 C 
HETATM   43  C   UNK N   1      32.311   4.076   7.885  0.00  0.00     0.022 C 
HETATM   44  O   UNK N   1      33.407   8.108   7.902  0.00  0.00    -0.271 OA
BRANCH  40  45
HETATM   45  C   UNK N   1      35.247   4.752   6.889  0.00  0.00     0.241 C 
HETATM   46  O   UNK N   1      36.354   4.263   6.726  0.00  0.00    -0.271 OA
HETATM   47  N   UNK N   1      34.534   5.250   5.845  0.00  0.00    -0.346 N 
HETATM   48  H   UNK N   1      33.638   5.606   6.047  0.00  0.00     0.163 HD
BRANCH  47  49
HETATM   49  C   UNK N   1      34.955   5.305   4.489  0.00  0.00     0.180 C 
BRANCH  49  50
HETATM   50  C   UNK N   1      35.782   6.544   4.287  0.00  0.00     0.241 C 
HETATM   51  O   UNK N   1      36.936   6.596   4.688  0.00  0.00    -0.271 OA
HETATM   52  N   UNK N   1      35.218   7.638   3.713  0.00  0.00    -0.346 N 
HETATM   53  H   UNK N   1      35.756   8.457   3.617  0.00  0.00     0.163 HD
BRANCH  52  54
HETATM   54  C   UNK N   1      33.841   7.640   3.235  0.00  0.00     0.176 C 
BRANCH  54  55
HETATM   55  C   UNK N   1      33.778   8.584   2.079  0.00  0.00     0.241 C 
HETATM   56  O   UNK N   1      34.206   8.265   0.981  0.00  0.00    -0.271 OA
HETATM   57  N   UNK N   1      33.425   9.845   2.370  0.00  0.00    -0.346 N 
HETATM   58  H   UNK N   1      32.932   9.934   3.217  0.00  0.00     0.163 HD
BRANCH  57  59
HETATM   59  C   UNK N   1      33.626  11.089   1.684  0.00  0.00     0.180 C 
BRANCH  59  60
HETATM   60  C   UNK N   1      32.311  11.792   1.857  0.00  0.00     0.241 C 
HETATM   61  O   UNK N   1      31.983  12.215   2.957  0.00  0.00    -0.271 OA
HETATM   62  N   UNK N   1      31.428  11.858   0.840  0.00  0.00    -0.346 N 
HETATM   63  H   UNK N   1      30.574  12.323   0.992  0.00  0.00     0.163 HD
BRANCH  62  64
HETATM   64  C   UNK N   1      31.669  11.277  -0.466  0.00  0.00     0.181 C 
BRANCH  64  65
HETATM   65  C   UNK N   1      30.450  10.684  -1.145  0.00  0.00     0.243 C 
HETATM   66  N   UNK N   1      30.202   9.343  -1.225  0.00  0.00    -0.336 N 
HETATM   67  C   UNK N   1      29.118   8.800  -1.982  0.00  0.00     0.185 C 
HETATM   68  C   UNK N   1      31.015   8.341  -0.573  0.00  0.00     0.127 C 
HETATM   69  C   UNK N   1      28.998   7.360  -1.507  0.00  0.00     0.038 C 
HETATM   70  C   UNK N   1      30.332   7.018  -0.856  0.00  0.00     0.022 C 
HETATM   71  O   UNK N   1      29.649  11.462  -1.678  0.00  0.00    -0.271 OA
BRANCH  67  72
HETATM   72  C   UNK N   1      29.485   8.869  -3.450  0.00  0.00     0.163 C 
HETATM   73  O   UNK N   1      30.617   8.593  -3.810  0.00  0.00    -0.648 OA
BRANCH  72  74
HETATM   74  O   UNK N   1      28.559   9.190  -4.376  0.00  0.00    -0.775 OA
HETATM   75  H   UNK N   1      28.152   8.632  -5.009  0.00  0.00     0.167 HD
ENDBRANCH  72  74
ENDBRANCH  67  72
ENDBRANCH  64  65
BRANCH  64  76
HETATM   76  C   UNK N   1      32.515  12.194  -1.355  0.00  0.00     0.073 C 
BRANCH  76  77
HETATM   77  C   UNK N   1      33.284  11.373  -2.334  0.00  0.00    -0.056 A 
HETATM   78  C   UNK N   1      34.277  10.505  -1.872  0.00  0.00     0.010 A 
HETATM   79  C   UNK N   1      34.957   9.679  -2.773  0.00  0.00     0.037 A 
HETATM   80  C   UNK N   1      34.643   9.722  -4.136  0.00  0.00     0.065 A 
HETATM   81  C   UNK N   1      33.663  10.602  -4.600  0.00  0.00     0.037 A 
HETATM   82  C   UNK N   1      32.985  11.427  -3.701  0.00  0.00     0.010 A 
BRANCH  80  83
HETATM   83  O   UNK N   1      35.279   8.913  -4.997  0.00  0.00    -0.361 OA
HETATM   84  H   UNK N   1      36.086   9.174  -5.394  0.00  0.00     0.217 HD
ENDBRANCH  80  83
ENDBRANCH  76  77
ENDBRANCH  64  76
ENDBRANCH  62  64
ENDBRANCH  59  60
BRANCH  59  85
HETATM   85  C   UNK N   1      34.846  11.992   1.994  0.00  0.00     0.009 C 
HETATM   86  C   UNK N   1      34.719  13.424   1.515  0.00  0.00     0.012 C 
HETATM   87  C   UNK N   1      36.211  11.419   1.680  0.00  0.00     0.012 C 
ENDBRANCH  59  85
ENDBRANCH  57  59
ENDBRANCH  54  55
BRANCH  54  88
HETATM   88  C   UNK N   1      32.934   8.151   4.351  0.00  0.00     0.035 C 
BRANCH  88  89
HETATM   89  C   UNK N   1      31.683   7.304   4.560  0.00  0.00     0.004 C 
BRANCH  89  90
HETATM   90  C   UNK N   1      30.484   8.100   5.046  0.00  0.00     0.019 C 
BRANCH  90  91
HETATM   91  C   UNK N   1      30.986   9.330   5.775  0.00  0.00     0.111 C 
BRANCH  91  92
HETATM   92  N   UNK N   1      30.781   9.169   7.202  0.00  0.00    -0.430 N 
HETATM   93  H   UNK N   1      31.018   9.599   8.095  0.00  0.00     0.149 HD
HETATM   94  H   UNK N   1      30.203   8.344   7.368  0.00  0.00     0.149 HD
ENDBRANCH  91  92
ENDBRANCH  90  91
ENDBRANCH  89  90
ENDBRANCH  88  89
ENDBRANCH  54  88
ENDBRANCH  52  54
ENDBRANCH  49  50
BRANCH  49  95
HETATM   95  C   UNK N   1      35.615   3.992   4.060  0.00  0.00     0.009 C 
HETATM   96  C   UNK N   1      36.225   4.160   2.685  0.00  0.00     0.012 C 
HETATM   97  C   UNK N   1      34.634   2.829   4.020  0.00  0.00     0.012 C 
ENDBRANCH  49  95
ENDBRANCH  47  49
ENDBRANCH  40  45
ENDBRANCH  37  38
BRANCH  37  98
HETATM   98  C   UNK N   1      36.745   7.393   8.064  0.00  0.00     0.036 C 
BRANCH  98  99
HETATM   99  C   UNK N   1      38.039   7.040   8.809  0.00  0.00     0.023 C 
BRANCH  99 100
HETATM  100  C   UNK N   1      38.022   5.689   9.514  0.00  0.00     0.138 C 
BRANCH 100 101
HETATM  101  N   UNK N   1      38.968   5.682  10.604  0.00  0.00    -0.227 N 
HETATM  102  C   UNK N   1      40.207   4.988  10.555  0.00  0.00     0.665 C 
HETATM  103  N   UNK N   1      41.038   5.107  11.521  0.00  0.00    -0.235 N 
HETATM  104  N   UNK N   1      40.556   4.213   9.426  0.00  0.00    -0.235 N 
HETATM  105  H   UNK N   1      41.802   4.536  11.769  0.00  0.00     0.174 HD
ATOM    106  HN  UNK N   1      40.886   5.913  12.127  1.00  0.00     0.174 HD
HETATM  107  H   UNK N   1      40.501   4.583   8.515  0.00  0.00     0.174 HD
HETATM  108  H   UNK N   1      40.860   3.286   9.552  0.00  0.00     0.174 HD
HETATM  109  H   UNK N   1      38.744   6.183  11.422  0.00  0.00     0.177 HD
ENDBRANCH 100 101
ENDBRANCH  99 100
ENDBRANCH  98  99
ENDBRANCH  37  98
ENDBRANCH  35  37
ENDBRANCH  32  33
BRANCH  32 110
HETATM  110  C   UNK N   1      34.240   6.667  11.952  0.00  0.00     0.036 C 
BRANCH 110 111
HETATM  111  C   UNK N   1      34.865   5.281  11.824  0.00  0.00     0.023 C 
BRANCH 111 112
HETATM  112  C   UNK N   1      33.890   4.166  12.160  0.00  0.00     0.138 C 
BRANCH 112 113
HETATM  113  N   UNK N   1      32.560   4.510  11.714  0.00  0.00    -0.227 N 
HETATM  114  C   UNK N   1      31.398   4.233  12.482  0.00  0.00     0.665 C 
HETATM  115  N   UNK N   1      30.248   4.586  12.042  0.00  0.00    -0.235 N 
HETATM  116  N   UNK N   1      31.495   3.564  13.724  0.00  0.00    -0.235 N 
HETATM  117  H   UNK N   1      29.698   5.400  11.970  0.00  0.00     0.174 HD
ATOM    118  HN  UNK N   1      29.755   3.786  11.648  1.00  0.00     0.174 HD
HETATM  119  H   UNK N   1      31.060   2.692  13.861  0.00  0.00     0.174 HD
HETATM  120  H   UNK N   1      32.005   3.974  14.460  0.00  0.00     0.174 HD
HETATM  121  H   UNK N   1      32.454   4.955  10.843  0.00  0.00     0.177 HD
ENDBRANCH 112 113
ENDBRANCH 111 112
ENDBRANCH 110 111
ENDBRANCH  32 110
ENDBRANCH  30  32
ENDBRANCH  27  28
BRANCH  27 122
HETATM  122  C   UNK N   1      35.840   8.272  16.037  0.00  0.00     0.035 C 
BRANCH 122 123
HETATM  123  C   UNK N   1      36.577   9.338  16.818  0.00  0.00     0.004 C 
BRANCH 123 124
HETATM  124  C   UNK N   1      36.687   8.963  18.279  0.00  0.00     0.019 C 
BRANCH 124 125
HETATM  125  C   UNK N   1      36.522  10.221  19.105  0.00  0.00     0.111 C 
BRANCH 125 126
HETATM  126  N   UNK N   1      37.312  10.119  20.316  0.00  0.00    -0.430 N 
HETATM  127  H   UNK N   1      37.151  10.187  21.320  0.00  0.00     0.149 HD
HETATM  128  H   UNK N   1      38.291   9.927  20.107  0.00  0.00     0.149 HD
ENDBRANCH 125 126
ENDBRANCH 124 125
ENDBRANCH 123 124
ENDBRANCH 122 123
ENDBRANCH  27 122
ENDBRANCH  25  27
ENDBRANCH  22  23
BRANCH  22 129
HETATM  129  C   UNK N   1      35.766  12.858  15.585  0.00  0.00     0.035 C 
BRANCH 129 130
HETATM  130  C   UNK N   1      34.915  12.657  16.824  0.00  0.00     0.004 C 
BRANCH 130 131
HETATM  131  C   UNK N   1      35.294  13.667  17.889  0.00  0.00     0.019 C 
BRANCH 131 132
HETATM  132  C   UNK N   1      36.109  14.798  17.295  0.00  0.00     0.111 C 
BRANCH 132 133
HETATM  133  N   UNK N   1      36.276  15.841  18.285  0.00  0.00    -0.430 N 
HETATM  134  H   UNK N   1      35.748  16.305  19.024  0.00  0.00     0.149 HD
HETATM  135  H   UNK N   1      37.215  16.234  18.225  0.00  0.00     0.149 HD
ENDBRANCH 132 133
ENDBRANCH 131 132
ENDBRANCH 130 131
ENDBRANCH 129 130
ENDBRANCH  22 129
ENDBRANCH  20  22
ENDBRANCH  17  18
ENDBRANCH  15  17
ENDBRANCH  12  13
BRANCH  12 136
HETATM  136  C   UNK N   1      39.029  12.116   8.330  0.00  0.00     0.009 C 
HETATM  137  C   UNK N   1      39.834  12.295   7.057  0.00  0.00     0.012 C 
HETATM  138  C   UNK N   1      38.403  10.739   8.401  0.00  0.00     0.012 C 
ENDBRANCH  12 136
ENDBRANCH  10  12
ENDBRANCH   4   8
BRANCH   1 139
HETATM  139  C   UNK N   1      33.598  14.926   5.659  0.00  0.00     0.176 C 
BRANCH 139 140
HETATM  140  N   UNK N   1      32.668  14.639   4.578  0.00  0.00    -0.346 N 
HETATM  141  C   UNK N   1      32.358  15.614   3.688  0.00  0.00     0.236 C 
HETATM  142  O   UNK N   1      33.108  16.557   3.540  0.00  0.00    -0.272 OA
HETATM  143  H   UNK N   1      32.266  13.744   4.493  0.00  0.00     0.163 HD
BRANCH 141 144
HETATM  144  C   UNK N   1      30.976  15.752   3.188  0.00  0.00     0.225 C 
BRANCH 144 145
HETATM  145  N   UNK N   1      30.192  14.809   3.966  0.00  0.00    -0.351 N 
HETATM  146  C   UNK N   1      28.928  15.011   4.454  0.00  0.00     0.241 C 
HETATM  147  O   UNK N   1      28.446  14.158   5.184  0.00  0.00    -0.271 OA
HETATM  148  H   UNK N   1      30.611  13.940   4.163  0.00  0.00     0.163 HD
BRANCH 146 149
HETATM  149  C   UNK N   1      28.062  16.215   4.109  0.00  0.00     0.181 C 
BRANCH 149 150
HETATM  150  C   UNK N   1      28.729  17.559   4.485  0.00  0.00     0.075 C 
BRANCH 150 151
HETATM  151  C   UNK N   1      28.384  18.232   5.800  0.00  0.00    -0.028 A 
HETATM  152  C   UNK N   1      27.454  19.245   6.049  0.00  0.00     0.096 A 
HETATM  153  N   UNK N   1      27.481  19.588   7.359  0.00  0.00    -0.365 N 
HETATM  154  C   UNK N   1      28.400  18.793   7.929  0.00  0.00     0.042 A 
HETATM  155  H   UNK N   1      26.937  20.278   7.802  0.00  0.00     0.165 HD
HETATM  156  C   UNK N   1      28.963  17.951   7.012  0.00  0.00    -0.002 A 
HETATM  157  C   UNK N   1      28.770  18.780   9.270  0.00  0.00     0.030 A 
HETATM  158  C   UNK N   1      29.940  17.025   7.371  0.00  0.00     0.014 A 
HETATM  159  C   UNK N   1      30.332  16.978   8.722  0.00  0.00     0.001 A 
HETATM  160  C   UNK N   1      29.751  17.855   9.667  0.00  0.00     0.002 A 
ENDBRANCH 150 151
ENDBRANCH 149 150
BRANCH 149 161
HETATM  161  N   UNK N   1      27.540  16.182   2.769  0.00  0.00    -0.346 N 
HETATM  162  C   UNK N   1      26.315  15.730   2.418  0.00  0.00     0.241 C 
HETATM  163  O   UNK N   1      26.017  15.725   1.236  0.00  0.00    -0.271 OA
HETATM  164  H   UNK N   1      28.122  16.517   2.048  0.00  0.00     0.163 HD
BRANCH 162 165
HETATM  165  C   UNK N   1      25.306  15.225   3.418  0.00  0.00     0.176 C 
BRANCH 165 166
HETATM  166  C   UNK N   1      24.341  16.113   4.192  0.00  0.00     0.036 C 
BRANCH 166 167
HETATM  167  C   UNK N   1      24.699  17.572   4.000  0.00  0.00     0.023 C 
BRANCH 167 168
HETATM  168  C   UNK N   1      23.556  18.480   4.430  0.00  0.00     0.138 C 
BRANCH 168 169
HETATM  169  N   UNK N   1      23.184  19.397   3.380  0.00  0.00    -0.227 N 
HETATM  170  C   UNK N   1      21.878  19.940   3.272  0.00  0.00     0.665 C 
HETATM  171  N   UNK N   1      21.626  20.809   2.366  0.00  0.00    -0.235 N 
HETATM  172  N   UNK N   1      20.860  19.553   4.173  0.00  0.00    -0.235 N 
HETATM  173  H   UNK N   1      21.760  20.858   1.391  0.00  0.00     0.174 HD
ATOM    174  HN  UNK N   1      21.182  21.647   2.741  1.00  0.00     0.174 HD
HETATM  175  H   UNK N   1      20.316  20.238   4.626  0.00  0.00     0.174 HD
HETATM  176  H   UNK N   1      20.695  18.598   4.348  0.00  0.00     0.174 HD
HETATM  177  H   UNK N   1      23.861  19.657   2.713  0.00  0.00     0.177 HD
ENDBRANCH 168 169
ENDBRANCH 167 168
ENDBRANCH 166 167
ENDBRANCH 165 166
BRANCH 165 178
HETATM  178  N   UNK N   1      25.581  13.907   3.945  0.00  0.00    -0.346 N 
HETATM  179  C   UNK N   1      24.850  12.789   3.689  0.00  0.00     0.241 C 
HETATM  180  O   UNK N   1      25.146  11.755   4.264  0.00  0.00    -0.271 OA
HETATM  181  H   UNK N   1      26.362  13.811   4.537  0.00  0.00     0.163 HD
BRANCH 179 182
HETATM  182  C   UNK N   1      23.681  12.760   2.718  0.00  0.00     0.180 C 
BRANCH 182 183
HETATM  183  C   UNK N   1      24.206  12.612   1.287  0.00  0.00     0.073 C 
BRANCH 183 184
HETATM  184  C   UNK N   1      23.993  11.280   0.628  0.00  0.00    -0.056 A 
HETATM  185  C   UNK N   1      22.759  10.993   0.038  0.00  0.00     0.007 A 
HETATM  186  C   UNK N   1      22.594   9.813  -0.695  0.00  0.00     0.001 A 
HETATM  187  C   UNK N   1      23.657   8.919  -0.852  0.00  0.00     0.000 A 
HETATM  188  C   UNK N   1      24.890   9.196  -0.261  0.00  0.00     0.001 A 
HETATM  189  C   UNK N   1      25.057  10.376   0.470  0.00  0.00     0.007 A 
ENDBRANCH 183 184
ENDBRANCH 182 183
BRANCH 182 190
HETATM  190  N   UNK N   1      22.726  11.708   3.013  0.00  0.00    -0.346 N 
HETATM  191  C   UNK N   1      21.376  11.792   2.955  0.00  0.00     0.241 C 
HETATM  192  O   UNK N   1      20.717  10.786   3.169  0.00  0.00    -0.271 OA
HETATM  193  H   UNK N   1      23.100  10.838   3.285  0.00  0.00     0.163 HD
BRANCH 191 194
HETATM  194  C   UNK N   1      20.674  13.101   2.677  0.00  0.00     0.182 C 
BRANCH 194 195
HETATM  195  C   UNK N   1      21.515  14.335   2.944  0.00  0.00     0.093 C 
BRANCH 195 196
HETATM  196  C   UNK N   1      20.954  15.397   2.069  0.00  0.00     0.028 A 
HETATM  197  N   UNK N   1      20.597  16.613   2.511  0.00  0.00    -0.354 N 
HETATM  198  C   UNK N   1      20.076  17.233   1.436  0.00  0.00     0.180 A 
HETATM  199  H   UNK N   1      20.695  16.973   3.421  0.00  0.00     0.166 HD
HETATM  200  N   UNK N   1      20.090  16.438   0.344  0.00  0.00    -0.360 N 
HETATM  201  C   UNK N   1      20.641  15.275   0.740  0.00  0.00     0.114 A 
ATOM    202  HN  UNK N   1      19.752  16.671  -0.589  1.00  0.00     0.166 HD
ENDBRANCH 195 196
ENDBRANCH 194 195
BRANCH 194 203
HETATM  203  N   UNK N   1      19.355  13.190   3.250  0.00  0.00    -0.346 N 
HETATM  204  C   UNK N   1      19.081  13.612   4.498  0.00  0.00     0.241 C 
HETATM  205  O   UNK N   1      17.920  13.599   4.874  0.00  0.00    -0.271 OA
HETATM  206  H   UNK N   1      18.595  12.918   2.685  0.00  0.00     0.163 HD
BRANCH 204 207
HETATM  207  C   UNK N   1      20.192  14.095   5.418  0.00  0.00     0.177 C 
BRANCH 207 208
HETATM  208  C   UNK N   1      19.850  15.351   6.242  0.00  0.00     0.045 C 
BRANCH 208 209
HETATM  209  C   UNK N   1      20.867  16.476   6.093  0.00  0.00     0.112 C 
BRANCH 209 210
HETATM  210  C   UNK N   1      20.803  17.404   7.264  0.00  0.00     0.139 C 
HETATM  211  O   UNK N   1      20.606  16.972   8.389  0.00  0.00    -0.650 OA
BRANCH 210 212
HETATM  212  O   UNK N   1      20.922  18.728   7.069  0.00  0.00    -0.776 OA
HETATM  213  H   UNK N   1      20.824  19.329   7.782  0.00  0.00     0.167 HD
ENDBRANCH 210 212
ENDBRANCH 209 210
ENDBRANCH 208 209
ENDBRANCH 207 208
BRANCH 207 214
HETATM  214  N   UNK N   1      20.641  13.036   6.300  0.00  0.00    -0.346 N 
HETATM  215  C   UNK N   1      21.959  12.803   6.492  0.00  0.00     0.241 C 
HETATM  216  O   UNK N   1      22.787  13.508   5.929  0.00  0.00    -0.271 OA
HETATM  217  H   UNK N   1      19.977  12.478   6.766  0.00  0.00     0.163 HD
BRANCH 215 218
HETATM  218  C   UNK N   1      22.441  11.635   7.311  0.00  0.00     0.177 C 
BRANCH 218 219
HETATM  219  N   UNK N   1      23.196  10.811   6.418  0.00  0.00    -0.346 N 
HETATM  220  C   UNK N   1      23.449   9.548   6.820  0.00  0.00     0.243 C 
HETATM  221  O   UNK N   1      23.421   9.265   8.013  0.00  0.00    -0.271 OA
HETATM  222  H   UNK N   1      23.515  11.150   5.550  0.00  0.00     0.163 HD
BRANCH 220 223
HETATM  223  C   UNK N   1      23.672   8.489   5.794  0.00  0.00     0.200 C 
BRANCH 223 224
HETATM  224  N   UNK N   1      24.795   8.965   5.038  0.00  0.00    -0.344 N 
HETATM  225  C   UNK N   1      24.888   8.642   3.727  0.00  0.00     0.241 C 
HETATM  226  O   UNK N   1      23.877   8.461   3.062  0.00  0.00    -0.271 OA
HETATM  227  H   UNK N   1      25.486   9.520   5.466  0.00  0.00     0.163 HD
BRANCH 225 228
HETATM  228  C   UNK N   1      26.208   8.308   3.118  0.00  0.00     0.180 C 
BRANCH 228 229
HETATM  229  C   UNK N   1      27.023   7.283   3.929  0.00  0.00     0.073 C 
BRANCH 229 230
HETATM  230  C   UNK N   1      27.532   6.211   3.016  0.00  0.00    -0.056 A 
HETATM  231  C   UNK N   1      26.890   5.999   1.790  0.00  0.00     0.010 A 
HETATM  232  C   UNK N   1      27.340   5.012   0.919  0.00  0.00     0.037 A 
HETATM  233  C   UNK N   1      28.449   4.241   1.257  0.00  0.00     0.065 A 
HETATM  234  C   UNK N   1      29.112   4.455   2.472  0.00  0.00     0.037 A 
HETATM  235  C   UNK N   1      28.650   5.437   3.358  0.00  0.00     0.010 A 
BRANCH 233 236
HETATM  236  O   UNK N   1      28.872   3.287   0.415  0.00  0.00    -0.361 OA
HETATM  237  H   UNK N   1      28.396   2.486   0.323  0.00  0.00     0.217 HD
ENDBRANCH 233 236
ENDBRANCH 229 230
ENDBRANCH 228 229
BRANCH 228 238
HETATM  238  N   UNK N   1      26.814   9.578   2.890  0.00  0.00    -0.346 N 
HETATM  239  C   UNK N   1      28.085   9.815   2.548  0.00  0.00     0.242 C 
HETATM  240  O   UNK N   1      28.744   9.008   1.908  0.00  0.00    -0.271 OA
HETATM  241  H   UNK N   1      26.234  10.366   2.997  0.00  0.00     0.163 HD
BRANCH 239 242
HETATM  242  C   UNK N   1      28.710  10.961   3.253  0.00  0.00     0.191 C 
BRANCH 242 243
HETATM  243  N   UNK N   1      28.140  11.146   4.572  0.00  0.00    -0.417 N 
HETATM  244  H   UNK N   1      28.350  10.683   5.457  0.00  0.00     0.150 HD
HETATM  245  H   UNK N   1      27.409  11.855   4.625  0.00  0.00     0.150 HD
ENDBRANCH 242 243
BRANCH 242 246
HETATM  246  C   UNK N   1      28.358  12.167   2.369  0.00  0.00     0.198 C 
BRANCH 246 247
HETATM  247  O   UNK N   1      28.217  11.812   1.034  0.00  0.00    -0.398 OA
HETATM  248  H   UNK N   1      27.931  10.918   0.789  0.00  0.00     0.209 HD
ENDBRANCH 246 247
ENDBRANCH 242 246
ENDBRANCH 239 242
ENDBRANCH 228 238
ENDBRANCH 225 228
ENDBRANCH 223 224
BRANCH 223 249
HETATM  249  C   UNK N   1      23.877   7.125   6.467  0.00  0.00     0.199 C 
BRANCH 249 250
HETATM  250  O   UNK N   1      22.688   6.670   7.025  0.00  0.00    -0.398 OA
HETATM  251  H   UNK N   1      22.044   6.945   7.696  0.00  0.00     0.209 HD
ENDBRANCH 249 250
ENDBRANCH 223 249
ENDBRANCH 220 223
ENDBRANCH 218 219
BRANCH 218 252
HETATM  252  C   UNK N   1      23.251  12.060   8.502  0.00  0.00     0.045 C 
BRANCH 252 253
HETATM  253  C   UNK N   1      22.307  12.247   9.664  0.00  0.00     0.076 C 
BRANCH 253 254
HETATM  254  S   UNK N   1      23.111  11.961  11.273  0.00  0.00    -0.173 SA
HETATM  255  C   UNK N   1      24.750  12.284  10.562  0.00  0.00     0.089 C 
ENDBRANCH 253 254
ENDBRANCH 252 253
ENDBRANCH 218 252
ENDBRANCH 215 218
ENDBRANCH 207 214
ENDBRANCH 204 207
ENDBRANCH 194 203
ENDBRANCH 191 194
ENDBRANCH 182 190
ENDBRANCH 179 182
ENDBRANCH 165 178
ENDBRANCH 162 165
ENDBRANCH 149 161
ENDBRANCH 146 149
ENDBRANCH 144 145
ENDBRANCH 141 144
ENDBRANCH 139 140
BRANCH 139 256
HETATM  256  C   UNK N   1      33.148  16.187   6.429  0.00  0.00     0.035 C 
BRANCH 256 257
HETATM  257  C   UNK N   1      34.274  17.085   6.876  0.00  0.00     0.004 C 
BRANCH 257 258
HETATM  258  C   UNK N   1      34.073  17.427   8.339  0.00  0.00     0.019 C 
BRANCH 258 259
HETATM  259  C   UNK N   1      34.597  16.320   9.235  0.00  0.00     0.111 C 
BRANCH 259 260
HETATM  260  N   UNK N   1      34.843  16.831  10.572  0.00  0.00    -0.430 N 
HETATM  261  H   UNK N   1      34.527  17.704  10.998  0.00  0.00     0.149 HD
HETATM  262  H   UNK N   1      35.412  16.233  11.172  0.00  0.00     0.149 HD
ENDBRANCH 259 260
ENDBRANCH 258 259
ENDBRANCH 257 258
ENDBRANCH 256 257
ENDBRANCH 139 256
ENDBRANCH   1 139
TORSDOF 104
ENDMDL
MODEL 9
REMARK VINA RESULT:      -5.1      2.430      5.606
REMARK WARNING: 32 MAX_TORS EXCEEDED!!!
REMARK  104 active torsions:
REMARK  status: ('A' for Active; 'I' for Inactive)
REMARK    1  A    between atoms: C_2  and  C_1 
REMARK       I    between atoms: C_1  and  N_7 
REMARK    2  A    between atoms: C_2  and  N_4 
REMARK    3  A    between atoms: C_5  and  C_2 
REMARK    4  A    between atoms: O_6  and  C_5 
REMARK    5  A    between atoms: C_10  and  N_7 
REMARK    6  A    between atoms: C_10  and  C_8 
REMARK       I    between atoms: C_8  and  N_19 
REMARK    7  A    between atoms: C_11  and  C_10 
REMARK    8  A    between atoms: C_12  and  C_11 
REMARK    9  A    between atoms: O_18  and  C_16 
REMARK   10  A    between atoms: C_21  and  N_19 
REMARK   11  A    between atoms: C_21  and  C_20 
REMARK       I    between atoms: C_20  and  N_25 
REMARK   12  A    between atoms: C_23  and  C_21 
REMARK   13  A    between atoms: O_24  and  C_23 
REMARK   14  A    between atoms: C_28  and  N_25 
REMARK   15  A    between atoms: C_28  and  C_26 
REMARK       I    between atoms: C_26  and  N_33 
REMARK   16  A    between atoms: C_30  and  C_28 
REMARK   17  A    between atoms: C_31  and  S_29 
REMARK   18  A    between atoms: C_31  and  C_30 
REMARK   19  A    between atoms: C_37  and  N_33 
REMARK   20  A    between atoms: C_37  and  C_34 
REMARK       I    between atoms: C_34  and  N_42 
REMARK   21  A    between atoms: C_40  and  C_35 
REMARK   22  A    between atoms: O_41  and  C_35 
REMARK   23  A    between atoms: C_39  and  C_37 
REMARK   24  A    between atoms: C_40  and  C_39 
REMARK   25  A    between atoms: C_45  and  N_42 
REMARK   26  A    between atoms: C_45  and  C_43 
REMARK       I    between atoms: C_43  and  N_53 
REMARK   27  A    between atoms: C_46  and  C_45 
REMARK   28  A    between atoms: C_47  and  C_46 
REMARK   29  A    between atoms: C_55  and  N_53 
REMARK   30  A    between atoms: C_55  and  C_54 
REMARK       I    between atoms: C_54  and  N_64 
REMARK   31  A    between atoms: C_57  and  C_55 
REMARK   32  A    between atoms: C_58  and  C_57 
REMARK   33  A    between atoms: C_71  and  N_64 
REMARK       I    between atoms: N_70  and  C_65 
REMARK       I    between atoms: N_72  and  C_65 
REMARK   34  A    between atoms: C_71  and  C_66 
REMARK       I    between atoms: C_66  and  N_76 
REMARK   35  A    between atoms: C_73  and  N_70 
REMARK   36  A    between atoms: C_74  and  C_71 
REMARK   37  A    between atoms: C_75  and  C_73 
REMARK   38  A    between atoms: C_75  and  C_74 
REMARK   39  A    between atoms: C_79  and  N_76 
REMARK   40  A    between atoms: C_79  and  C_77 
REMARK       I    between atoms: C_77  and  N_90 
REMARK   41  A    between atoms: C_80  and  C_79 
REMARK   42  A    between atoms: C_81  and  C_80 
REMARK   43  A    between atoms: N_90  and  C_93 
REMARK   44  A    between atoms: C_93  and  C_91 
REMARK       I    between atoms: C_91  and  N_94 
REMARK   45  A    between atoms: C_97  and  N_94 
REMARK       I    between atoms: N_96  and  C_95 
REMARK   46  A    between atoms: C_97  and  C_95 
REMARK   47  A    between atoms: C_100  and  C_97 
REMARK   48  A    between atoms: C_99  and  N_98 
REMARK   49  A    between atoms: C_101  and  C_99 
REMARK   50  A    between atoms: C_102  and  C_100 
REMARK   51  A    between atoms: C_102  and  C_101 
REMARK   52  A    between atoms: C_104  and  C_108 
REMARK       I    between atoms: C_108  and  N_110 
REMARK   53  A    between atoms: C_112  and  N_110 
REMARK   54  A    between atoms: C_112  and  C_111 
REMARK       I    between atoms: C_111  and  N_117 
REMARK   55  A    between atoms: C_114  and  C_112 
REMARK   56  A    between atoms: N_117  and  C_120 
REMARK   57  A    between atoms: C_120  and  C_118 
REMARK       I    between atoms: C_118  and  N_121 
REMARK   58  A    between atoms: C_124  and  N_121 
REMARK   59  A    between atoms: C_124  and  C_122 
REMARK       I    between atoms: C_122  and  N_130 
REMARK   60  A    between atoms: C_127  and  C_124 
REMARK   61  A    between atoms: C_126  and  N_125 
REMARK   62  A    between atoms: C_128  and  C_126 
REMARK   63  A    between atoms: C_129  and  C_127 
REMARK   64  A    between atoms: C_129  and  C_128 
REMARK   65  A    between atoms: C_133  and  N_130 
REMARK   66  A    between atoms: C_133  and  C_131 
REMARK       I    between atoms: C_131  and  N_139 
REMARK   67  A    between atoms: C_136  and  C_133 
REMARK   68  A    between atoms: C_135  and  N_134 
REMARK   69  A    between atoms: C_137  and  C_135 
REMARK   70  A    between atoms: C_138  and  C_136 
REMARK   71  A    between atoms: C_138  and  C_137 
REMARK   72  A    between atoms: C_146  and  N_139 
REMARK       I    between atoms: N_145  and  C_140 
REMARK       I    between atoms: N_147  and  C_140 
REMARK   73  A    between atoms: C_146  and  C_141 
REMARK       I    between atoms: C_141  and  N_151 
REMARK   74  A    between atoms: C_148  and  N_145 
REMARK   75  A    between atoms: C_149  and  C_146 
REMARK   76  A    between atoms: C_150  and  C_148 
REMARK   77  A    between atoms: C_150  and  C_149 
REMARK   78  A    between atoms: C_158  and  N_151 
REMARK       I    between atoms: N_157  and  C_152 
REMARK       I    between atoms: N_159  and  C_152 
REMARK   79  A    between atoms: C_158  and  C_153 
REMARK       I    between atoms: N_156  and  C_153 
REMARK   80  A    between atoms: C_160  and  N_157 
REMARK   81  A    between atoms: C_161  and  C_158 
REMARK   82  A    between atoms: C_162  and  C_160 
REMARK   83  A    between atoms: C_162  and  C_161 
REMARK   84  A    between atoms: C_164  and  C_168 
REMARK       I    between atoms: C_168  and  N_170 
REMARK   85  A    between atoms: C_172  and  N_170 
REMARK   86  A    between atoms: C_172  and  C_171 
REMARK       I    between atoms: C_171  and  N_177 
REMARK   87  A    between atoms: C_174  and  C_172 
REMARK   88  A    between atoms: C_180  and  N_177 
REMARK   89  A    between atoms: C_180  and  C_178 
REMARK       I    between atoms: C_178  and  N_186 
REMARK   90  A    between atoms: C_183  and  C_180 
REMARK   91  A    between atoms: C_182  and  N_181 
REMARK   92  A    between atoms: C_184  and  C_182 
REMARK   93  A    between atoms: C_185  and  C_183 
REMARK   94  A    between atoms: C_185  and  C_184 
REMARK   95  A    between atoms: C_188  and  N_186 
REMARK   96  A    between atoms: C_188  and  C_187 
REMARK       I    between atoms: C_187  and  N_193 
REMARK   97  A    between atoms: C_190  and  C_188 
REMARK   98  A    between atoms: C_196  and  N_193 
REMARK       I    between atoms: N_195  and  C_194 
REMARK   99  A    between atoms: C_196  and  C_194 
REMARK  100  A    between atoms: C_197  and  C_196 
REMARK  101  A    between atoms: C_198  and  C_197 
REMARK  102  A    between atoms: O_204  and  C_202 
REMARK  103  A    between atoms: C_206  and  C_210 
REMARK  104  A    between atoms: C_210  and  O_212 
ROOT
HETATM    1  C   UNK N   1      34.662  13.204   5.238  0.00  0.00     0.243 C 
HETATM    2  N   UNK N   1      35.895  12.747   4.841  0.00  0.00    -0.337 N 
HETATM    3  O   UNK N   1      33.810  12.409   5.612  0.00  0.00    -0.271 OA
HETATM    4  C   UNK N   1      36.994  13.629   4.547  0.00  0.00     0.179 C 
HETATM    5  C   UNK N   1      36.195  11.352   4.708  0.00  0.00     0.127 C 
HETATM    6  C   UNK N   1      37.567  11.305   4.049  0.00  0.00     0.022 C 
HETATM    7  C   UNK N   1      38.037  12.750   3.871  0.00  0.00     0.037 C 
ENDROOT
BRANCH   4   8
HETATM    8  C   UNK N   1      37.458  14.094   5.893  0.00  0.00     0.241 C 
HETATM    9  O   UNK N   1      38.391  14.879   5.965  0.00  0.00    -0.271 OA
HETATM   10  N   UNK N   1      37.084  13.365   6.967  0.00  0.00    -0.346 N 
HETATM   11  H   UNK N   1      36.209  12.914   6.933  0.00  0.00     0.163 HD
BRANCH  10  12
HETATM   12  C   UNK N   1      37.881  13.200   8.166  0.00  0.00     0.180 C 
BRANCH  12  13
HETATM   13  C   UNK N   1      37.966  14.293   9.217  0.00  0.00     0.241 C 
HETATM   14  O   UNK N   1      39.014  14.907   9.336  0.00  0.00    -0.271 OA
HETATM   15  N   UNK N   1      36.953  14.561  10.081  0.00  0.00    -0.351 N 
HETATM   16  H   UNK N   1      37.123  15.208  10.804  0.00  0.00     0.163 HD
BRANCH  15  17
HETATM   17  C   UNK N   1      35.642  13.960  10.006  0.00  0.00     0.225 C 
BRANCH  17  18
HETATM   18  C   UNK N   1      35.243  13.617  11.391  0.00  0.00     0.236 C 
HETATM   19  O   UNK N   1      34.519  14.377  12.018  0.00  0.00    -0.272 OA
HETATM   20  N   UNK N   1      35.535  12.383  11.865  0.00  0.00    -0.346 N 
HETATM   21  H   UNK N   1      36.268  11.872  11.451  0.00  0.00     0.163 HD
BRANCH  20  22
HETATM   22  C   UNK N   1      34.805  11.800  12.953  0.00  0.00     0.176 C 
BRANCH  22  23
HETATM   23  C   UNK N   1      34.516  10.385  12.541  0.00  0.00     0.241 C 
HETATM   24  O   UNK N   1      33.390  10.062  12.189  0.00  0.00    -0.271 OA
HETATM   25  N   UNK N   1      35.476   9.454  12.683  0.00  0.00    -0.346 N 
HETATM   26  H   UNK N   1      36.374   9.735  12.971  0.00  0.00     0.163 HD
BRANCH  25  27
HETATM   27  C   UNK N   1      35.229   8.059  12.423  0.00  0.00     0.176 C 
BRANCH  27  28
HETATM   28  C   UNK N   1      35.888   7.629  11.147  0.00  0.00     0.241 C 
HETATM   29  O   UNK N   1      37.067   7.891  10.983  0.00  0.00    -0.271 OA
HETATM   30  N   UNK N   1      35.230   6.933  10.189  0.00  0.00    -0.346 N 
HETATM   31  H   UNK N   1      35.712   6.728   9.354  0.00  0.00     0.163 HD
BRANCH  30  32
HETATM   32  C   UNK N   1      33.863   6.470  10.313  0.00  0.00     0.176 C 
BRANCH  32  33
HETATM   33  C   UNK N   1      32.749   7.366   9.794  0.00  0.00     0.241 C 
HETATM   34  O   UNK N   1      31.831   7.677  10.533  0.00  0.00    -0.271 OA
HETATM   35  N   UNK N   1      32.778   7.845   8.520  0.00  0.00    -0.346 N 
HETATM   36  H   UNK N   1      32.101   8.495   8.224  0.00  0.00     0.163 HD
BRANCH  35  37
HETATM   37  C   UNK N   1      33.803   7.399   7.605  0.00  0.00     0.176 C 
BRANCH  37  38
HETATM   38  C   UNK N   1      33.226   6.257   6.777  0.00  0.00     0.243 C 
HETATM   39  N   UNK N   1      33.763   5.008   6.816  0.00  0.00    -0.337 N 
HETATM   40  C   UNK N   1      35.131   4.775   7.168  0.00  0.00     0.179 C 
HETATM   41  C   UNK N   1      33.090   3.870   6.256  0.00  0.00     0.127 C 
HETATM   42  C   UNK N   1      35.212   3.263   7.300  0.00  0.00     0.037 C 
HETATM   43  C   UNK N   1      34.031   2.706   6.500  0.00  0.00     0.022 C 
HETATM   44  O   UNK N   1      32.165   6.432   6.190  0.00  0.00    -0.271 OA
BRANCH  40  45
HETATM   45  C   UNK N   1      35.918   5.196   5.946  0.00  0.00     0.241 C 
HETATM   46  O   UNK N   1      37.139   5.166   5.939  0.00  0.00    -0.271 OA
HETATM   47  N   UNK N   1      35.215   5.585   4.850  0.00  0.00    -0.346 N 
HETATM   48  H   UNK N   1      34.233   5.561   4.920  0.00  0.00     0.163 HD
BRANCH  47  49
HETATM   49  C   UNK N   1      35.760   6.023   3.612  0.00  0.00     0.180 C 
BRANCH  49  50
HETATM   50  C   UNK N   1      36.154   7.468   3.739  0.00  0.00     0.241 C 
HETATM   51  O   UNK N   1      37.144   7.791   4.379  0.00  0.00    -0.271 OA
HETATM   52  N   UNK N   1      35.363   8.426   3.191  0.00  0.00    -0.346 N 
HETATM   53  H   UNK N   1      35.610   9.372   3.309  0.00  0.00     0.163 HD
BRANCH  52  54
HETATM   54  C   UNK N   1      34.160   8.101   2.434  0.00  0.00     0.176 C 
BRANCH  54  55
HETATM   55  C   UNK N   1      34.120   9.018   1.256  0.00  0.00     0.241 C 
HETATM   56  O   UNK N   1      33.550   8.696   0.226  0.00  0.00    -0.271 OA
HETATM   57  N   UNK N   1      34.910  10.099   1.327  0.00  0.00    -0.346 N 
HETATM   58  H   UNK N   1      35.160  10.348   2.246  0.00  0.00     0.163 HD
BRANCH  57  59
HETATM   59  C   UNK N   1      35.460  10.966   0.324  0.00  0.00     0.180 C 
BRANCH  59  60
HETATM   60  C   UNK N   1      34.851  12.298   0.650  0.00  0.00     0.241 C 
HETATM   61  O   UNK N   1      34.900  12.730   1.794  0.00  0.00    -0.271 OA
HETATM   62  N   UNK N   1      34.141  12.975  -0.276  0.00  0.00    -0.346 N 
HETATM   63  H   UNK N   1      33.754  13.844  -0.023  0.00  0.00     0.163 HD
BRANCH  62  64
HETATM   64  C   UNK N   1      33.917  12.488  -1.623  0.00  0.00     0.181 C 
BRANCH  64  65
HETATM   65  C   UNK N   1      32.637  11.699  -1.820  0.00  0.00     0.243 C 
HETATM   66  N   UNK N   1      32.587  10.469  -2.411  0.00  0.00    -0.336 N 
HETATM   67  C   UNK N   1      31.358   9.801  -2.706  0.00  0.00     0.185 C 
HETATM   68  C   UNK N   1      33.762   9.729  -2.814  0.00  0.00     0.127 C 
HETATM   69  C   UNK N   1      31.760   8.365  -3.003  0.00  0.00     0.038 C 
HETATM   70  C   UNK N   1      33.246   8.403  -3.337  0.00  0.00     0.022 C 
HETATM   71  O   UNK N   1      31.576  12.215  -1.445  0.00  0.00    -0.271 OA
BRANCH  67  72
HETATM   72  C   UNK N   1      30.739  10.465  -3.920  0.00  0.00     0.163 C 
HETATM   73  O   UNK N   1      30.926   9.999  -5.032  0.00  0.00    -0.648 OA
BRANCH  72  74
HETATM   74  O   UNK N   1      29.943  11.544  -3.782  0.00  0.00    -0.775 OA
HETATM   75  H   UNK N   1      29.775  12.226  -4.403  0.00  0.00     0.167 HD
ENDBRANCH  72  74
ENDBRANCH  67  72
ENDBRANCH  64  65
BRANCH  64  76
HETATM   76  C   UNK N   1      34.169  13.573  -2.674  0.00  0.00     0.073 C 
BRANCH  76  77
HETATM   77  C   UNK N   1      35.637  13.795  -2.822  0.00  0.00    -0.056 A 
HETATM   78  C   UNK N   1      36.438  12.774  -3.341  0.00  0.00     0.010 A 
HETATM   79  C   UNK N   1      37.803  12.994  -3.550  0.00  0.00     0.037 A 
HETATM   80  C   UNK N   1      38.366  14.237  -3.241  0.00  0.00     0.065 A 
HETATM   81  C   UNK N   1      37.570  15.252  -2.705  0.00  0.00     0.037 A 
HETATM   82  C   UNK N   1      36.208  15.032  -2.496  0.00  0.00     0.010 A 
BRANCH  80  83
HETATM   83  O   UNK N   1      39.671  14.456  -3.462  0.00  0.00    -0.361 OA
HETATM   84  H   UNK N   1      39.979  14.708  -4.311  0.00  0.00     0.217 HD
ENDBRANCH  80  83
ENDBRANCH  76  77
ENDBRANCH  64  76
ENDBRANCH  62  64
ENDBRANCH  59  60
BRANCH  59  85
HETATM   85  C   UNK N   1      36.986  11.037   0.070  0.00  0.00     0.009 C 
HETATM   86  C   UNK N   1      37.802   9.977   0.782  0.00  0.00     0.012 C 
HETATM   87  C   UNK N   1      37.629  12.402   0.180  0.00  0.00     0.012 C 
ENDBRANCH  59  85
ENDBRANCH  57  59
ENDBRANCH  54  55
BRANCH  54  88
HETATM   88  C   UNK N   1      32.941   8.359   3.315  0.00  0.00     0.035 C 
BRANCH  88  89
HETATM   89  C   UNK N   1      31.692   7.604   2.870  0.00  0.00     0.004 C 
BRANCH  89  90
HETATM   90  C   UNK N   1      31.945   6.138   2.561  0.00  0.00     0.019 C 
BRANCH  90  91
HETATM   91  C   UNK N   1      31.127   5.755   1.345  0.00  0.00     0.111 C 
BRANCH  91  92
HETATM   92  N   UNK N   1      31.362   6.708   0.278  0.00  0.00    -0.430 N 
HETATM   93  H   UNK N   1      30.909   7.124  -0.535  0.00  0.00     0.149 HD
HETATM   94  H   UNK N   1      32.302   7.095   0.373  0.00  0.00     0.149 HD
ENDBRANCH  91  92
ENDBRANCH  90  91
ENDBRANCH  89  90
ENDBRANCH  88  89
ENDBRANCH  54  88
ENDBRANCH  52  54
ENDBRANCH  49  50
BRANCH  49  95
HETATM   95  C   UNK N   1      36.862   5.077   3.127  0.00  0.00     0.009 C 
HETATM   96  C   UNK N   1      37.519   5.659   1.893  0.00  0.00     0.012 C 
HETATM   97  C   UNK N   1      36.336   3.688   2.791  0.00  0.00     0.012 C 
ENDBRANCH  49  95
ENDBRANCH  47  49
ENDBRANCH  40  45
ENDBRANCH  37  38
BRANCH  37  98
HETATM   98  C   UNK N   1      34.518   8.515   6.833  0.00  0.00     0.036 C 
BRANCH  98  99
HETATM   99  C   UNK N   1      35.588   9.309   7.594  0.00  0.00     0.023 C 
BRANCH  99 100
HETATM  100  C   UNK N   1      35.066  10.114   8.779  0.00  0.00     0.138 C 
BRANCH 100 101
HETATM  101  N   UNK N   1      34.389  11.302   8.316  0.00  0.00    -0.227 N 
HETATM  102  C   UNK N   1      33.105  11.697   8.781  0.00  0.00     0.665 C 
HETATM  103  N   UNK N   1      32.609  12.814   8.400  0.00  0.00    -0.235 N 
HETATM  104  N   UNK N   1      32.395  10.897   9.705  0.00  0.00    -0.235 N 
HETATM  105  H   UNK N   1      31.676  13.127   8.417  0.00  0.00     0.174 HD
ATOM    106  HN  UNK N   1      33.282  13.479   8.018  1.00  0.00     0.174 HD
HETATM  107  H   UNK N   1      32.816  10.580  10.536  0.00  0.00     0.174 HD
HETATM  108  H   UNK N   1      31.461  10.654   9.514  0.00  0.00     0.174 HD
HETATM  109  H   UNK N   1      34.838  11.867   7.646  0.00  0.00     0.177 HD
ENDBRANCH 100 101
ENDBRANCH  99 100
ENDBRANCH  98  99
ENDBRANCH  37  98
ENDBRANCH  35  37
ENDBRANCH  32  33
BRANCH  32 110
HETATM  110  C   UNK N   1      33.662   5.085  10.928  0.00  0.00     0.036 C 
BRANCH 110 111
HETATM  111  C   UNK N   1      34.947   4.272  10.801  0.00  0.00     0.023 C 
BRANCH 111 112
HETATM  112  C   UNK N   1      35.478   3.801  12.144  0.00  0.00     0.138 C 
BRANCH 112 113
HETATM  113  N   UNK N   1      34.688   2.697  12.637  0.00  0.00    -0.227 N 
HETATM  114  C   UNK N   1      33.912   2.778  13.824  0.00  0.00     0.665 C 
HETATM  115  N   UNK N   1      33.213   1.771  14.194  0.00  0.00    -0.235 N 
HETATM  116  N   UNK N   1      33.908   3.957  14.605  0.00  0.00    -0.235 N 
HETATM  117  H   UNK N   1      32.359   1.336  13.968  0.00  0.00     0.174 HD
ATOM    118  HN  UNK N   1      33.680   1.270  14.949  1.00  0.00     0.174 HD
HETATM  119  H   UNK N   1      34.230   3.944  15.535  0.00  0.00     0.174 HD
HETATM  120  H   UNK N   1      33.581   4.799  14.215  0.00  0.00     0.174 HD
HETATM  121  H   UNK N   1      34.687   1.854  12.130  0.00  0.00     0.177 HD
ENDBRANCH 112 113
ENDBRANCH 111 112
ENDBRANCH 110 111
ENDBRANCH  32 110
ENDBRANCH  30  32
ENDBRANCH  27  28
BRANCH  27 122
HETATM  122  C   UNK N   1      35.688   7.217  13.595  0.00  0.00     0.035 C 
BRANCH 122 123
HETATM  123  C   UNK N   1      36.465   8.050  14.592  0.00  0.00     0.004 C 
BRANCH 123 124
HETATM  124  C   UNK N   1      35.703   8.197  15.889  0.00  0.00     0.019 C 
BRANCH 124 125
HETATM  125  C   UNK N   1      36.663   7.947  17.033  0.00  0.00     0.111 C 
BRANCH 125 126
HETATM  126  N   UNK N   1      35.957   8.052  18.295  0.00  0.00    -0.430 N 
HETATM  127  H   UNK N   1      35.991   7.602  19.209  0.00  0.00     0.149 HD
HETATM  128  H   UNK N   1      35.232   8.768  18.258  0.00  0.00     0.149 HD
ENDBRANCH 125 126
ENDBRANCH 124 125
ENDBRANCH 123 124
ENDBRANCH 122 123
ENDBRANCH  27 122
ENDBRANCH  25  27
ENDBRANCH  22  23
BRANCH  22 129
HETATM  129  C   UNK N   1      35.661  11.843  14.215  0.00  0.00     0.035 C 
BRANCH 129 130
HETATM  130  C   UNK N   1      34.814  12.118  15.443  0.00  0.00     0.004 C 
BRANCH 130 131
HETATM  131  C   UNK N   1      35.487  13.154  16.323  0.00  0.00     0.019 C 
BRANCH 131 132
HETATM  132  C   UNK N   1      35.033  13.016  17.762  0.00  0.00     0.111 C 
BRANCH 132 133
HETATM  133  N   UNK N   1      35.358  11.690  18.243  0.00  0.00    -0.430 N 
HETATM  134  H   UNK N   1      35.234  11.111  19.073  0.00  0.00     0.149 HD
HETATM  135  H   UNK N   1      35.870  11.173  17.528  0.00  0.00     0.149 HD
ENDBRANCH 132 133
ENDBRANCH 131 132
ENDBRANCH 130 131
ENDBRANCH 129 130
ENDBRANCH  22 129
ENDBRANCH  20  22
ENDBRANCH  17  18
ENDBRANCH  15  17
ENDBRANCH  12  13
BRANCH  12 136
HETATM  136  C   UNK N   1      38.231  11.745   8.462  0.00  0.00     0.009 C 
HETATM  137  C   UNK N   1      38.480  11.493   9.936  0.00  0.00     0.012 C 
HETATM  138  C   UNK N   1      39.376  11.237   7.611  0.00  0.00     0.012 C 
ENDBRANCH  12 136
ENDBRANCH  10  12
ENDBRANCH   4   8
BRANCH   1 139
HETATM  139  C   UNK N   1      34.291  14.671   5.022  0.00  0.00     0.176 C 
BRANCH 139 140
HETATM  140  N   UNK N   1      33.343  14.604   3.920  0.00  0.00    -0.346 N 
HETATM  141  C   UNK N   1      32.802  15.748   3.435  0.00  0.00     0.236 C 
HETATM  142  O   UNK N   1      33.364  16.809   3.620  0.00  0.00    -0.272 OA
HETATM  143  H   UNK N   1      33.096  13.734   3.530  0.00  0.00     0.163 HD
BRANCH 141 144
HETATM  144  C   UNK N   1      31.382  15.786   3.032  0.00  0.00     0.225 C 
BRANCH 144 145
HETATM  145  N   UNK N   1      30.721  14.804   3.872  0.00  0.00    -0.351 N 
HETATM  146  C   UNK N   1      29.473  14.917   4.428  0.00  0.00     0.241 C 
HETATM  147  O   UNK N   1      29.103  14.047   5.201  0.00  0.00    -0.271 OA
HETATM  148  H   UNK N   1      31.217  13.975   4.061  0.00  0.00     0.163 HD
BRANCH 146 149
HETATM  149  C   UNK N   1      28.496  16.042   4.111  0.00  0.00     0.181 C 
BRANCH 149 150
HETATM  150  C   UNK N   1      29.064  17.440   4.450  0.00  0.00     0.075 C 
BRANCH 150 151
HETATM  151  C   UNK N   1      28.660  18.126   5.742  0.00  0.00    -0.028 A 
HETATM  152  C   UNK N   1      27.697  19.118   5.945  0.00  0.00     0.096 A 
HETATM  153  N   UNK N   1      27.674  19.483   7.249  0.00  0.00    -0.365 N 
HETATM  154  C   UNK N   1      28.595  18.722   7.861  0.00  0.00     0.042 A 
HETATM  155  H   UNK N   1      27.099  20.167   7.663  0.00  0.00     0.165 HD
HETATM  156  C   UNK N   1      29.208  17.880   6.976  0.00  0.00    -0.002 A 
HETATM  157  C   UNK N   1      28.923  18.740   9.212  0.00  0.00     0.030 A 
HETATM  158  C   UNK N   1      30.196  16.985   7.381  0.00  0.00     0.014 A 
HETATM  159  C   UNK N   1      30.547  16.971   8.744  0.00  0.00     0.001 A 
HETATM  160  C   UNK N   1      29.914  17.848   9.655  0.00  0.00     0.002 A 
ENDBRANCH 150 151
ENDBRANCH 149 150
BRANCH 149 161
HETATM  161  N   UNK N   1      27.926  15.952   2.793  0.00  0.00    -0.346 N 
HETATM  162  C   UNK N   1      26.653  15.590   2.516  0.00  0.00     0.241 C 
HETATM  163  O   UNK N   1      26.313  15.520   1.347  0.00  0.00    -0.271 OA
HETATM  164  H   UNK N   1      28.510  16.173   2.031  0.00  0.00     0.163 HD
BRANCH 162 165
HETATM  165  C   UNK N   1      25.639  15.262   3.582  0.00  0.00     0.176 C 
BRANCH 165 166
HETATM  166  C   UNK N   1      24.541  16.209   4.048  0.00  0.00     0.036 C 
BRANCH 166 167
HETATM  167  C   UNK N   1      24.875  17.634   3.657  0.00  0.00     0.023 C 
BRANCH 167 168
HETATM  168  C   UNK N   1      24.193  18.632   4.581  0.00  0.00     0.138 C 
BRANCH 168 169
HETATM  169  N   UNK N   1      22.755  18.558   4.472  0.00  0.00    -0.227 N 
HETATM  170  C   UNK N   1      22.013  19.411   3.615  0.00  0.00     0.665 C 
HETATM  171  N   UNK N   1      20.748  19.250   3.501  0.00  0.00    -0.235 N 
HETATM  172  N   UNK N   1      22.660  20.419   2.865  0.00  0.00    -0.235 N 
HETATM  173  H   UNK N   1      19.995  19.177   4.132  0.00  0.00     0.174 HD
ATOM    174  HN  UNK N   1      20.449  19.179   2.528  1.00  0.00     0.174 HD
HETATM  175  H   UNK N   1      22.482  20.506   1.900  0.00  0.00     0.174 HD
HETATM  176  H   UNK N   1      23.290  21.033   3.306  0.00  0.00     0.174 HD
HETATM  177  H   UNK N   1      22.271  17.891   5.012  0.00  0.00     0.177 HD
ENDBRANCH 168 169
ENDBRANCH 167 168
ENDBRANCH 166 167
ENDBRANCH 165 166
BRANCH 165 178
HETATM  178  N   UNK N   1      26.012  14.177   4.461  0.00  0.00    -0.346 N 
HETATM  179  C   UNK N   1      25.590  12.889   4.344  0.00  0.00     0.241 C 
HETATM  180  O   UNK N   1      25.919  12.088   5.204  0.00  0.00    -0.271 OA
HETATM  181  H   UNK N   1      26.622  14.387   5.205  0.00  0.00     0.163 HD
BRANCH 179 182
HETATM  182  C   UNK N   1      24.731  12.393   3.194  0.00  0.00     0.180 C 
BRANCH 182 183
HETATM  183  C   UNK N   1      25.624  12.052   1.996  0.00  0.00     0.073 C 
BRANCH 183 184
HETATM  184  C   UNK N   1      24.947  11.421   0.813  0.00  0.00    -0.056 A 
HETATM  185  C   UNK N   1      25.193  10.078   0.514  0.00  0.00     0.007 A 
HETATM  186  C   UNK N   1      24.466   9.445  -0.500  0.00  0.00     0.001 A 
HETATM  187  C   UNK N   1      23.487  10.141  -1.213  0.00  0.00     0.000 A 
HETATM  188  C   UNK N   1      23.240  11.484  -0.924  0.00  0.00     0.001 A 
HETATM  189  C   UNK N   1      23.964  12.117   0.090  0.00  0.00     0.007 A 
ENDBRANCH 183 184
ENDBRANCH 182 183
BRANCH 182 190
HETATM  190  N   UNK N   1      23.911  11.250   3.550  0.00  0.00    -0.346 N 
HETATM  191  C   UNK N   1      22.566  11.145   3.442  0.00  0.00     0.241 C 
HETATM  192  O   UNK N   1      22.037  10.080   3.723  0.00  0.00    -0.271 OA
HETATM  193  H   UNK N   1      24.385  10.464   3.909  0.00  0.00     0.163 HD
BRANCH 191 194
HETATM  194  C   UNK N   1      21.709  12.319   3.027  0.00  0.00     0.182 C 
BRANCH 194 195
HETATM  195  C   UNK N   1      22.323  13.677   3.311  0.00  0.00     0.093 C 
BRANCH 195 196
HETATM  196  C   UNK N   1      21.588  14.637   2.447  0.00  0.00     0.028 A 
HETATM  197  N   UNK N   1      20.901  15.688   2.921  0.00  0.00    -0.354 N 
HETATM  198  C   UNK N   1      20.331  16.246   1.836  0.00  0.00     0.180 A 
HETATM  199  H   UNK N   1      20.829  15.985   3.856  0.00  0.00     0.166 HD
HETATM  200  N   UNK N   1      20.636  15.570   0.707  0.00  0.00    -0.360 N 
HETATM  201  C   UNK N   1      21.427  14.549   1.089  0.00  0.00     0.114 A 
ATOM    202  HN  UNK N   1      20.329  15.787  -0.240  1.00  0.00     0.166 HD
ENDBRANCH 195 196
ENDBRANCH 194 195
BRANCH 194 203
HETATM  203  N   UNK N   1      20.339  12.225   3.461  0.00  0.00    -0.346 N 
HETATM  204  C   UNK N   1      19.886  12.580   4.678  0.00  0.00     0.241 C 
HETATM  205  O   UNK N   1      18.705  12.409   4.931  0.00  0.00    -0.271 OA
HETATM  206  H   UNK N   1      19.682  11.871   2.817  0.00  0.00     0.163 HD
BRANCH 204 207
HETATM  207  C   UNK N   1      20.826  13.180   5.713  0.00  0.00     0.177 C 
BRANCH 207 208
HETATM  208  C   UNK N   1      20.237  14.355   6.517  0.00  0.00     0.045 C 
BRANCH 208 209
HETATM  209  C   UNK N   1      21.267  15.413   6.894  0.00  0.00     0.112 C 
BRANCH 209 210
HETATM  210  C   UNK N   1      20.845  16.759   6.396  0.00  0.00     0.139 C 
HETATM  211  O   UNK N   1      20.160  16.864   5.391  0.00  0.00    -0.650 OA
BRANCH 210 212
HETATM  212  O   UNK N   1      21.259  17.865   7.039  0.00  0.00    -0.776 OA
HETATM  213  H   UNK N   1      20.716  18.279   7.680  0.00  0.00     0.167 HD
ENDBRANCH 210 212
ENDBRANCH 209 210
ENDBRANCH 208 209
ENDBRANCH 207 208
BRANCH 207 214
HETATM  214  N   UNK N   1      21.325  12.165   6.620  0.00  0.00    -0.346 N 
HETATM  215  C   UNK N   1      22.638  12.099   6.935  0.00  0.00     0.241 C 
HETATM  216  O   UNK N   1      23.416  12.920   6.464  0.00  0.00    -0.271 OA
HETATM  217  H   UNK N   1      20.699  11.514   7.012  0.00  0.00     0.163 HD
BRANCH 215 218
HETATM  218  C   UNK N   1      23.190  10.983   7.781  0.00  0.00     0.177 C 
BRANCH 218 219
HETATM  219  N   UNK N   1      24.148  10.305   6.964  0.00  0.00    -0.346 N 
HETATM  220  C   UNK N   1      24.174   8.958   7.045  0.00  0.00     0.243 C 
HETATM  221  O   UNK N   1      23.731   8.392   8.039  0.00  0.00    -0.271 OA
HETATM  222  H   UNK N   1      24.760  10.798   6.369  0.00  0.00     0.163 HD
BRANCH 220 223
HETATM  223  C   UNK N   1      24.662   8.169   5.877  0.00  0.00     0.200 C 
BRANCH 223 224
HETATM  224  N   UNK N   1      25.529   9.075   5.180  0.00  0.00    -0.344 N 
HETATM  225  C   UNK N   1      25.839   8.823   3.887  0.00  0.00     0.241 C 
HETATM  226  O   UNK N   1      25.046   8.233   3.165  0.00  0.00    -0.271 OA
HETATM  227  H   UNK N   1      25.892   9.869   5.635  0.00  0.00     0.163 HD
BRANCH 225 228
HETATM  228  C   UNK N   1      27.215   9.078   3.371  0.00  0.00     0.180 C 
BRANCH 228 229
HETATM  229  C   UNK N   1      27.937   7.810   2.879  0.00  0.00     0.073 C 
BRANCH 229 230
HETATM  230  C   UNK N   1      28.008   7.820   1.384  0.00  0.00    -0.056 A 
HETATM  231  C   UNK N   1      28.537   8.943   0.735  0.00  0.00     0.010 A 
HETATM  232  C   UNK N   1      28.619   8.982  -0.654  0.00  0.00     0.037 A 
HETATM  233  C   UNK N   1      28.191   7.891  -1.406  0.00  0.00     0.065 A 
HETATM  234  C   UNK N   1      27.677   6.755  -0.769  0.00  0.00     0.037 A 
HETATM  235  C   UNK N   1      27.578   6.720   0.629  0.00  0.00     0.010 A 
BRANCH 233 236
HETATM  236  O   UNK N   1      28.266   7.940  -2.743  0.00  0.00    -0.361 OA
HETATM  237  H   UNK N   1      28.092   8.738  -3.202  0.00  0.00     0.217 HD
ENDBRANCH 233 236
ENDBRANCH 229 230
ENDBRANCH 228 229
BRANCH 228 238
HETATM  238  N   UNK N   1      27.845   9.813   4.417  0.00  0.00    -0.346 N 
HETATM  239  C   UNK N   1      28.810  10.731   4.290  0.00  0.00     0.242 C 
HETATM  240  O   UNK N   1      28.923  11.414   3.283  0.00  0.00    -0.271 OA
HETATM  241  H   UNK N   1      27.537   9.624   5.333  0.00  0.00     0.163 HD
BRANCH 239 242
HETATM  242  C   UNK N   1      29.887  10.638   5.306  0.00  0.00     0.191 C 
BRANCH 242 243
HETATM  243  N   UNK N   1      31.144  11.144   4.792  0.00  0.00    -0.417 N 
HETATM  244  H   UNK N   1      32.061  11.218   5.233  0.00  0.00     0.150 HD
HETATM  245  H   UNK N   1      31.106  11.480   3.829  0.00  0.00     0.150 HD
ENDBRANCH 242 243
BRANCH 242 246
HETATM  246  C   UNK N   1      30.010   9.130   5.568  0.00  0.00     0.198 C 
BRANCH 246 247
HETATM  247  O   UNK N   1      30.440   8.858   6.860  0.00  0.00    -0.398 OA
HETATM  248  H   UNK N   1      31.296   9.186   7.174  0.00  0.00     0.209 HD
ENDBRANCH 246 247
ENDBRANCH 242 246
ENDBRANCH 239 242
ENDBRANCH 228 238
ENDBRANCH 225 228
ENDBRANCH 223 224
BRANCH 223 249
HETATM  249  C   UNK N   1      25.329   6.870   6.350  0.00  0.00     0.199 C 
BRANCH 249 250
HETATM  250  O   UNK N   1      25.249   5.891   5.367  0.00  0.00    -0.398 OA
HETATM  251  H   UNK N   1      25.048   5.821   4.421  0.00  0.00     0.209 HD
ENDBRANCH 249 250
ENDBRANCH 223 249
ENDBRANCH 220 223
ENDBRANCH 218 219
BRANCH 218 252
HETATM  252  C   UNK N   1      23.795  11.476   9.064  0.00  0.00     0.045 C 
BRANCH 252 253
HETATM  253  C   UNK N   1      22.789  12.375   9.739  0.00  0.00     0.076 C 
BRANCH 253 254
HETATM  254  S   UNK N   1      22.534  11.951  11.491  0.00  0.00    -0.173 SA
HETATM  255  C   UNK N   1      20.752  12.264  11.355  0.00  0.00     0.089 C 
ENDBRANCH 253 254
ENDBRANCH 252 253
ENDBRANCH 218 252
ENDBRANCH 215 218
ENDBRANCH 207 214
ENDBRANCH 204 207
ENDBRANCH 194 203
ENDBRANCH 191 194
ENDBRANCH 182 190
ENDBRANCH 179 182
ENDBRANCH 165 178
ENDBRANCH 162 165
ENDBRANCH 149 161
ENDBRANCH 146 149
ENDBRANCH 144 145
ENDBRANCH 141 144
ENDBRANCH 139 140
BRANCH 139 256
HETATM  256  C   UNK N   1      33.617  15.285   6.269  0.00  0.00     0.035 C 
BRANCH 256 257
HETATM  257  C   UNK N   1      34.523  16.144   7.114  0.00  0.00     0.004 C 
BRANCH 257 258
HETATM  258  C   UNK N   1      34.115  17.595   6.943  0.00  0.00     0.019 C 
BRANCH 258 259
HETATM  259  C   UNK N   1      33.893  18.262   8.289  0.00  0.00     0.111 C 
BRANCH 259 260
HETATM  260  N   UNK N   1      34.191  17.331   9.364  0.00  0.00    -0.430 N 
HETATM  261  H   UNK N   1      34.122  17.467  10.373  0.00  0.00     0.149 HD
HETATM  262  H   UNK N   1      34.514  16.410   9.068  0.00  0.00     0.149 HD
ENDBRANCH 259 260
ENDBRANCH 258 259
ENDBRANCH 257 258
ENDBRANCH 256 257
ENDBRANCH 139 256
ENDBRANCH   1 139
TORSDOF 104
ENDMDL
