MODEL 1
REMARK VINA RESULT:     -14.7      0.000      0.000
REMARK  9 active torsions:
REMARK  status: ('A' for Active; 'I' for Inactive)
REMARK    1  A    between atoms: C_22  and  C_15 
REMARK    2  A    between atoms: C_30  and  C_19 
REMARK    3  A    between atoms: N_31  and  C_21 
REMARK    4  A    between atoms: C_22  and  S_36 
REMARK    5  A    between atoms: C_29  and  C_24 
REMARK    6  A    between atoms: O_35  and  C_25 
REMARK    7  A    between atoms: C_29  and  C_26 
REMARK    8  A    between atoms: C_30  and  C_26 
REMARK    9  A    between atoms: C_28  and  C_27 
ROOT
HETATM    1  C   UNK N   1      35.302  10.011  17.362  0.00  0.00     0.008 A 
HETATM    2  C   UNK N   1      35.138  14.040  17.513  0.00  0.00     0.011 A 
HETATM    3  C   UNK N   1      35.277  11.353  18.592  0.00  0.00     0.013 A 
HETATM    4  C   UNK N   1      35.219  10.969  15.661  0.00  0.00     0.022 A 
HETATM    5  C   UNK N   1      35.159  13.290  17.104  0.00  0.00     0.019 A 
HETATM    6  C   UNK N   1      34.982  14.186  11.600  0.00  0.00     0.144 A 
HETATM    7  C   UNK N   1      35.270  10.312  16.594  0.00  0.00    -0.025 A 
HETATM    8  C   UNK N   1      35.078  12.457  12.544  0.00  0.00     0.027 A 
HETATM    9  C   UNK N   1      35.084  11.987  11.990  0.00  0.00     0.027 A 
HETATM   10  C   UNK N   1      35.191  13.612  18.925  0.00  0.00     0.006 A 
HETATM   11  C   UNK N   1      35.239  12.760  19.408  0.00  0.00     0.079 A 
HETATM   12  C   UNK N   1      35.220  12.922  18.921  0.00  0.00     0.011 A 
HETATM   13  C   UNK N   1      35.205  13.127  18.669  0.00  0.00     0.018 A 
HETATM   14  C   UNK N   1      35.069  13.367  13.665  0.00  0.00     0.040 A 
HETATM   15  C   UNK N   1      35.079  12.924  13.352  0.00  0.00     0.040 A 
HETATM   16  C   UNK N   1      35.209  11.627  16.352  0.00  0.00     0.049 A 
HETATM   17  C   UNK N   1      35.163  12.070  15.261  0.00  0.00     0.185 A 
HETATM   18  C   UNK N   1      35.178  13.396  18.027  0.00  0.00    -0.007 A 
HETATM   19  C   UNK N   1      35.241  11.800  17.899  0.00  0.00     0.021 A 
HETATM   20  C   UNK N   1      35.052  13.206  12.750  0.00  0.00     0.080 A 
HETATM   21  C   UNK N   1      35.061  12.772  12.392  0.00  0.00     0.080 A 
HETATM   22  C   UNK N   1      35.108  12.582  13.928  0.00  0.00     0.051 A 
HETATM   23  C   UNK N   1      35.270  11.945  19.286  0.00  0.00     0.132 A 
HETATM   24  C   UNK N   1      35.193  12.326  16.891  0.00  0.00     0.142 A 
HETATM   25  C   UNK N   1      35.138  12.840  15.558  0.00  0.00     0.268 A 
HETATM   26  C   UNK N   1      35.255  11.807  18.474  0.00  0.00     0.075 A 
HETATM   27  C   UNK N   1      35.247  11.203  17.160  0.00  0.00     0.134 A 
HETATM   28  C   UNK N   1      35.233  11.127  16.471  0.00  0.00     0.002 A 
HETATM   29  C   UNK N   1      35.198  12.703  17.682  0.00  0.00    -0.003 A 
HETATM   30  C   UNK N   1      35.215  12.537  18.092  0.00  0.00    -0.023 A 
HETATM   31  N   UNK N   1      35.022  13.553  12.128  0.00  0.00    -0.408 N 
HETATM   32  O   UNK N   1      35.309  11.368  19.875  0.00  0.00    -0.298 OA
HETATM   33  O   UNK N   1      35.099  13.480  15.040  0.00  0.00    -0.264 OA
HETATM   34  O   UNK N   1      35.287  10.443  17.477  0.00  0.00    -0.394 OA
HETATM   35  O   UNK N   1      35.154  12.968  16.373  0.00  0.00    -0.315 OA
HETATM   36  S   UNK N   1      35.148  11.942  14.446  0.00  0.00    -0.154 SA
HETATM   37  H   UNK N   1      35.304   9.671  16.888  0.00  0.00     0.210 HD
ENDROOT
TORSDOF 9
ENDMDL
MODEL 2
REMARK VINA RESULT:     -14.7     13.270     14.701
REMARK  9 active torsions:
REMARK  status: ('A' for Active; 'I' for Inactive)
REMARK    1  A    between atoms: C_22  and  C_15 
REMARK    2  A    between atoms: C_30  and  C_19 
REMARK    3  A    between atoms: N_31  and  C_21 
REMARK    4  A    between atoms: C_22  and  S_36 
REMARK    5  A    between atoms: C_29  and  C_24 
REMARK    6  A    between atoms: O_35  and  C_25 
REMARK    7  A    between atoms: C_29  and  C_26 
REMARK    8  A    between atoms: C_30  and  C_26 
REMARK    9  A    between atoms: C_28  and  C_27 
ROOT
HETATM    1  C   UNK N   1      20.823  12.362  11.307  0.00  0.00     0.008 A 
HETATM    2  C   UNK N   1      24.411  13.053   9.595  0.00  0.00     0.011 A 
HETATM    3  C   UNK N   1      22.587  12.011  11.593  0.00  0.00     0.013 A 
HETATM    4  C   UNK N   1      20.839  13.380   9.641  0.00  0.00     0.022 A 
HETATM    5  C   UNK N   1      23.560  13.111   9.638  0.00  0.00     0.019 A 
HETATM    6  C   UNK N   1      21.690  15.990   5.240  0.00  0.00     0.144 A 
HETATM    7  C   UNK N   1      20.716  12.796  10.615  0.00  0.00    -0.025 A 
HETATM    8  C   UNK N   1      20.636  15.197   6.706  0.00  0.00     0.027 A 
HETATM    9  C   UNK N   1      19.959  15.381   6.516  0.00  0.00     0.027 A 
HETATM   10  C   UNK N   1      24.718  12.276  10.814  0.00  0.00     0.006 A 
HETATM   11  C   UNK N   1      24.207  11.877  11.549  0.00  0.00     0.079 A 
HETATM   12  C   UNK N   1      24.114  12.147  11.123  0.00  0.00     0.011 A 
HETATM   13  C   UNK N   1      24.171  12.310  10.847  0.00  0.00     0.018 A 
HETATM   14  C   UNK N   1      21.970  14.818   7.108  0.00  0.00     0.040 A 
HETATM   15  C   UNK N   1      21.433  14.888   7.081  0.00  0.00     0.040 A 
HETATM   16  C   UNK N   1      21.747  13.166   9.844  0.00  0.00     0.049 A 
HETATM   17  C   UNK N   1      21.607  13.786   8.853  0.00  0.00     0.185 A 
HETATM   18  C   UNK N   1      24.096  12.677  10.260  0.00  0.00    -0.007 A 
HETATM   19  C   UNK N   1      22.642  12.437  10.888  0.00  0.00     0.021 A 
HETATM   20  C   UNK N   1      21.389  15.238   6.517  0.00  0.00     0.080 A 
HETATM   21  C   UNK N   1      20.837  15.332   6.453  0.00  0.00     0.080 A 
HETATM   22  C   UNK N   1      21.412  14.539   7.654  0.00  0.00     0.051 A 
HETATM   23  C   UNK N   1      23.437  11.782  11.829  0.00  0.00     0.132 A 
HETATM   24  C   UNK N   1      22.616  13.033   9.919  0.00  0.00     0.142 A 
HETATM   25  C   UNK N   1      22.422  13.787   8.720  0.00  0.00     0.268 A 
HETATM   26  C   UNK N   1      22.926  12.156  11.302  0.00  0.00     0.075 A 
HETATM   27  C   UNK N   1      21.766  12.687  10.622  0.00  0.00     0.134 A 
HETATM   28  C   UNK N   1      21.367  13.012  10.157  0.00  0.00     0.002 A 
HETATM   29  C   UNK N   1      23.326  12.715  10.323  0.00  0.00    -0.003 A 
HETATM   30  C   UNK N   1      23.378  12.482  10.695  0.00  0.00    -0.023 A 
HETATM   31  N   UNK N   1      21.392  15.610   5.909  0.00  0.00    -0.408 N 
HETATM   32  O   UNK N   1      23.218  11.382  12.518  0.00  0.00    -0.298 OA
HETATM   33  O   UNK N   1      22.731  14.163   8.055  0.00  0.00    -0.264 OA
HETATM   34  O   UNK N   1      21.255  12.387  11.196  0.00  0.00    -0.394 OA
HETATM   35  O   UNK N   1      22.926  13.410   9.253  0.00  0.00    -0.315 OA
HETATM   36  S   UNK N   1      21.103  14.163   8.319  0.00  0.00    -0.154 SA
HETATM   37  H   UNK N   1      20.298  12.530  11.117  0.00  0.00     0.210 HD
ENDROOT
TORSDOF 9
ENDMDL
MODEL 3
REMARK VINA RESULT:     -14.5     24.790     26.921
REMARK  9 active torsions:
REMARK  status: ('A' for Active; 'I' for Inactive)
REMARK    1  A    between atoms: C_22  and  C_15 
REMARK    2  A    between atoms: C_30  and  C_19 
REMARK    3  A    between atoms: N_31  and  C_21 
REMARK    4  A    between atoms: C_22  and  S_36 
REMARK    5  A    between atoms: C_29  and  C_24 
REMARK    6  A    between atoms: O_35  and  C_25 
REMARK    7  A    between atoms: C_29  and  C_26 
REMARK    8  A    between atoms: C_30  and  C_26 
REMARK    9  A    between atoms: C_28  and  C_27 
ROOT
HETATM    1  C   UNK N   1      26.915  25.003  -3.028  0.00  0.00     0.008 A 
HETATM    2  C   UNK N   1      25.124  27.040  -6.016  0.00  0.00     0.011 A 
HETATM    3  C   UNK N   1      26.231  26.656  -3.364  0.00  0.00     0.013 A 
HETATM    4  C   UNK N   1      26.618  24.052  -4.709  0.00  0.00     0.022 A 
HETATM    5  C   UNK N   1      25.485  26.346  -5.673  0.00  0.00     0.019 A 
HETATM    6  C   UNK N   1      25.497  22.222  -9.430  0.00  0.00     0.144 A 
HETATM    7  C   UNK N   1      26.839  24.511  -3.687  0.00  0.00    -0.025 A 
HETATM    8  C   UNK N   1      26.191  22.181  -7.585  0.00  0.00     0.027 A 
HETATM    9  C   UNK N   1      26.439  21.501  -7.537  0.00  0.00     0.027 A 
HETATM   10  C   UNK N   1      25.209  28.004  -4.901  0.00  0.00     0.006 A 
HETATM   11  C   UNK N   1      25.549  27.998  -3.982  0.00  0.00     0.079 A 
HETATM   12  C   UNK N   1      25.514  27.673  -4.376  0.00  0.00     0.011 A 
HETATM   13  C   UNK N   1      25.442  27.562  -4.674  0.00  0.00     0.018 A 
HETATM   14  C   UNK N   1      25.706  23.540  -7.653  0.00  0.00     0.040 A 
HETATM   15  C   UNK N   1      25.925  23.071  -7.490  0.00  0.00     0.040 A 
HETATM   16  C   UNK N   1      26.276  24.935  -4.825  0.00  0.00     0.049 A 
HETATM   17  C   UNK N   1      26.161  24.244  -5.772  0.00  0.00     0.185 A 
HETATM   18  C   UNK N   1      25.371  27.159  -5.238  0.00  0.00    -0.007 A 
HETATM   19  C   UNK N   1      26.085  26.295  -4.093  0.00  0.00     0.021 A 
HETATM   20  C   UNK N   1      25.845  22.708  -8.041  0.00  0.00     0.080 A 
HETATM   21  C   UNK N   1      26.063  22.205  -7.910  0.00  0.00     0.080 A 
HETATM   22  C   UNK N   1      26.033  23.385  -6.907  0.00  0.00     0.051 A 
HETATM   23  C   UNK N   1      25.918  27.511  -3.428  0.00  0.00     0.132 A 
HETATM   24  C   UNK N   1      25.927  25.712  -5.057  0.00  0.00     0.142 A 
HETATM   25  C   UNK N   1      25.799  24.854  -6.193  0.00  0.00     0.268 A 
HETATM   26  C   UNK N   1      26.039  26.774  -3.777  0.00  0.00     0.075 A 
HETATM   27  C   UNK N   1      26.403  25.402  -4.050  0.00  0.00     0.134 A 
HETATM   28  C   UNK N   1      26.488  24.796  -4.377  0.00  0.00     0.002 A 
HETATM   29  C   UNK N   1      25.702  26.545  -4.902  0.00  0.00    -0.003 A 
HETATM   30  C   UNK N   1      25.745  26.804  -4.547  0.00  0.00    -0.023 A 
HETATM   31  N   UNK N   1      25.738  22.358  -8.653  0.00  0.00    -0.408 N 
HETATM   32  O   UNK N   1      26.129  27.724  -2.659  0.00  0.00    -0.298 OA
HETATM   33  O   UNK N   1      25.554  24.730  -6.970  0.00  0.00    -0.264 OA
HETATM   34  O   UNK N   1      26.716  25.303  -3.293  0.00  0.00    -0.394 OA
HETATM   35  O   UNK N   1      25.682  25.588  -5.835  0.00  0.00    -0.315 OA
HETATM   36  S   UNK N   1      26.278  23.509  -6.130  0.00  0.00    -0.154 SA
HETATM   37  H   UNK N   1      27.100  24.450  -3.034  0.00  0.00     0.210 HD
ENDROOT
TORSDOF 9
ENDMDL
MODEL 4
REMARK VINA RESULT:     -14.1     13.308     14.651
REMARK  9 active torsions:
REMARK  status: ('A' for Active; 'I' for Inactive)
REMARK    1  A    between atoms: C_22  and  C_15 
REMARK    2  A    between atoms: C_30  and  C_19 
REMARK    3  A    between atoms: N_31  and  C_21 
REMARK    4  A    between atoms: C_22  and  S_36 
REMARK    5  A    between atoms: C_29  and  C_24 
REMARK    6  A    between atoms: O_35  and  C_25 
REMARK    7  A    between atoms: C_29  and  C_26 
REMARK    8  A    between atoms: C_30  and  C_26 
REMARK    9  A    between atoms: C_28  and  C_27 
ROOT
HETATM    1  C   UNK N   1      24.864  12.612   9.997  0.00  0.00     0.008 A 
HETATM    2  C   UNK N   1      20.951  12.312  10.937  0.00  0.00     0.011 A 
HETATM    3  C   UNK N   1      23.807  12.174  11.414  0.00  0.00     0.013 A 
HETATM    4  C   UNK N   1      23.571  13.038   8.597  0.00  0.00     0.022 A 
HETATM    5  C   UNK N   1      21.600  12.477  10.406  0.00  0.00     0.019 A 
HETATM    6  C   UNK N   1      19.572  13.997   5.436  0.00  0.00     0.144 A 
HETATM    7  C   UNK N   1      24.409  12.813   9.339  0.00  0.00    -0.025 A 
HETATM    8  C   UNK N   1      21.462  13.837   5.976  0.00  0.00     0.027 A 
HETATM    9  C   UNK N   1      21.805  14.026   5.364  0.00  0.00     0.027 A 
HETATM   10  C   UNK N   1      21.666  11.935  12.173  0.00  0.00     0.006 A 
HETATM   11  C   UNK N   1      22.601  11.851  12.456  0.00  0.00     0.079 A 
HETATM   12  C   UNK N   1      22.341  11.980  12.033  0.00  0.00     0.011 A 
HETATM   13  C   UNK N   1      22.087  12.039  11.838  0.00  0.00     0.018 A 
HETATM   14  C   UNK N   1      20.805  13.458   7.205  0.00  0.00     0.040 A 
HETATM   15  C   UNK N   1      21.173  13.576   6.824  0.00  0.00     0.040 A 
HETATM   16  C   UNK N   1      23.070  12.798   9.373  0.00  0.00     0.049 A 
HETATM   17  C   UNK N   1      22.409  13.083   8.441  0.00  0.00     0.185 A 
HETATM   18  C   UNK N   1      21.690  12.206  11.290  0.00  0.00    -0.007 A 
HETATM   19  C   UNK N   1      23.225  12.344  10.854  0.00  0.00     0.021 A 
HETATM   20  C   UNK N   1      20.771  13.730   6.317  0.00  0.00     0.080 A 
HETATM   21  C   UNK N   1      21.122  13.861   5.896  0.00  0.00     0.080 A 
HETATM   22  C   UNK N   1      21.629  13.432   7.296  0.00  0.00     0.051 A 
HETATM   23  C   UNK N   1      23.373  11.937  12.181  0.00  0.00     0.132 A 
HETATM   24  C   UNK N   1      22.499  12.600  10.016  0.00  0.00     0.142 A 
HETATM   25  C   UNK N   1      21.717  12.949   8.871  0.00  0.00     0.268 A 
HETATM   26  C   UNK N   1      23.338  12.179  11.393  0.00  0.00     0.075 A 
HETATM   27  C   UNK N   1      23.655  12.594  10.045  0.00  0.00     0.134 A 
HETATM   28  C   UNK N   1      23.585  12.796   9.385  0.00  0.00     0.002 A 
HETATM   29  C   UNK N   1      22.296  12.349  10.830  0.00  0.00    -0.003 A 
HETATM   30  C   UNK N   1      22.544  12.242  11.180  0.00  0.00    -0.023 A 
HETATM   31  N   UNK N   1      20.302  13.887   5.804  0.00  0.00    -0.408 N 
HETATM   32  O   UNK N   1      24.062  11.805  12.617  0.00  0.00    -0.298 OA
HETATM   33  O   UNK N   1      20.983  13.057   8.514  0.00  0.00    -0.264 OA
HETATM   34  O   UNK N   1      24.466  12.552  10.190  0.00  0.00    -0.394 OA
HETATM   35  O   UNK N   1      21.763  12.707   9.659  0.00  0.00    -0.315 OA
HETATM   36  S   UNK N   1      22.364  13.325   7.653  0.00  0.00    -0.154 SA
HETATM   37  H   UNK N   1      25.097  12.769   9.486  0.00  0.00     0.210 HD
ENDROOT
TORSDOF 9
ENDMDL
MODEL 5
REMARK VINA RESULT:     -14.0      0.785      2.006
REMARK  9 active torsions:
REMARK  status: ('A' for Active; 'I' for Inactive)
REMARK    1  A    between atoms: C_22  and  C_15 
REMARK    2  A    between atoms: C_30  and  C_19 
REMARK    3  A    between atoms: N_31  and  C_21 
REMARK    4  A    between atoms: C_22  and  S_36 
REMARK    5  A    between atoms: C_29  and  C_24 
REMARK    6  A    between atoms: O_35  and  C_25 
REMARK    7  A    between atoms: C_29  and  C_26 
REMARK    8  A    between atoms: C_30  and  C_26 
REMARK    9  A    between atoms: C_28  and  C_27 
ROOT
HETATM    1  C   UNK N   1      35.312  14.190  18.399  0.00  0.00     0.008 A 
HETATM    2  C   UNK N   1      35.312  10.341  17.188  0.00  0.00     0.011 A 
HETATM    3  C   UNK N   1      35.312  12.513  19.108  0.00  0.00     0.013 A 
HETATM    4  C   UNK N   1      35.313  13.856  16.474  0.00  0.00     0.022 A 
HETATM    5  C   UNK N   1      35.312  11.185  17.054  0.00  0.00     0.019 A 
HETATM    6  C   UNK N   1      35.313  12.182  11.565  0.00  0.00     0.144 A 
HETATM    7  C   UNK N   1      35.312  14.164  17.574  0.00  0.00    -0.025 A 
HETATM    8  C   UNK N   1      35.313  13.496  13.035  0.00  0.00     0.027 A 
HETATM    9  C   UNK N   1      35.313  14.124  12.670  0.00  0.00     0.027 A 
HETATM   10  C   UNK N   1      35.312  10.272  18.663  0.00  0.00     0.006 A 
HETATM   11  C   UNK N   1      35.312  10.914  19.404  0.00  0.00     0.079 A 
HETATM   12  C   UNK N   1      35.312  10.924  18.892  0.00  0.00     0.011 A 
HETATM   13  C   UNK N   1      35.312  10.815  18.585  0.00  0.00     0.018 A 
HETATM   14  C   UNK N   1      35.313  12.263  13.786  0.00  0.00     0.040 A 
HETATM   15  C   UNK N   1      35.313  12.785  13.640  0.00  0.00     0.040 A 
HETATM   16  C   UNK N   1      35.312  13.004  16.904  0.00  0.00     0.049 A 
HETATM   17  C   UNK N   1      35.313  12.952  15.727  0.00  0.00     0.185 A 
HETATM   18  C   UNK N   1      35.312  10.777  17.889  0.00  0.00    -0.007 A 
HETATM   19  C   UNK N   1      35.312  12.324  18.304  0.00  0.00     0.021 A 
HETATM   20  C   UNK N   1      35.313  12.721  12.978  0.00  0.00     0.080 A 
HETATM   21  C   UNK N   1      35.313  13.250  12.786  0.00  0.00     0.080 A 
HETATM   22  C   UNK N   1      35.313  12.915  14.299  0.00  0.00     0.051 A 
HETATM   23  C   UNK N   1      35.312  11.723  19.563  0.00  0.00     0.132 A 
HETATM   24  C   UNK N   1      35.312  12.165  17.177  0.00  0.00     0.142 A 
HETATM   25  C   UNK N   1      35.313  12.127  15.748  0.00  0.00     0.268 A 
HETATM   26  C   UNK N   1      35.312  12.125  18.844  0.00  0.00     0.075 A 
HETATM   27  C   UNK N   1      35.312  13.134  17.808  0.00  0.00     0.134 A 
HETATM   28  C   UNK N   1      35.312  13.436  17.184  0.00  0.00     0.002 A 
HETATM   29  C   UNK N   1      35.312  11.545  17.796  0.00  0.00    -0.003 A 
HETATM   30  C   UNK N   1      35.312  11.565  18.238  0.00  0.00    -0.023 A 
HETATM   31  N   UNK N   1      35.313  12.602  12.275  0.00  0.00    -0.408 N 
HETATM   32  O   UNK N   1      35.312  12.070  20.312  0.00  0.00    -0.298 OA
HETATM   33  O   UNK N   1      35.313  11.697  15.045  0.00  0.00    -0.264 OA
HETATM   34  O   UNK N   1      35.312  13.745  18.362  0.00  0.00    -0.394 OA
HETATM   35  O   UNK N   1      35.313  11.733  16.473  0.00  0.00    -0.315 OA
HETATM   36  S   UNK N   1      35.313  13.345  15.002  0.00  0.00    -0.154 SA
HETATM   37  H   UNK N   1      35.312  14.669  18.066  0.00  0.00     0.210 HD
ENDROOT
TORSDOF 9
ENDMDL
MODEL 6
REMARK VINA RESULT:     -13.9     25.120     27.011
REMARK  9 active torsions:
REMARK  status: ('A' for Active; 'I' for Inactive)
REMARK    1  A    between atoms: C_22  and  C_15 
REMARK    2  A    between atoms: C_30  and  C_19 
REMARK    3  A    between atoms: N_31  and  C_21 
REMARK    4  A    between atoms: C_22  and  S_36 
REMARK    5  A    between atoms: C_29  and  C_24 
REMARK    6  A    between atoms: O_35  and  C_25 
REMARK    7  A    between atoms: C_29  and  C_26 
REMARK    8  A    between atoms: C_30  and  C_26 
REMARK    9  A    between atoms: C_28  and  C_27 
ROOT
HETATM    1  C   UNK N   1      25.184  26.234  -6.681  0.00  0.00     0.008 A 
HETATM    2  C   UNK N   1      26.936  25.228  -3.188  0.00  0.00     0.011 A 
HETATM    3  C   UNK N   1      25.656  24.746  -5.744  0.00  0.00     0.013 A 
HETATM    4  C   UNK N   1      25.765  27.692  -5.517  0.00  0.00     0.022 A 
HETATM    5  C   UNK N   1      26.646  25.787  -3.765  0.00  0.00     0.019 A 
HETATM    6  C   UNK N   1      27.560  30.974  -1.925  0.00  0.00     0.144 A 
HETATM    7  C   UNK N   1      25.388  26.920  -6.271  0.00  0.00    -0.025 A 
HETATM    8  C   UNK N   1      26.713  30.421  -3.617  0.00  0.00     0.027 A 
HETATM    9  C   UNK N   1      26.559  31.062  -3.921  0.00  0.00     0.027 A 
HETATM   10  C   UNK N   1      26.615  23.939  -3.834  0.00  0.00     0.006 A 
HETATM   11  C   UNK N   1      26.195  23.649  -4.671  0.00  0.00     0.079 A 
HETATM   12  C   UNK N   1      26.312  24.090  -4.437  0.00  0.00     0.011 A 
HETATM   13  C   UNK N   1      26.426  24.293  -4.209  0.00  0.00     0.018 A 
HETATM   14  C   UNK N   1      27.006  29.132  -3.037  0.00  0.00     0.040 A 
HETATM   15  C   UNK N   1      26.841  29.532  -3.364  0.00  0.00     0.040 A 
HETATM   16  C   UNK N   1      25.988  26.877  -5.074  0.00  0.00     0.049 A 
HETATM   17  C   UNK N   1      26.285  27.848  -4.478  0.00  0.00     0.185 A 
HETATM   18  C   UNK N   1      26.605  24.863  -3.851  0.00  0.00    -0.007 A 
HETATM   19  C   UNK N   1      25.917  25.329  -5.221  0.00  0.00     0.021 A 
HETATM   20  C   UNK N   1      27.022  30.059  -3.002  0.00  0.00     0.080 A 
HETATM   21  C   UNK N   1      26.865  30.502  -3.313  0.00  0.00     0.080 A 
HETATM   22  C   UNK N   1      26.636  29.041  -3.774  0.00  0.00     0.051 A 
HETATM   23  C   UNK N   1      25.849  23.942  -5.361  0.00  0.00     0.132 A 
HETATM   24  C   UNK N   1      26.244  26.201  -4.567  0.00  0.00     0.142 A 
HETATM   25  C   UNK N   1      26.595  27.394  -3.862  0.00  0.00     0.268 A 
HETATM   26  C   UNK N   1      25.866  24.765  -5.325  0.00  0.00     0.075 A 
HETATM   27  C   UNK N   1      25.726  26.178  -5.600  0.00  0.00     0.134 A 
HETATM   28  C   UNK N   1      25.757  26.867  -5.535  0.00  0.00     0.002 A 
HETATM   29  C   UNK N   1      26.334  25.348  -4.390  0.00  0.00    -0.003 A 
HETATM   30  C   UNK N   1      26.222  24.983  -4.614  0.00  0.00    -0.023 A 
HETATM   31  N   UNK N   1      27.233  30.594  -2.579  0.00  0.00    -0.408 N 
HETATM   32  O   UNK N   1      25.540  23.489  -5.978  0.00  0.00    -0.298 OA
HETATM   33  O   UNK N   1      26.925  27.763  -3.203  0.00  0.00    -0.264 OA
HETATM   34  O   UNK N   1      25.362  26.030  -6.326  0.00  0.00    -0.394 OA
HETATM   35  O   UNK N   1      26.574  26.570  -3.907  0.00  0.00    -0.315 OA
HETATM   36  S   UNK N   1      26.307  28.672  -4.433  0.00  0.00    -0.154 SA
HETATM   37  H   UNK N   1      25.080  26.770  -6.887  0.00  0.00     0.210 HD
ENDROOT
TORSDOF 9
ENDMDL
MODEL 7
REMARK VINA RESULT:     -13.6      1.309      2.377
REMARK  9 active torsions:
REMARK  status: ('A' for Active; 'I' for Inactive)
REMARK    1  A    between atoms: C_22  and  C_15 
REMARK    2  A    between atoms: C_30  and  C_19 
REMARK    3  A    between atoms: N_31  and  C_21 
REMARK    4  A    between atoms: C_22  and  S_36 
REMARK    5  A    between atoms: C_29  and  C_24 
REMARK    6  A    between atoms: O_35  and  C_25 
REMARK    7  A    between atoms: C_29  and  C_26 
REMARK    8  A    between atoms: C_30  and  C_26 
REMARK    9  A    between atoms: C_28  and  C_27 
ROOT
HETATM    1  C   UNK N   1      35.171  14.045  17.643  0.00  0.00     0.008 A 
HETATM    2  C   UNK N   1      35.238  10.055  18.244  0.00  0.00     0.011 A 
HETATM    3  C   UNK N   1      35.356  12.851  19.004  0.00  0.00     0.013 A 
HETATM    4  C   UNK N   1      34.948  12.899  16.077  0.00  0.00     0.022 A 
HETATM    5  C   UNK N   1      35.173  10.755  17.757  0.00  0.00     0.019 A 
HETATM    6  C   UNK N   1      34.426   9.237  12.441  0.00  0.00     0.144 A 
HETATM    7  C   UNK N   1      35.068  13.659  16.921  0.00  0.00    -0.025 A 
HETATM    8  C   UNK N   1      34.536  11.064  13.175  0.00  0.00     0.027 A 
HETATM    9  C   UNK N   1      34.454  11.468  12.577  0.00  0.00     0.027 A 
HETATM   10  C   UNK N   1      35.428  10.642  19.586  0.00  0.00     0.006 A 
HETATM   11  C   UNK N   1      35.484  11.544  19.965  0.00  0.00     0.079 A 
HETATM   12  C   UNK N   1      35.419  11.328  19.505  0.00  0.00     0.011 A 
HETATM   13  C   UNK N   1      35.387  11.095  19.279  0.00  0.00     0.018 A 
HETATM   14  C   UNK N   1      34.701  10.286  14.381  0.00  0.00     0.040 A 
HETATM   15  C   UNK N   1      34.652  10.691  14.023  0.00  0.00     0.040 A 
HETATM   16  C   UNK N   1      35.050  12.323  16.830  0.00  0.00     0.049 A 
HETATM   17  C   UNK N   1      34.905  11.758  15.806  0.00  0.00     0.185 A 
HETATM   18  C   UNK N   1      35.302  10.755  18.678  0.00  0.00    -0.007 A 
HETATM   19  C   UNK N   1      35.265  12.327  18.372  0.00  0.00     0.021 A 
HETATM   20  C   UNK N   1      34.573  10.342  13.463  0.00  0.00     0.080 A 
HETATM   21  C   UNK N   1      34.518  10.733  13.061  0.00  0.00     0.080 A 
HETATM   22  C   UNK N   1      34.728  11.097  14.552  0.00  0.00     0.051 A 
HETATM   23  C   UNK N   1      35.458  12.341  19.754  0.00  0.00     0.132 A 
HETATM   24  C   UNK N   1      35.133  11.689  17.439  0.00  0.00     0.142 A 
HETATM   25  C   UNK N   1      34.955  11.026  16.185  0.00  0.00     0.268 A 
HETATM   26  C   UNK N   1      35.345  12.386  18.939  0.00  0.00     0.075 A 
HETATM   27  C   UNK N   1      35.157  12.837  17.578  0.00  0.00     0.134 A 
HETATM   28  C   UNK N   1      35.061  12.834  16.891  0.00  0.00     0.002 A 
HETATM   29  C   UNK N   1      35.246  11.404  18.260  0.00  0.00    -0.003 A 
HETATM   30  C   UNK N   1      35.301  11.616  18.645  0.00  0.00    -0.023 A 
HETATM   31  N   UNK N   1      34.491   9.926  12.889  0.00  0.00    -0.408 N 
HETATM   32  O   UNK N   1      35.532  12.982  20.269  0.00  0.00    -0.298 OA
HETATM   33  O   UNK N   1      34.891  10.331  15.747  0.00  0.00    -0.264 OA
HETATM   34  O   UNK N   1      35.191  13.629  17.804  0.00  0.00    -0.394 OA
HETATM   35  O   UNK N   1      35.069  10.992  17.002  0.00  0.00    -0.315 OA
HETATM   36  S   UNK N   1      34.792  11.793  14.990  0.00  0.00    -0.154 SA
HETATM   37  H   UNK N   1      35.101  14.329  17.138  0.00  0.00     0.210 HD
ENDROOT
TORSDOF 9
ENDMDL
MODEL 8
REMARK VINA RESULT:     -13.5      1.981      3.477
REMARK  9 active torsions:
REMARK  status: ('A' for Active; 'I' for Inactive)
REMARK    1  A    between atoms: C_22  and  C_15 
REMARK    2  A    between atoms: C_30  and  C_19 
REMARK    3  A    between atoms: N_31  and  C_21 
REMARK    4  A    between atoms: C_22  and  S_36 
REMARK    5  A    between atoms: C_29  and  C_24 
REMARK    6  A    between atoms: O_35  and  C_25 
REMARK    7  A    between atoms: C_29  and  C_26 
REMARK    8  A    between atoms: C_30  and  C_26 
REMARK    9  A    between atoms: C_28  and  C_27 
ROOT
HETATM    1  C   UNK N   1      35.370  13.519  15.853  0.00  0.00     0.008 A 
HETATM    2  C   UNK N   1      35.333  11.129  19.104  0.00  0.00     0.011 A 
HETATM    3  C   UNK N   1      35.251  13.644  17.665  0.00  0.00     0.013 A 
HETATM    4  C   UNK N   1      35.517  11.594  15.552  0.00  0.00     0.022 A 
HETATM    5  C   UNK N   1      35.374  11.276  18.263  0.00  0.00     0.019 A 
HETATM    6  C   UNK N   1      35.863   6.419  15.563  0.00  0.00     0.144 A 
HETATM    7  C   UNK N   1      35.437  12.732  15.614  0.00  0.00    -0.025 A 
HETATM    8  C   UNK N   1      35.789   8.232  14.791  0.00  0.00     0.027 A 
HETATM    9  C   UNK N   1      35.841   8.091  14.080  0.00  0.00     0.027 A 
HETATM   10  C   UNK N   1      35.208  12.499  19.641  0.00  0.00     0.006 A 
HETATM   11  C   UNK N   1      35.170  13.406  19.272  0.00  0.00     0.079 A 
HETATM   12  C   UNK N   1      35.213  12.926  19.098  0.00  0.00     0.011 A 
HETATM   13  C   UNK N   1      35.234  12.600  19.103  0.00  0.00     0.018 A 
HETATM   14  C   UNK N   1      35.682   8.541  16.197  0.00  0.00     0.040 A 
HETATM   15  C   UNK N   1      35.713   8.573  15.657  0.00  0.00     0.040 A 
HETATM   16  C   UNK N   1      35.451  11.724  16.495  0.00  0.00     0.049 A 
HETATM   17  C   UNK N   1      35.547  10.596  16.167  0.00  0.00     0.185 A 
HETATM   18  C   UNK N   1      35.290  11.932  18.917  0.00  0.00    -0.007 A 
HETATM   19  C   UNK N   1      35.311  12.824  17.586  0.00  0.00     0.021 A 
HETATM   20  C   UNK N   1      35.766   7.927  15.506  0.00  0.00     0.080 A 
HETATM   21  C   UNK N   1      35.800   7.917  14.944  0.00  0.00     0.080 A 
HETATM   22  C   UNK N   1      35.663   9.236  15.745  0.00  0.00     0.051 A 
HETATM   23  C   UNK N   1      35.186  13.818  18.558  0.00  0.00     0.132 A 
HETATM   24  C   UNK N   1      35.399  11.709  17.376  0.00  0.00     0.142 A 
HETATM   25  C   UNK N   1      35.515  10.349  16.954  0.00  0.00     0.268 A 
HETATM   26  C   UNK N   1      35.259  13.269  17.948  0.00  0.00     0.075 A 
HETATM   27  C   UNK N   1      35.381  12.619  16.662  0.00  0.00     0.134 A 
HETATM   28  C   UNK N   1      35.443  12.128  16.176  0.00  0.00     0.002 A 
HETATM   29  C   UNK N   1      35.325  12.093  18.160  0.00  0.00    -0.003 A 
HETATM   30  C   UNK N   1      35.289  12.517  18.284  0.00  0.00    -0.023 A 
HETATM   31  N   UNK N   1      35.820   7.225  15.393  0.00  0.00    -0.408 N 
HETATM   32  O   UNK N   1      35.136  14.638  18.470  0.00  0.00    -0.298 OA
HETATM   33  O   UNK N   1      35.558   9.546  17.136  0.00  0.00    -0.264 OA
HETATM   34  O   UNK N   1      35.357  13.340  16.262  0.00  0.00    -0.394 OA
HETATM   35  O   UNK N   1      35.441  10.906  17.559  0.00  0.00    -0.315 OA
HETATM   36  S   UNK N   1      35.621  10.039  15.563  0.00  0.00    -0.154 SA
HETATM   37  H   UNK N   1      35.414  13.360  15.293  0.00  0.00     0.210 HD
ENDROOT
TORSDOF 9
ENDMDL
MODEL 9
REMARK VINA RESULT:     -13.3     27.667     28.490
REMARK  9 active torsions:
REMARK  status: ('A' for Active; 'I' for Inactive)
REMARK    1  A    between atoms: C_22  and  C_15 
REMARK    2  A    between atoms: C_30  and  C_19 
REMARK    3  A    between atoms: N_31  and  C_21 
REMARK    4  A    between atoms: C_22  and  S_36 
REMARK    5  A    between atoms: C_29  and  C_24 
REMARK    6  A    between atoms: O_35  and  C_25 
REMARK    7  A    between atoms: C_29  and  C_26 
REMARK    8  A    between atoms: C_30  and  C_26 
REMARK    9  A    between atoms: C_28  and  C_27 
ROOT
HETATM    1  C   UNK N   1      28.238  29.207  -6.777  0.00  0.00     0.008 A 
HETATM    2  C   UNK N   1      25.407  27.453  -4.499  0.00  0.00     0.011 A 
HETATM    3  C   UNK N   1      27.344  29.487  -5.216  0.00  0.00     0.013 A 
HETATM    4  C   UNK N   1      27.493  27.518  -7.417  0.00  0.00     0.022 A 
HETATM    5  C   UNK N   1      25.918  27.501  -5.182  0.00  0.00     0.019 A 
HETATM    6  C   UNK N   1      25.058  23.055  -8.441  0.00  0.00     0.144 A 
HETATM    7  C   UNK N   1      27.995  28.506  -7.137  0.00  0.00    -0.025 A 
HETATM    8  C   UNK N   1      26.315  24.546  -8.733  0.00  0.00     0.027 A 
HETATM    9  C   UNK N   1      26.622  24.357  -9.363  0.00  0.00     0.027 A 
HETATM   10  C   UNK N   1      25.767  28.686  -3.770  0.00  0.00     0.006 A 
HETATM   11  C   UNK N   1      26.387  29.433  -3.902  0.00  0.00     0.079 A 
HETATM   12  C   UNK N   1      26.253  29.002  -4.145  0.00  0.00     0.011 A 
HETATM   13  C   UNK N   1      26.098  28.722  -4.206  0.00  0.00     0.018 A 
HETATM   14  C   UNK N   1      25.720  24.946  -7.479  0.00  0.00     0.040 A 
HETATM   15  C   UNK N   1      26.019  24.922  -7.931  0.00  0.00     0.040 A 
HETATM   16  C   UNK N   1      27.058  27.719  -6.591  0.00  0.00     0.049 A 
HETATM   17  C   UNK N   1      26.701  26.716  -7.094  0.00  0.00     0.185 A 
HETATM   18  C   UNK N   1      25.882  28.128  -4.498  0.00  0.00    -0.007 A 
HETATM   19  C   UNK N   1      27.001  28.772  -5.447  0.00  0.00     0.021 A 
HETATM   20  C   UNK N   1      25.796  24.351  -8.188  0.00  0.00     0.080 A 
HETATM   21  C   UNK N   1      26.087  24.289  -8.666  0.00  0.00     0.080 A 
HETATM   22  C   UNK N   1      26.285  25.503  -7.724  0.00  0.00     0.051 A 
HETATM   23  C   UNK N   1      26.956  29.722  -4.424  0.00  0.00     0.132 A 
HETATM   24  C   UNK N   1      26.588  27.790  -5.848  0.00  0.00     0.142 A 
HETATM   25  C   UNK N   1      26.171  26.577  -6.477  0.00  0.00     0.268 A 
HETATM   26  C   UNK N   1      27.020  29.190  -5.052  0.00  0.00     0.075 A 
HETATM   27  C   UNK N   1      27.390  28.507  -6.271  0.00  0.00     0.134 A 
HETATM   28  C   UNK N   1      27.415  28.038  -6.781  0.00  0.00     0.002 A 
HETATM   29  C   UNK N   1      26.356  28.196  -5.106  0.00  0.00    -0.003 A 
HETATM   30  C   UNK N   1      26.490  28.573  -4.917  0.00  0.00    -0.023 A 
HETATM   31  N   UNK N   1      25.525  23.734  -8.424  0.00  0.00    -0.408 N 
HETATM   32  O   UNK N   1      27.388  30.420  -4.335  0.00  0.00    -0.298 OA
HETATM   33  O   UNK N   1      25.698  25.901  -6.483  0.00  0.00    -0.264 OA
HETATM   34  O   UNK N   1      27.939  29.091  -6.466  0.00  0.00    -0.394 OA
HETATM   35  O   UNK N   1      26.115  27.114  -5.853  0.00  0.00    -0.315 OA
HETATM   36  S   UNK N   1      26.757  26.178  -7.718  0.00  0.00    -0.154 SA
HETATM   37  H   UNK N   1      28.458  29.017  -7.283  0.00  0.00     0.210 HD
ENDROOT
TORSDOF 9
ENDMDL
