REMARK  1 active torsions:
REMARK  status: ('A' for Active; 'I' for Inactive)
REMARK       I    between atoms: N_1  and  C_2 
REMARK    1  A    between atoms: C_2  and  C_4 
ROOT
HETATM    1  C   UNK N   1       0.682   1.352  -0.000  0.00  0.00     0.047 A 
HETATM    2  C   UNK N   1       1.928   0.715  -0.000  0.00  0.00     0.020 A 
HETATM    3  C   UNK N   1       2.000  -0.676   0.000  0.00  0.00     0.018 A 
HETATM    4  C   UNK N   1       0.819  -1.420   0.000  0.00  0.00     0.087 A 
HETATM    5  N   UNK N   1      -0.387  -0.790   0.000  0.00  0.00    -0.374 N 
ATOM      6  HN  UNK N   1      -1.241  -1.348   0.000  1.00  0.00     0.164 HD
HETATM    7  C   UNK N   1      -0.479   0.567  -0.000  0.00  0.00     0.104 A 
ENDROOT
BRANCH   1   8
HETATM    8  C   UNK N   1       0.609   2.824  -0.000  0.00  0.00     0.250 C 
HETATM    9  N   UNK N   1      -0.587   3.449   0.000  0.00  0.00    -0.366 N 
HETATM   10  H   UNK N   1      -0.629   4.432   0.000  0.00  0.00     0.159 HD
HETATM   11  H   UNK N   1      -1.418   2.921   0.000  0.00  0.00     0.159 HD
HETATM   12  O   UNK N   1       1.633   3.487   0.000  0.00  0.00    -0.268 OA
ENDBRANCH   1   8
TORSDOF 1
