MODEL 1
REMARK VINA RESULT:      -4.7      0.000      0.000
REMARK  1 active torsions:
REMARK  status: ('A' for Active; 'I' for Inactive)
REMARK       I    between atoms: N_1  and  C_2 
REMARK    1  A    between atoms: C_2  and  C_4 
ROOT
HETATM    1  C   UNK N   1      23.297  12.813  10.294  0.00  0.00     0.047 A 
HETATM    2  C   UNK N   1      22.198  13.466   9.725  0.00  0.00     0.020 A 
HETATM    3  C   UNK N   1      20.914  13.213  10.202  0.00  0.00     0.018 A 
HETATM    4  C   UNK N   1      20.741  12.306  11.249  0.00  0.00     0.087 A 
HETATM    5  N   UNK N   1      21.817  11.678  11.795  0.00  0.00    -0.374 N 
ATOM      6  HN  UNK N   1      21.675  11.018  12.559  1.00  0.00     0.164 HD
HETATM    7  C   UNK N   1      23.079  11.910  11.344  0.00  0.00     0.104 A 
ENDROOT
BRANCH   1   8
HETATM    8  C   UNK N   1      24.655  13.083   9.788  0.00  0.00     0.250 C 
HETATM    9  N   UNK N   1      25.642  13.440  10.635  0.00  0.00    -0.366 N 
HETATM   10  H   UNK N   1      26.547  13.618  10.291  0.00  0.00     0.159 HD
HETATM   11  H   UNK N   1      25.458  13.522  11.599  0.00  0.00     0.159 HD
HETATM   12  O   UNK N   1      24.893  12.983   8.595  0.00  0.00    -0.268 OA
ENDBRANCH   1   8
TORSDOF 1
ENDMDL
MODEL 2
REMARK VINA RESULT:      -4.5      2.044      3.605
REMARK  1 active torsions:
REMARK  status: ('A' for Active; 'I' for Inactive)
REMARK       I    between atoms: N_1  and  C_2 
REMARK    1  A    between atoms: C_2  and  C_4 
ROOT
HETATM    1  C   UNK N   1      22.149  12.548  10.771  0.00  0.00     0.047 A 
HETATM    2  C   UNK N   1      22.659  13.082   9.582  0.00  0.00     0.020 A 
HETATM    3  C   UNK N   1      24.035  13.121   9.369  0.00  0.00     0.018 A 
HETATM    4  C   UNK N   1      24.891  12.622  10.351  0.00  0.00     0.087 A 
HETATM    5  N   UNK N   1      24.385  12.105  11.503  0.00  0.00    -0.374 N 
ATOM      6  HN  UNK N   1      25.024  11.744  12.211  1.00  0.00     0.164 HD
HETATM    7  C   UNK N   1      23.044  12.058  11.731  0.00  0.00     0.104 A 
ENDROOT
BRANCH   1   8
HETATM    8  C   UNK N   1      20.693  12.508  10.994  0.00  0.00     0.250 C 
HETATM    9  N   UNK N   1      20.173  11.755  11.985  0.00  0.00    -0.366 N 
HETATM   10  H   UNK N   1      19.200  11.733  12.129  0.00  0.00     0.159 HD
HETATM   11  H   UNK N   1      20.768  11.227  12.566  0.00  0.00     0.159 HD
HETATM   12  O   UNK N   1      19.947  13.159  10.280  0.00  0.00    -0.268 OA
ENDBRANCH   1   8
TORSDOF 1
ENDMDL
MODEL 3
REMARK VINA RESULT:      -4.5     10.955     11.909
REMARK  1 active torsions:
REMARK  status: ('A' for Active; 'I' for Inactive)
REMARK       I    between atoms: N_1  and  C_2 
REMARK    1  A    between atoms: C_2  and  C_4 
ROOT
HETATM    1  C   UNK N   1      33.438  17.747   7.599  0.00  0.00     0.047 A 
HETATM    2  C   UNK N   1      33.779  17.582   6.251  0.00  0.00     0.020 A 
HETATM    3  C   UNK N   1      32.797  17.254   5.319  0.00  0.00     0.018 A 
HETATM    4  C   UNK N   1      31.478  17.093   5.745  0.00  0.00     0.087 A 
HETATM    5  N   UNK N   1      31.158  17.256   7.058  0.00  0.00    -0.374 N 
ATOM      6  HN  UNK N   1      30.189  17.135   7.353  1.00  0.00     0.164 HD
HETATM    7  C   UNK N   1      32.101  17.577   7.984  0.00  0.00     0.104 A 
ENDROOT
BRANCH   1   8
HETATM    8  C   UNK N   1      34.478  18.094   8.583  0.00  0.00     0.250 C 
HETATM    9  N   UNK N   1      34.638  17.353   9.699  0.00  0.00    -0.366 N 
HETATM   10  H   UNK N   1      35.334  17.589  10.352  0.00  0.00     0.159 HD
HETATM   11  H   UNK N   1      34.057  16.574   9.860  0.00  0.00     0.159 HD
HETATM   12  O   UNK N   1      35.203  19.057   8.393  0.00  0.00    -0.268 OA
ENDBRANCH   1   8
TORSDOF 1
ENDMDL
MODEL 4
REMARK VINA RESULT:      -4.5      2.645      3.478
REMARK  1 active torsions:
REMARK  status: ('A' for Active; 'I' for Inactive)
REMARK       I    between atoms: N_1  and  C_2 
REMARK    1  A    between atoms: C_2  and  C_4 
ROOT
HETATM    1  C   UNK N   1      21.391  13.460  10.057  0.00  0.00     0.047 A 
HETATM    2  C   UNK N   1      22.733  13.493   9.662  0.00  0.00     0.020 A 
HETATM    3  C   UNK N   1      23.640  12.580  10.195  0.00  0.00     0.018 A 
HETATM    4  C   UNK N   1      23.193  11.638  11.123  0.00  0.00     0.087 A 
HETATM    5  N   UNK N   1      21.886  11.615  11.500  0.00  0.00    -0.374 N 
ATOM      6  HN  UNK N   1      21.575  10.920  12.179  1.00  0.00     0.164 HD
HETATM    7  C   UNK N   1      20.985  12.498  10.991  0.00  0.00     0.104 A 
ENDROOT
BRANCH   1   8
HETATM    8  C   UNK N   1      20.434  14.427   9.491  0.00  0.00     0.250 C 
HETATM    9  N   UNK N   1      20.866  15.442   8.713  0.00  0.00    -0.366 N 
HETATM   10  H   UNK N   1      20.222  16.084   8.338  0.00  0.00     0.159 HD
HETATM   11  H   UNK N   1      21.827  15.539   8.521  0.00  0.00     0.159 HD
HETATM   12  O   UNK N   1      19.242  14.316   9.724  0.00  0.00    -0.268 OA
ENDBRANCH   1   8
TORSDOF 1
ENDMDL
MODEL 5
REMARK VINA RESULT:      -4.3     13.543     14.321
REMARK  1 active torsions:
REMARK  status: ('A' for Active; 'I' for Inactive)
REMARK       I    between atoms: N_1  and  C_2 
REMARK    1  A    between atoms: C_2  and  C_4 
ROOT
HETATM    1  C   UNK N   1      35.312  12.843  17.016  0.00  0.00     0.047 A 
HETATM    2  C   UNK N   1      35.431  11.518  17.452  0.00  0.00     0.020 A 
HETATM    3  C   UNK N   1      35.439  11.230  18.814  0.00  0.00     0.018 A 
HETATM    4  C   UNK N   1      35.327  12.276  19.733  0.00  0.00     0.087 A 
HETATM    5  N   UNK N   1      35.211  13.560  19.298  0.00  0.00    -0.374 N 
ATOM      6  HN  UNK N   1      35.130  14.312  19.982  1.00  0.00     0.164 HD
HETATM    7  C   UNK N   1      35.202  13.862  17.972  0.00  0.00     0.104 A 
ENDROOT
BRANCH   1   8
HETATM    8  C   UNK N   1      35.305  13.144  15.573  0.00  0.00     0.250 C 
HETATM    9  N   UNK N   1      36.369  13.737  14.994  0.00  0.00    -0.366 N 
HETATM   10  H   UNK N   1      36.358  13.936  14.030  0.00  0.00     0.159 HD
HETATM   11  H   UNK N   1      37.158  13.971  15.535  0.00  0.00     0.159 HD
HETATM   12  O   UNK N   1      34.333  12.858  14.894  0.00  0.00    -0.268 OA
ENDBRANCH   1   8
TORSDOF 1
ENDMDL
MODEL 6
REMARK VINA RESULT:      -4.2      2.136      3.362
REMARK  1 active torsions:
REMARK  status: ('A' for Active; 'I' for Inactive)
REMARK       I    between atoms: N_1  and  C_2 
REMARK    1  A    between atoms: C_2  and  C_4 
ROOT
HETATM    1  C   UNK N   1      22.227  13.007   9.988  0.00  0.00     0.047 A 
HETATM    2  C   UNK N   1      21.937  12.287  11.153  0.00  0.00     0.020 A 
HETATM    3  C   UNK N   1      22.972  11.815  11.956  0.00  0.00     0.018 A 
HETATM    4  C   UNK N   1      24.294  12.068  11.584  0.00  0.00     0.087 A 
HETATM    5  N   UNK N   1      24.564  12.769  10.450  0.00  0.00    -0.374 N 
ATOM      6  HN  UNK N   1      25.535  12.946  10.192  1.00  0.00     0.164 HD
HETATM    7  C   UNK N   1      23.568  13.239   9.652  0.00  0.00     0.104 A 
ENDROOT
BRANCH   1   8
HETATM    8  C   UNK N   1      21.130  13.506   9.140  0.00  0.00     0.250 C 
HETATM    9  N   UNK N   1      20.544  14.692   9.407  0.00  0.00    -0.366 N 
HETATM   10  H   UNK N   1      19.812  15.019   8.837  0.00  0.00     0.159 HD
HETATM   11  H   UNK N   1      20.850  15.230  10.173  0.00  0.00     0.159 HD
HETATM   12  O   UNK N   1      20.744  12.846   8.189  0.00  0.00    -0.268 OA
ENDBRANCH   1   8
TORSDOF 1
ENDMDL
MODEL 7
REMARK VINA RESULT:      -4.2      9.776     10.456
REMARK  1 active torsions:
REMARK  status: ('A' for Active; 'I' for Inactive)
REMARK       I    between atoms: N_1  and  C_2 
REMARK    1  A    between atoms: C_2  and  C_4 
ROOT
HETATM    1  C   UNK N   1      20.703  19.348   2.697  0.00  0.00     0.047 A 
HETATM    2  C   UNK N   1      21.652  18.745   3.530  0.00  0.00     0.020 A 
HETATM    3  C   UNK N   1      21.356  17.543   4.168  0.00  0.00     0.018 A 
HETATM    4  C   UNK N   1      20.108  16.952   3.966  0.00  0.00     0.087 A 
HETATM    5  N   UNK N   1      19.193  17.548   3.154  0.00  0.00    -0.374 N 
ATOM      6  HN  UNK N   1      18.285  17.103   3.017  1.00  0.00     0.164 HD
HETATM    7  C   UNK N   1      19.461  18.721   2.522  0.00  0.00     0.104 A 
ENDROOT
BRANCH   1   8
HETATM    8  C   UNK N   1      21.018  20.620   2.024  0.00  0.00     0.250 C 
HETATM    9  N   UNK N   1      20.420  20.943   0.858  0.00  0.00    -0.366 N 
HETATM   10  H   UNK N   1      20.635  21.794   0.413  0.00  0.00     0.159 HD
HETATM   11  H   UNK N   1      19.768  20.327   0.452  0.00  0.00     0.159 HD
HETATM   12  O   UNK N   1      21.825  21.391   2.518  0.00  0.00    -0.268 OA
ENDBRANCH   1   8
TORSDOF 1
ENDMDL
MODEL 8
REMARK VINA RESULT:      -4.1      7.739      9.395
REMARK  1 active torsions:
REMARK  status: ('A' for Active; 'I' for Inactive)
REMARK       I    between atoms: N_1  and  C_2 
REMARK    1  A    between atoms: C_2  and  C_4 
ROOT
HETATM    1  C   UNK N   1      29.492  17.659   8.308  0.00  0.00     0.047 A 
HETATM    2  C   UNK N   1      30.638  18.141   8.949  0.00  0.00     0.020 A 
HETATM    3  C   UNK N   1      31.895  17.923   8.388  0.00  0.00     0.018 A 
HETATM    4  C   UNK N   1      31.992  17.220   7.186  0.00  0.00     0.087 A 
HETATM    5  N   UNK N   1      30.871  16.755   6.572  0.00  0.00    -0.374 N 
ATOM      6  HN  UNK N   1      30.959  16.244   5.694  1.00  0.00     0.164 HD
HETATM    7  C   UNK N   1      29.635  16.958   7.102  0.00  0.00     0.104 A 
ENDROOT
BRANCH   1   8
HETATM    8  C   UNK N   1      28.164  17.891   8.903  0.00  0.00     0.250 C 
HETATM    9  N   UNK N   1      27.486  19.028   8.639  0.00  0.00    -0.366 N 
HETATM   10  H   UNK N   1      26.600  19.177   9.040  0.00  0.00     0.159 HD
HETATM   11  H   UNK N   1      27.878  19.708   8.045  0.00  0.00     0.159 HD
HETATM   12  O   UNK N   1      27.669  17.055   9.640  0.00  0.00    -0.268 OA
ENDBRANCH   1   8
TORSDOF 1
ENDMDL
MODEL 9
REMARK VINA RESULT:      -4.1     21.851     23.259
REMARK  1 active torsions:
REMARK  status: ('A' for Active; 'I' for Inactive)
REMARK       I    between atoms: N_1  and  C_2 
REMARK    1  A    between atoms: C_2  and  C_4 
ROOT
HETATM    1  C   UNK N   1      43.182  22.230   3.120  0.00  0.00     0.047 A 
HETATM    2  C   UNK N   1      42.996  20.939   3.628  0.00  0.00     0.020 A 
HETATM    3  C   UNK N   1      41.823  20.242   3.348  0.00  0.00     0.018 A 
HETATM    4  C   UNK N   1      40.843  20.845   2.558  0.00  0.00     0.087 A 
HETATM    5  N   UNK N   1      41.035  22.100   2.069  0.00  0.00    -0.374 N 
ATOM      6  HN  UNK N   1      40.309  22.527   1.493  1.00  0.00     0.164 HD
HETATM    7  C   UNK N   1      42.173  22.798   2.331  0.00  0.00     0.104 A 
ENDROOT
BRANCH   1   8
HETATM    8  C   UNK N   1      44.424  22.965   3.419  0.00  0.00     0.250 C 
HETATM    9  N   UNK N   1      45.456  22.345   4.027  0.00  0.00    -0.366 N 
HETATM   10  H   UNK N   1      46.283  22.841   4.223  0.00  0.00     0.159 HD
HETATM   11  H   UNK N   1      45.383  21.394   4.274  0.00  0.00     0.159 HD
HETATM   12  O   UNK N   1      44.525  24.143   3.116  0.00  0.00    -0.268 OA
ENDBRANCH   1   8
TORSDOF 1
ENDMDL
