REMARK  1 active torsions:
REMARK  status: ('A' for Active; 'I' for Inactive)
REMARK    1  A    between atoms: C_2  and  O_4 
ROOT
HETATM    1  C   UNK N   1       1.689   1.326   0.000  0.00  0.00     0.039 C 
HETATM    2  C   UNK N   1       0.958   0.000   0.000  0.00  0.00     0.110 C 
HETATM    3  C   UNK N   1       1.689  -1.326   0.000  0.00  0.00     0.039 C 
ENDROOT
BRANCH   2   4
HETATM    4  O   UNK N   1      -0.435   0.000   0.000  0.00  0.00    -0.396 OA
HETATM    5  H   UNK N   1      -0.920   0.840   0.000  0.00  0.00     0.209 HD
ENDBRANCH   2   4
TORSDOF 1
