MODEL 1
REMARK VINA RESULT:      -6.1      0.000      0.000
REMARK  6 active torsions:
REMARK  status: ('A' for Active; 'I' for Inactive)
REMARK    1  A    between atoms: C_3  and  N_1 
REMARK    2  A    between atoms: C_2  and  C_4 
REMARK    3  A    between atoms: C_3  and  C_13 
REMARK    4  A    between atoms: C_4  and  C_3 
REMARK    5  A    between atoms: O_14  and  C_13 
REMARK    6  A    between atoms: C_15  and  O_16 
ROOT
HETATM    1  C   UNK N   1      26.784  24.333  -4.109  0.00  0.00    -0.028 A 
HETATM    2  C   UNK N   1      26.239  23.647  -5.193  0.00  0.00     0.096 A 
HETATM    3  N   UNK N   1      25.452  24.490  -5.914  0.00  0.00    -0.365 N 
HETATM    4  C   UNK N   1      25.518  25.682  -5.294  0.00  0.00     0.043 A 
HETATM    5  C   UNK N   1      26.318  25.618  -4.189  0.00  0.00     0.001 A 
HETATM    6  C   UNK N   1      26.561  26.730  -3.389  0.00  0.00     0.050 A 
HETATM    7  C   UNK N   1      24.900  26.868  -5.685  0.00  0.00     0.033 A 
HETATM    8  C   UNK N   1      25.123  28.012  -4.896  0.00  0.00     0.039 A 
HETATM    9  C   UNK N   1      25.948  27.944  -3.749  0.00  0.00     0.066 A 
HETATM   10  H   UNK N   1      24.938  24.272  -6.725  0.00  0.00     0.165 HD
ENDROOT
BRANCH   1  11
HETATM   11  C   UNK N   1      27.774  23.832  -3.098  0.00  0.00     0.076 C 
BRANCH  11  12
HETATM   12  C   UNK N   1      29.211  23.675  -3.595  0.00  0.00     0.177 C 
BRANCH  12  13
HETATM   13  N   UNK N   1      29.888  24.963  -3.558  0.00  0.00    -0.417 N 
HETATM   14  H   UNK N   1      29.809  25.695  -4.264  0.00  0.00     0.150 HD
HETATM   15  H   UNK N   1      30.496  25.148  -2.760  0.00  0.00     0.150 HD
ENDBRANCH  12  13
BRANCH  12  16
HETATM   16  C   UNK N   1      29.953  22.697  -2.719  0.00  0.00     0.163 C 
HETATM   17  O   UNK N   1      30.243  21.584  -3.135  0.00  0.00    -0.648 OA
BRANCH  16  18
HETATM   18  O   UNK N   1      30.319  23.050  -1.470  0.00  0.00    -0.775 OA
HETATM   19  H   UNK N   1      29.799  23.658  -0.984  0.00  0.00     0.167 HD
ENDBRANCH  16  18
ENDBRANCH  12  16
ENDBRANCH  11  12
ENDBRANCH   1  11
BRANCH   9  20
HETATM   20  O   UNK N   1      26.151  29.041  -3.002  0.00  0.00    -0.361 OA
HETATM   21  H   UNK N   1      26.995  29.208  -2.633  0.00  0.00     0.217 HD
ENDBRANCH   9  20
TORSDOF 6
ENDMDL
MODEL 2
REMARK VINA RESULT:      -6.0     12.444     14.010
REMARK  6 active torsions:
REMARK  status: ('A' for Active; 'I' for Inactive)
REMARK    1  A    between atoms: C_3  and  N_1 
REMARK    2  A    between atoms: C_2  and  C_4 
REMARK    3  A    between atoms: C_3  and  C_13 
REMARK    4  A    between atoms: C_4  and  C_3 
REMARK    5  A    between atoms: O_14  and  C_13 
REMARK    6  A    between atoms: C_15  and  O_16 
ROOT
HETATM    1  C   UNK N   1      31.331  17.003   6.383  0.00  0.00    -0.028 A 
HETATM    2  C   UNK N   1      31.424  17.202   5.006  0.00  0.00     0.096 A 
HETATM    3  N   UNK N   1      30.275  17.769   4.551  0.00  0.00    -0.365 N 
HETATM    4  C   UNK N   1      29.487  17.930   5.629  0.00  0.00     0.043 A 
HETATM    5  C   UNK N   1      30.100  17.471   6.760  0.00  0.00     0.001 A 
HETATM    6  C   UNK N   1      29.495  17.544   8.010  0.00  0.00     0.050 A 
HETATM    7  C   UNK N   1      28.218  18.504   5.666  0.00  0.00     0.033 A 
HETATM    8  C   UNK N   1      27.576  18.593   6.915  0.00  0.00     0.039 A 
HETATM    9  C   UNK N   1      28.210  18.112   8.084  0.00  0.00     0.066 A 
HETATM   10  H   UNK N   1      30.062  18.012   3.621  0.00  0.00     0.165 HD
ENDROOT
BRANCH   1  11
HETATM   11  C   UNK N   1      32.386  16.489   7.318  0.00  0.00     0.076 C 
BRANCH  11  12
HETATM   12  C   UNK N   1      32.990  17.519   8.273  0.00  0.00     0.177 C 
BRANCH  12  13
HETATM   13  N   UNK N   1      33.361  16.873   9.523  0.00  0.00    -0.417 N 
HETATM   14  H   UNK N   1      33.162  17.230  10.457  0.00  0.00     0.150 HD
HETATM   15  H   UNK N   1      33.864  15.987   9.459  0.00  0.00     0.150 HD
ENDBRANCH  12  13
BRANCH  12  16
HETATM   16  C   UNK N   1      34.215  18.140   7.650  0.00  0.00     0.163 C 
HETATM   17  O   UNK N   1      34.565  17.828   6.521  0.00  0.00    -0.648 OA
BRANCH  16  18
HETATM   18  O   UNK N   1      34.928  19.060   8.331  0.00  0.00    -0.775 OA
HETATM   19  H   UNK N   1      35.089  18.944   9.246  0.00  0.00     0.167 HD
ENDBRANCH  16  18
ENDBRANCH  12  16
ENDBRANCH  11  12
ENDBRANCH   1  11
BRANCH   9  20
HETATM   20  O   UNK N   1      27.586  18.199   9.270  0.00  0.00    -0.361 OA
HETATM   21  H   UNK N   1      27.931  17.750  10.015  0.00  0.00     0.217 HD
ENDBRANCH   9  20
TORSDOF 6
ENDMDL
MODEL 3
REMARK VINA RESULT:      -5.8     12.234     14.273
REMARK  6 active torsions:
REMARK  status: ('A' for Active; 'I' for Inactive)
REMARK    1  A    between atoms: C_3  and  N_1 
REMARK    2  A    between atoms: C_2  and  C_4 
REMARK    3  A    between atoms: C_3  and  C_13 
REMARK    4  A    between atoms: C_4  and  C_3 
REMARK    5  A    between atoms: O_14  and  C_13 
REMARK    6  A    between atoms: C_15  and  O_16 
ROOT
HETATM    1  C   UNK N   1      30.998  17.228   7.862  0.00  0.00    -0.028 A 
HETATM    2  C   UNK N   1      30.155  17.543   8.927  0.00  0.00     0.096 A 
HETATM    3  N   UNK N   1      28.920  17.855   8.451  0.00  0.00    -0.365 N 
HETATM    4  C   UNK N   1      28.993  17.724   7.115  0.00  0.00     0.043 A 
HETATM    5  C   UNK N   1      30.246  17.346   6.724  0.00  0.00     0.001 A 
HETATM    6  C   UNK N   1      30.568  17.127   5.389  0.00  0.00     0.050 A 
HETATM    7  C   UNK N   1      27.963  17.908   6.194  0.00  0.00     0.033 A 
HETATM    8  C   UNK N   1      28.255  17.696   4.834  0.00  0.00     0.039 A 
HETATM    9  C   UNK N   1      29.555  17.309   4.431  0.00  0.00     0.066 A 
HETATM   10  H   UNK N   1      28.134  18.123   8.978  0.00  0.00     0.165 HD
ENDROOT
BRANCH   1  11
HETATM   11  C   UNK N   1      32.417  16.742   7.916  0.00  0.00     0.076 C 
BRANCH  11  12
HETATM   12  C   UNK N   1      33.368  17.556   8.793  0.00  0.00     0.177 C 
BRANCH  12  13
HETATM   13  N   UNK N   1      34.069  16.671   9.711  0.00  0.00    -0.417 N 
HETATM   14  H   UNK N   1      34.786  15.995   9.451  0.00  0.00     0.150 HD
HETATM   15  H   UNK N   1      33.821  16.731  10.699  0.00  0.00     0.150 HD
ENDBRANCH  12  13
BRANCH  12  16
HETATM   16  C   UNK N   1      34.374  18.276   7.929  0.00  0.00     0.163 C 
HETATM   17  O   UNK N   1      35.090  19.147   8.402  0.00  0.00    -0.648 OA
BRANCH  16  18
HETATM   18  O   UNK N   1      34.504  17.950   6.627  0.00  0.00    -0.775 OA
HETATM   19  H   UNK N   1      33.822  17.478   6.192  0.00  0.00     0.167 HD
ENDBRANCH  16  18
ENDBRANCH  12  16
ENDBRANCH  11  12
ENDBRANCH   1  11
BRANCH   9  20
HETATM   20  O   UNK N   1      29.823  17.113   3.130  0.00  0.00    -0.361 OA
HETATM   21  H   UNK N   1      30.509  17.595   2.714  0.00  0.00     0.217 HD
ENDBRANCH   9  20
TORSDOF 6
ENDMDL
MODEL 4
REMARK VINA RESULT:      -5.6     23.024     26.250
REMARK  6 active torsions:
REMARK  status: ('A' for Active; 'I' for Inactive)
REMARK    1  A    between atoms: C_3  and  N_1 
REMARK    2  A    between atoms: C_2  and  C_4 
REMARK    3  A    between atoms: C_3  and  C_13 
REMARK    4  A    between atoms: C_4  and  C_3 
REMARK    5  A    between atoms: O_14  and  C_13 
REMARK    6  A    between atoms: C_15  and  O_16 
ROOT
HETATM    1  C   UNK N   1      35.121  12.965  16.922  0.00  0.00    -0.028 A 
HETATM    2  C   UNK N   1      35.232  14.040  17.803  0.00  0.00     0.096 A 
HETATM    3  N   UNK N   1      35.337  13.573  19.076  0.00  0.00    -0.365 N 
HETATM    4  C   UNK N   1      35.304  12.232  18.985  0.00  0.00     0.043 A 
HETATM    5  C   UNK N   1      35.170  11.830  17.686  0.00  0.00     0.001 A 
HETATM    6  C   UNK N   1      35.130  10.486  17.330  0.00  0.00     0.050 A 
HETATM    7  C   UNK N   1      35.413  11.315  20.028  0.00  0.00     0.033 A 
HETATM    8  C   UNK N   1      35.375   9.946  19.703  0.00  0.00     0.039 A 
HETATM    9  C   UNK N   1      35.231   9.532  18.358  0.00  0.00     0.066 A 
HETATM   10  H   UNK N   1      35.420  14.109  19.898  0.00  0.00     0.165 HD
ENDROOT
BRANCH   1  11
HETATM   11  C   UNK N   1      35.070  12.998  15.423  0.00  0.00     0.076 C 
BRANCH  11  12
HETATM   12  C   UNK N   1      36.166  13.814  14.736  0.00  0.00     0.177 C 
BRANCH  12  13
HETATM   13  N   UNK N   1      37.428  13.092  14.798  0.00  0.00    -0.417 N 
HETATM   14  H   UNK N   1      38.057  12.930  14.011  0.00  0.00     0.150 HD
HETATM   15  H   UNK N   1      37.707  12.715  15.704  0.00  0.00     0.150 HD
ENDBRANCH  12  13
BRANCH  12  16
HETATM   16  C   UNK N   1      35.799  14.055  13.293  0.00  0.00     0.163 C 
HETATM   17  O   UNK N   1      34.708  13.709  12.863  0.00  0.00    -0.648 OA
BRANCH  16  18
HETATM   18  O   UNK N   1      36.669  14.671  12.468  0.00  0.00    -0.775 OA
HETATM   19  H   UNK N   1      36.357  15.287  11.835  0.00  0.00     0.167 HD
ENDBRANCH  16  18
ENDBRANCH  12  16
ENDBRANCH  11  12
ENDBRANCH   1  11
BRANCH   9  20
HETATM   20  O   UNK N   1      35.192   8.223  18.060  0.00  0.00    -0.361 OA
HETATM   21  H   UNK N   1      35.584   7.599  18.638  0.00  0.00     0.217 HD
ENDBRANCH   9  20
TORSDOF 6
ENDMDL
MODEL 5
REMARK VINA RESULT:      -5.5     17.033     18.671
REMARK  6 active torsions:
REMARK  status: ('A' for Active; 'I' for Inactive)
REMARK    1  A    between atoms: C_3  and  N_1 
REMARK    2  A    between atoms: C_2  and  C_4 
REMARK    3  A    between atoms: C_3  and  C_13 
REMARK    4  A    between atoms: C_4  and  C_3 
REMARK    5  A    between atoms: O_14  and  C_13 
REMARK    6  A    between atoms: C_15  and  O_16 
ROOT
HETATM    1  C   UNK N   1      21.587  14.605   8.105  0.00  0.00    -0.028 A 
HETATM    2  C   UNK N   1      22.730  14.628   7.308  0.00  0.00     0.096 A 
HETATM    3  N   UNK N   1      23.640  13.741   7.794  0.00  0.00    -0.365 N 
HETATM    4  C   UNK N   1      23.065  13.169   8.866  0.00  0.00     0.043 A 
HETATM    5  C   UNK N   1      21.816  13.676   9.085  0.00  0.00     0.001 A 
HETATM    6  C   UNK N   1      21.010  13.229  10.127  0.00  0.00     0.050 A 
HETATM    7  C   UNK N   1      23.603  12.171   9.676  0.00  0.00     0.033 A 
HETATM    8  C   UNK N   1      22.815  11.697  10.741  0.00  0.00     0.039 A 
HETATM    9  C   UNK N   1      21.523  12.226  10.969  0.00  0.00     0.066 A 
HETATM   10  H   UNK N   1      24.537  13.557   7.433  0.00  0.00     0.165 HD
ENDROOT
BRANCH   1  11
HETATM   11  C   UNK N   1      20.299  15.348   7.901  0.00  0.00     0.076 C 
BRANCH  11  12
HETATM   12  C   UNK N   1      20.301  16.815   8.330  0.00  0.00     0.177 C 
BRANCH  12  13
HETATM   13  N   UNK N   1      20.671  17.657   7.202  0.00  0.00    -0.417 N 
HETATM   14  H   UNK N   1      20.944  17.323   6.278  0.00  0.00     0.150 HD
HETATM   15  H   UNK N   1      20.657  18.667   7.348  0.00  0.00     0.150 HD
ENDBRANCH  12  13
BRANCH  12  16
HETATM   16  C   UNK N   1      18.928  17.210   8.817  0.00  0.00     0.163 C 
HETATM   17  O   UNK N   1      17.970  16.472   8.638  0.00  0.00    -0.648 OA
BRANCH  16  18
HETATM   18  O   UNK N   1      18.751  18.375   9.471  0.00  0.00    -0.775 OA
HETATM   19  H   UNK N   1      18.115  18.435  10.156  0.00  0.00     0.167 HD
ENDBRANCH  16  18
ENDBRANCH  12  16
ENDBRANCH  11  12
ENDBRANCH   1  11
BRANCH   9  20
HETATM   20  O   UNK N   1      20.782  11.768  11.991  0.00  0.00    -0.361 OA
HETATM   21  H   UNK N   1      20.787  12.217  12.812  0.00  0.00     0.217 HD
ENDBRANCH   9  20
TORSDOF 6
ENDMDL
MODEL 6
REMARK VINA RESULT:      -5.4     22.880     26.027
REMARK  6 active torsions:
REMARK  status: ('A' for Active; 'I' for Inactive)
REMARK    1  A    between atoms: C_3  and  N_1 
REMARK    2  A    between atoms: C_2  and  C_4 
REMARK    3  A    between atoms: C_3  and  C_13 
REMARK    4  A    between atoms: C_4  and  C_3 
REMARK    5  A    between atoms: O_14  and  C_13 
REMARK    6  A    between atoms: C_15  and  O_16 
ROOT
HETATM    1  C   UNK N   1      35.557  11.602  15.977  0.00  0.00    -0.028 A 
HETATM    2  C   UNK N   1      36.139  10.378  15.654  0.00  0.00     0.096 A 
HETATM    3  N   UNK N   1      36.516   9.739  16.794  0.00  0.00    -0.365 N 
HETATM    4  C   UNK N   1      36.163  10.549  17.808  0.00  0.00     0.043 A 
HETATM    5  C   UNK N   1      35.579  11.693  17.344  0.00  0.00     0.001 A 
HETATM    6  C   UNK N   1      35.109  12.682  18.201  0.00  0.00     0.050 A 
HETATM    7  C   UNK N   1      36.317  10.306  19.171  0.00  0.00     0.033 A 
HETATM    8  C   UNK N   1      35.853  11.287  20.067  0.00  0.00     0.039 A 
HETATM    9  C   UNK N   1      35.254  12.474  19.585  0.00  0.00     0.066 A 
HETATM   10  H   UNK N   1      36.958   8.863  16.863  0.00  0.00     0.165 HD
ENDROOT
BRANCH   1  11
HETATM   11  C   UNK N   1      34.920  12.598  15.054  0.00  0.00     0.076 C 
BRANCH  11  12
HETATM   12  C   UNK N   1      35.847  13.678  14.495  0.00  0.00     0.177 C 
BRANCH  12  13
HETATM   13  N   UNK N   1      37.233  13.315  14.749  0.00  0.00    -0.417 N 
HETATM   14  H   UNK N   1      37.655  12.409  14.547  0.00  0.00     0.150 HD
HETATM   15  H   UNK N   1      37.834  14.027  15.166  0.00  0.00     0.150 HD
ENDBRANCH  12  13
BRANCH  12  16
HETATM   16  C   UNK N   1      35.633  13.820  13.009  0.00  0.00     0.163 C 
HETATM   17  O   UNK N   1      36.560  14.130  12.274  0.00  0.00    -0.648 OA
BRANCH  16  18
HETATM   18  O   UNK N   1      34.417  13.588  12.474  0.00  0.00    -0.775 OA
HETATM   19  H   UNK N   1      34.328  12.997  11.753  0.00  0.00     0.167 HD
ENDBRANCH  16  18
ENDBRANCH  12  16
ENDBRANCH  11  12
ENDBRANCH   1  11
BRANCH   9  20
HETATM   20  O   UNK N   1      34.819  13.405  20.449  0.00  0.00    -0.361 OA
HETATM   21  H   UNK N   1      34.345  14.149  20.137  0.00  0.00     0.217 HD
ENDBRANCH   9  20
TORSDOF 6
ENDMDL
MODEL 7
REMARK VINA RESULT:      -5.4     19.313     22.248
REMARK  6 active torsions:
REMARK  status: ('A' for Active; 'I' for Inactive)
REMARK    1  A    between atoms: C_3  and  N_1 
REMARK    2  A    between atoms: C_2  and  C_4 
REMARK    3  A    between atoms: C_3  and  C_13 
REMARK    4  A    between atoms: C_4  and  C_3 
REMARK    5  A    between atoms: O_14  and  C_13 
REMARK    6  A    between atoms: C_15  and  O_16 
ROOT
HETATM    1  C   UNK N   1      35.355  12.862  11.957  0.00  0.00    -0.028 A 
HETATM    2  C   UNK N   1      34.432  11.821  12.047  0.00  0.00     0.096 A 
HETATM    3  N   UNK N   1      34.241  11.495  13.353  0.00  0.00    -0.365 N 
HETATM    4  C   UNK N   1      35.022  12.327  14.062  0.00  0.00     0.043 A 
HETATM    5  C   UNK N   1      35.716  13.170  13.242  0.00  0.00     0.001 A 
HETATM    6  C   UNK N   1      36.580  14.140  13.740  0.00  0.00     0.050 A 
HETATM    7  C   UNK N   1      35.139  12.394  15.450  0.00  0.00     0.033 A 
HETATM    8  C   UNK N   1      36.006  13.363  15.987  0.00  0.00     0.039 A 
HETATM    9  C   UNK N   1      36.728  14.232  15.136  0.00  0.00     0.066 A 
HETATM   10  H   UNK N   1      33.650  10.791  13.707  0.00  0.00     0.165 HD
ENDROOT
BRANCH   1  11
HETATM   11  C   UNK N   1      35.803  13.600  10.731  0.00  0.00     0.076 C 
BRANCH  11  12
HETATM   12  C   UNK N   1      34.956  14.809  10.334  0.00  0.00     0.177 C 
BRANCH  12  13
HETATM   13  N   UNK N   1      33.686  14.774  11.044  0.00  0.00    -0.417 N 
HETATM   14  H   UNK N   1      32.936  15.460  10.952  0.00  0.00     0.150 HD
HETATM   15  H   UNK N   1      33.532  13.998  11.689  0.00  0.00     0.150 HD
ENDBRANCH  12  13
BRANCH  12  16
HETATM   16  C   UNK N   1      35.685  16.084  10.680  0.00  0.00     0.163 C 
HETATM   17  O   UNK N   1      36.906  16.127  10.658  0.00  0.00    -0.648 OA
BRANCH  16  18
HETATM   18  O   UNK N   1      34.991  17.194  11.001  0.00  0.00    -0.775 OA
HETATM   19  H   UNK N   1      35.444  17.996  11.173  0.00  0.00     0.167 HD
ENDBRANCH  16  18
ENDBRANCH  12  16
ENDBRANCH  11  12
ENDBRANCH   1  11
BRANCH   9  20
HETATM   20  O   UNK N   1      37.555  15.151  15.660  0.00  0.00    -0.361 OA
HETATM   21  H   UNK N   1      37.243  15.745  16.313  0.00  0.00     0.217 HD
ENDBRANCH   9  20
TORSDOF 6
ENDMDL
MODEL 8
REMARK VINA RESULT:      -5.1     11.146     13.805
REMARK  6 active torsions:
REMARK  status: ('A' for Active; 'I' for Inactive)
REMARK    1  A    between atoms: C_3  and  N_1 
REMARK    2  A    between atoms: C_2  and  C_4 
REMARK    3  A    between atoms: C_3  and  C_13 
REMARK    4  A    between atoms: C_4  and  C_3 
REMARK    5  A    between atoms: O_14  and  C_13 
REMARK    6  A    between atoms: C_15  and  O_16 
ROOT
HETATM    1  C   UNK N   1      30.083  16.501   5.818  0.00  0.00    -0.028 A 
HETATM    2  C   UNK N   1      31.475  16.515   5.737  0.00  0.00     0.096 A 
HETATM    3  N   UNK N   1      31.986  17.147   6.827  0.00  0.00    -0.365 N 
HETATM    4  C   UNK N   1      30.930  17.509   7.577  0.00  0.00     0.043 A 
HETATM    5  C   UNK N   1      29.756  17.133   6.988  0.00  0.00     0.001 A 
HETATM    6  C   UNK N   1      28.522  17.379   7.580  0.00  0.00     0.050 A 
HETATM    7  C   UNK N   1      30.957  18.159   8.809  0.00  0.00     0.033 A 
HETATM    8  C   UNK N   1      29.725  18.424   9.436  0.00  0.00     0.039 A 
HETATM    9  C   UNK N   1      28.510  18.039   8.822  0.00  0.00     0.066 A 
HETATM   10  H   UNK N   1      32.936  17.308   7.026  0.00  0.00     0.165 HD
ENDROOT
BRANCH   1  11
HETATM   11  C   UNK N   1      29.107  15.840   4.890  0.00  0.00     0.076 C 
BRANCH  11  12
HETATM   12  C   UNK N   1      28.778  16.608   3.610  0.00  0.00     0.177 C 
BRANCH  12  13
HETATM   13  N   UNK N   1      28.166  15.711   2.641  0.00  0.00    -0.417 N 
HETATM   14  H   UNK N   1      27.923  14.735   2.808  0.00  0.00     0.150 HD
HETATM   15  H   UNK N   1      27.964  16.091   1.715  0.00  0.00     0.150 HD
ENDBRANCH  12  13
BRANCH  12  16
HETATM   16  C   UNK N   1      27.822  17.734   3.919  0.00  0.00     0.163 C 
HETATM   17  O   UNK N   1      26.676  17.497   4.271  0.00  0.00    -0.648 OA
BRANCH  16  18
HETATM   18  O   UNK N   1      28.232  19.015   3.826  0.00  0.00    -0.775 OA
HETATM   19  H   UNK N   1      27.640  19.712   4.025  0.00  0.00     0.167 HD
ENDBRANCH  16  18
ENDBRANCH  12  16
ENDBRANCH  11  12
ENDBRANCH   1  11
BRANCH   9  20
HETATM   20  O   UNK N   1      27.341  18.300   9.428  0.00  0.00    -0.361 OA
HETATM   21  H   UNK N   1      26.545  17.946   9.084  0.00  0.00     0.217 HD
ENDBRANCH   9  20
TORSDOF 6
ENDMDL
MODEL 9
REMARK VINA RESULT:      -5.0      4.123      4.992
REMARK  6 active torsions:
REMARK  status: ('A' for Active; 'I' for Inactive)
REMARK    1  A    between atoms: C_3  and  N_1 
REMARK    2  A    between atoms: C_2  and  C_4 
REMARK    3  A    between atoms: C_3  and  C_13 
REMARK    4  A    between atoms: C_4  and  C_3 
REMARK    5  A    between atoms: O_14  and  C_13 
REMARK    6  A    between atoms: C_15  and  O_16 
ROOT
HETATM    1  C   UNK N   1      26.315  25.708  -8.184  0.00  0.00    -0.028 A 
HETATM    2  C   UNK N   1      27.389  25.937  -9.043  0.00  0.00     0.096 A 
HETATM    3  N   UNK N   1      28.097  27.013  -8.606  0.00  0.00    -0.365 N 
HETATM    4  C   UNK N   1      27.480  27.436  -7.490  0.00  0.00     0.043 A 
HETATM    5  C   UNK N   1      26.389  26.665  -7.207  0.00  0.00     0.001 A 
HETATM    6  C   UNK N   1      25.595  26.892  -6.088  0.00  0.00     0.050 A 
HETATM    7  C   UNK N   1      27.862  28.495  -6.668  0.00  0.00     0.033 A 
HETATM    8  C   UNK N   1      27.078  28.753  -5.528  0.00  0.00     0.039 A 
HETATM    9  C   UNK N   1      25.946  27.957  -5.239  0.00  0.00     0.066 A 
HETATM   10  H   UNK N   1      28.899  27.402  -9.024  0.00  0.00     0.165 HD
ENDROOT
BRANCH   1  11
HETATM   11  C   UNK N   1      25.321  24.584  -8.221  0.00  0.00     0.076 C 
BRANCH  11  12
HETATM   12  C   UNK N   1      25.771  23.275  -7.572  0.00  0.00     0.177 C 
BRANCH  12  13
HETATM   13  N   UNK N   1      25.514  23.323  -6.140  0.00  0.00    -0.417 N 
HETATM   14  H   UNK N   1      26.135  23.728  -5.439  0.00  0.00     0.150 HD
HETATM   15  H   UNK N   1      24.639  22.917  -5.808  0.00  0.00     0.150 HD
ENDBRANCH  12  13
BRANCH  12  16
HETATM   16  C   UNK N   1      25.016  22.117  -8.174  0.00  0.00     0.163 C 
HETATM   17  O   UNK N   1      25.616  21.176  -8.674  0.00  0.00    -0.648 OA
BRANCH  16  18
HETATM   18  O   UNK N   1      23.668  22.102  -8.151  0.00  0.00    -0.775 OA
HETATM   19  H   UNK N   1      23.198  21.467  -8.654  0.00  0.00     0.167 HD
ENDBRANCH  16  18
ENDBRANCH  12  16
ENDBRANCH  11  12
ENDBRANCH   1  11
BRANCH   9  20
HETATM   20  O   UNK N   1      25.204  28.215  -4.150  0.00  0.00    -0.361 OA
HETATM   21  H   UNK N   1      25.180  27.602  -3.443  0.00  0.00     0.217 HD
ENDBRANCH   9  20
TORSDOF 6
ENDMDL
