MODEL 1
REMARK VINA RESULT:      -2.9      0.000      0.000
REMARK  1 active torsions:
REMARK  status: ('A' for Active; 'I' for Inactive)
REMARK    1  A    between atoms: C_2  and  O_4 
ROOT
HETATM    1  C   UNK N   1      23.212  11.879  13.103  0.00  0.00     0.039 C 
HETATM    2  C   UNK N   1      23.774  11.963  11.699  0.00  0.00     0.110 C 
HETATM    3  C   UNK N   1      22.959  11.589  10.479  0.00  0.00     0.039 C 
ENDROOT
BRANCH   2   4
HETATM    4  O   UNK N   1      25.085  12.399  11.524  0.00  0.00    -0.396 OA
HETATM    5  H   UNK N   1      25.664  11.954  10.885  0.00  0.00     0.209 HD
ENDBRANCH   2   4
TORSDOF 1
ENDMDL
MODEL 2
REMARK VINA RESULT:      -2.9      0.145      1.879
REMARK  1 active torsions:
REMARK  status: ('A' for Active; 'I' for Inactive)
REMARK    1  A    between atoms: C_2  and  O_4 
ROOT
HETATM    1  C   UNK N   1      23.017  11.495  10.334  0.00  0.00     0.039 C 
HETATM    2  C   UNK N   1      23.747  11.932  11.586  0.00  0.00     0.110 C 
HETATM    3  C   UNK N   1      23.110  11.864  12.958  0.00  0.00     0.039 C 
ENDROOT
BRANCH   2   4
HETATM    4  O   UNK N   1      25.050  12.412  11.472  0.00  0.00    -0.396 OA
HETATM    5  H   UNK N   1      25.330  12.867  10.663  0.00  0.00     0.209 HD
ENDBRANCH   2   4
TORSDOF 1
ENDMDL
MODEL 3
REMARK VINA RESULT:      -2.6      1.393      1.740
REMARK  1 active torsions:
REMARK  status: ('A' for Active; 'I' for Inactive)
REMARK    1  A    between atoms: C_2  and  O_4 
ROOT
HETATM    1  C   UNK N   1      22.079  12.091  11.196  0.00  0.00     0.039 C 
HETATM    2  C   UNK N   1      23.530  12.176  11.620  0.00  0.00     0.110 C 
HETATM    3  C   UNK N   1      24.664  12.211  10.617  0.00  0.00     0.039 C 
ENDROOT
BRANCH   2   4
HETATM    4  O   UNK N   1      23.832  12.223  12.979  0.00  0.00    -0.396 OA
HETATM    5  H   UNK N   1      24.354  12.960  13.334  0.00  0.00     0.209 HD
ENDBRANCH   2   4
TORSDOF 1
ENDMDL
MODEL 4
REMARK VINA RESULT:      -2.6      8.491      8.954
REMARK  1 active torsions:
REMARK  status: ('A' for Active; 'I' for Inactive)
REMARK    1  A    between atoms: C_2  and  O_4 
ROOT
HETATM    1  C   UNK N   1      28.244  19.099   7.431  0.00  0.00     0.039 C 
HETATM    2  C   UNK N   1      28.469  18.539   8.820  0.00  0.00     0.110 C 
HETATM    3  C   UNK N   1      29.805  18.641   9.526  0.00  0.00     0.039 C 
ENDROOT
BRANCH   2   4
HETATM    4  O   UNK N   1      27.411  17.909   9.471  0.00  0.00    -0.396 OA
HETATM    5  H   UNK N   1      26.976  18.343  10.221  0.00  0.00     0.209 HD
ENDBRANCH   2   4
TORSDOF 1
ENDMDL
MODEL 5
REMARK VINA RESULT:      -2.5     12.890     13.356
REMARK  1 active torsions:
REMARK  status: ('A' for Active; 'I' for Inactive)
REMARK    1  A    between atoms: C_2  and  O_4 
ROOT
HETATM    1  C   UNK N   1      20.195  18.451   1.920  0.00  0.00     0.039 C 
HETATM    2  C   UNK N   1      20.717  19.803   1.484  0.00  0.00     0.110 C 
HETATM    3  C   UNK N   1      21.260  20.817   2.469  0.00  0.00     0.039 C 
ENDROOT
BRANCH   2   4
HETATM    4  O   UNK N   1      20.697  20.126   0.129  0.00  0.00    -0.396 OA
HETATM    5  H   UNK N   1      21.064  20.972  -0.174  0.00  0.00     0.209 HD
ENDBRANCH   2   4
TORSDOF 1
ENDMDL
MODEL 6
REMARK VINA RESULT:      -2.5     22.780     23.058
REMARK  1 active torsions:
REMARK  status: ('A' for Active; 'I' for Inactive)
REMARK    1  A    between atoms: C_2  and  O_4 
ROOT
HETATM    1  C   UNK N   1      26.838  28.769  -5.145  0.00  0.00     0.039 C 
HETATM    2  C   UNK N   1      25.634  28.007  -4.633  0.00  0.00     0.110 C 
HETATM    3  C   UNK N   1      24.784  27.137  -5.535  0.00  0.00     0.039 C 
ENDROOT
BRANCH   2   4
HETATM    4  O   UNK N   1      25.297  28.110  -3.285  0.00  0.00    -0.396 OA
HETATM    5  H   UNK N   1      25.176  27.308  -2.753  0.00  0.00     0.209 HD
ENDBRANCH   2   4
TORSDOF 1
ENDMDL
MODEL 7
REMARK VINA RESULT:      -2.5     19.104     19.255
REMARK  1 active torsions:
REMARK  status: ('A' for Active; 'I' for Inactive)
REMARK    1  A    between atoms: C_2  and  O_4 
ROOT
HETATM    1  C   UNK N   1      30.975  20.788  -4.015  0.00  0.00     0.039 C 
HETATM    2  C   UNK N   1      31.429  21.707  -2.900  0.00  0.00     0.110 C 
HETATM    3  C   UNK N   1      30.762  23.039  -2.629  0.00  0.00     0.039 C 
ENDROOT
BRANCH   2   4
HETATM    4  O   UNK N   1      32.497  21.314  -2.097  0.00  0.00    -0.396 OA
HETATM    5  H   UNK N   1      32.917  21.953  -1.501  0.00  0.00     0.209 HD
ENDBRANCH   2   4
TORSDOF 1
ENDMDL
MODEL 8
REMARK VINA RESULT:      -2.4      2.151      2.853
REMARK  1 active torsions:
REMARK  status: ('A' for Active; 'I' for Inactive)
REMARK    1  A    between atoms: C_2  and  O_4 
ROOT
HETATM    1  C   UNK N   1      23.076  11.755  10.378  0.00  0.00     0.039 C 
HETATM    2  C   UNK N   1      22.441  11.850  11.749  0.00  0.00     0.110 C 
HETATM    3  C   UNK N   1      23.264  11.927  13.017  0.00  0.00     0.039 C 
ENDROOT
BRANCH   2   4
HETATM    4  O   UNK N   1      21.052  11.867  11.847  0.00  0.00    -0.396 OA
HETATM    5  H   UNK N   1      20.533  11.119  11.511  0.00  0.00     0.209 HD
ENDBRANCH   2   4
TORSDOF 1
ENDMDL
MODEL 9
REMARK VINA RESULT:      -2.4     23.673     24.028
REMARK  1 active torsions:
REMARK  status: ('A' for Active; 'I' for Inactive)
REMARK    1  A    between atoms: C_2  and  O_4 
ROOT
HETATM    1  C   UNK N   1      44.759  21.857   4.038  0.00  0.00     0.039 C 
HETATM    2  C   UNK N   1      43.611  22.777   3.679  0.00  0.00     0.110 C 
HETATM    3  C   UNK N   1      42.528  22.373   2.701  0.00  0.00     0.039 C 
ENDROOT
BRANCH   2   4
HETATM    4  O   UNK N   1      43.548  24.037   4.269  0.00  0.00    -0.396 OA
HETATM    5  H   UNK N   1      43.042  24.166   5.086  0.00  0.00     0.209 HD
ENDBRANCH   2   4
TORSDOF 1
ENDMDL
