MODEL 1
REMARK VINA RESULT:      -6.2      0.000      0.000
REMARK  9 active torsions:
REMARK  status: ('A' for Active; 'I' for Inactive)
REMARK    1  A    between atoms: O_3  and  N_5 
REMARK       I    between atoms: N_4  and  C_12 
REMARK    2  A    between atoms: N_4  and  C_14 
REMARK       I    between atoms: N_5  and  C_13 
REMARK    3  A    between atoms: C_6  and  C_7 
REMARK    4  A    between atoms: C_6  and  C_8 
REMARK    5  A    between atoms: C_7  and  C_9 
REMARK    6  A    between atoms: C_8  and  C_10 
REMARK    7  A    between atoms: C_9  and  C_11 
REMARK    8  A    between atoms: C_10  and  C_12 
REMARK    9  A    between atoms: C_11  and  C_13 
ROOT
HETATM    1  C   UNK N   1      28.651  22.360  -7.235  0.00  0.00     0.009 C 
ENDROOT
BRANCH   1   2
HETATM    2  C   UNK N   1      29.336  21.016  -7.110  0.00  0.00     0.000 C 
BRANCH   2   3
HETATM    3  C   UNK N   1      30.143  20.936  -5.826  0.00  0.00     0.000 C 
BRANCH   3   4
HETATM    4  C   UNK N   1      30.260  22.307  -5.183  0.00  0.00     0.009 C 
BRANCH   4   5
HETATM    5  C   UNK N   1      29.749  22.274  -3.745  0.00  0.00     0.105 C 
BRANCH   5   6
HETATM    6  C   UNK N   1      30.846  22.194  -2.719  0.00  0.00     0.240 C 
HETATM    7  O   UNK N   1      30.859  22.943  -1.754  0.00  0.00    -0.271 OA
HETATM    8  N   UNK N   1      31.818  21.269  -2.871  0.00  0.00    -0.237 N 
HETATM    9  H   UNK N   1      31.801  20.669  -3.652  0.00  0.00     0.197 HD
BRANCH   8  10
HETATM   10  O   UNK N   1      32.808  21.160  -1.973  0.00  0.00    -0.287 OA
HETATM   11  H   UNK N   1      32.791  21.306  -1.015  0.00  0.00     0.244 HD
ENDBRANCH   8  10
ENDBRANCH   5   6
ENDBRANCH   4   5
ENDBRANCH   3   4
ENDBRANCH   2   3
ENDBRANCH   1   2
BRANCH   1  12
HETATM   12  C   UNK N   1      27.138  22.196  -7.301  0.00  0.00     0.103 C 
BRANCH  12  13
HETATM   13  C   UNK N   1      26.406  23.202  -6.462  0.00  0.00     0.222 C 
HETATM   14  O   UNK N   1      25.250  22.998  -6.118  0.00  0.00    -0.273 OA
HETATM   15  N   UNK N   1      27.035  24.367  -6.156  0.00  0.00    -0.327 N 
HETATM   16  H   UNK N   1      27.967  24.463  -6.457  0.00  0.00     0.169 HD
BRANCH  15  17
HETATM   17  C   UNK N   1      26.471  25.462  -5.441  0.00  0.00     0.034 A 
HETATM   18  C   UNK N   1      25.629  26.406  -6.056  0.00  0.00     0.029 A 
HETATM   19  C   UNK N   1      25.139  27.495  -5.328  0.00  0.00     0.002 A 
HETATM   20  C   UNK N   1      25.491  27.651  -3.986  0.00  0.00     0.000 A 
HETATM   21  C   UNK N   1      26.323  26.714  -3.367  0.00  0.00     0.002 A 
HETATM   22  C   UNK N   1      26.808  25.623  -4.093  0.00  0.00     0.029 A 
ENDBRANCH  15  17
ENDBRANCH  12  13
ENDBRANCH   1  12
TORSDOF 9
ENDMDL
MODEL 2
REMARK VINA RESULT:      -5.9      2.625      6.450
REMARK  9 active torsions:
REMARK  status: ('A' for Active; 'I' for Inactive)
REMARK    1  A    between atoms: O_3  and  N_5 
REMARK       I    between atoms: N_4  and  C_12 
REMARK    2  A    between atoms: N_4  and  C_14 
REMARK       I    between atoms: N_5  and  C_13 
REMARK    3  A    between atoms: C_6  and  C_7 
REMARK    4  A    between atoms: C_6  and  C_8 
REMARK    5  A    between atoms: C_7  and  C_9 
REMARK    6  A    between atoms: C_8  and  C_10 
REMARK    7  A    between atoms: C_9  and  C_11 
REMARK    8  A    between atoms: C_10  and  C_12 
REMARK    9  A    between atoms: C_11  and  C_13 
ROOT
HETATM    1  C   UNK N   1      26.963  27.204  -4.467  0.00  0.00     0.009 C 
ENDROOT
BRANCH   1   2
HETATM    2  C   UNK N   1      25.845  27.744  -5.332  0.00  0.00     0.000 C 
BRANCH   2   3
HETATM    3  C   UNK N   1      25.113  26.617  -6.038  0.00  0.00     0.000 C 
BRANCH   3   4
HETATM    4  C   UNK N   1      25.792  26.282  -7.355  0.00  0.00     0.009 C 
BRANCH   4   5
HETATM    5  C   UNK N   1      26.444  24.903  -7.291  0.00  0.00     0.105 C 
BRANCH   5   6
HETATM    6  C   UNK N   1      25.475  23.770  -7.490  0.00  0.00     0.240 C 
HETATM    7  O   UNK N   1      24.822  23.676  -8.518  0.00  0.00    -0.271 OA
HETATM    8  N   UNK N   1      25.343  22.842  -6.517  0.00  0.00    -0.237 N 
HETATM    9  H   UNK N   1      25.873  22.925  -5.691  0.00  0.00     0.197 HD
BRANCH   8  10
HETATM   10  O   UNK N   1      24.497  21.813  -6.661  0.00  0.00    -0.287 OA
HETATM   11  H   UNK N   1      23.671  21.758  -7.167  0.00  0.00     0.244 HD
ENDBRANCH   8  10
ENDBRANCH   5   6
ENDBRANCH   4   5
ENDBRANCH   3   4
ENDBRANCH   2   3
ENDBRANCH   1   2
BRANCH   1  12
HETATM   12  C   UNK N   1      26.426  26.228  -3.429  0.00  0.00     0.103 C 
BRANCH  12  13
HETATM   13  C   UNK N   1      27.061  24.871  -3.521  0.00  0.00     0.222 C 
HETATM   14  O   UNK N   1      26.467  23.879  -3.121  0.00  0.00    -0.273 OA
HETATM   15  N   UNK N   1      28.333  24.785  -3.992  0.00  0.00    -0.327 N 
HETATM   16  H   UNK N   1      28.751  25.620  -4.304  0.00  0.00     0.169 HD
BRANCH  15  17
HETATM   17  C   UNK N   1      29.118  23.600  -4.076  0.00  0.00     0.034 A 
HETATM   18  C   UNK N   1      29.193  22.830  -5.250  0.00  0.00     0.029 A 
HETATM   19  C   UNK N   1      29.936  21.646  -5.273  0.00  0.00     0.002 A 
HETATM   20  C   UNK N   1      30.602  21.220  -4.122  0.00  0.00     0.000 A 
HETATM   21  C   UNK N   1      30.536  21.982  -2.953  0.00  0.00     0.002 A 
HETATM   22  C   UNK N   1      29.799  23.168  -2.933  0.00  0.00     0.029 A 
ENDBRANCH  15  17
ENDBRANCH  12  13
ENDBRANCH   1  12
TORSDOF 9
ENDMDL
MODEL 3
REMARK VINA RESULT:      -5.8     14.996     15.937
REMARK  9 active torsions:
REMARK  status: ('A' for Active; 'I' for Inactive)
REMARK    1  A    between atoms: O_3  and  N_5 
REMARK       I    between atoms: N_4  and  C_12 
REMARK    2  A    between atoms: N_4  and  C_14 
REMARK       I    between atoms: N_5  and  C_13 
REMARK    3  A    between atoms: C_6  and  C_7 
REMARK    4  A    between atoms: C_6  and  C_8 
REMARK    5  A    between atoms: C_7  and  C_9 
REMARK    6  A    between atoms: C_8  and  C_10 
REMARK    7  A    between atoms: C_9  and  C_11 
REMARK    8  A    between atoms: C_10  and  C_12 
REMARK    9  A    between atoms: C_11  and  C_13 
ROOT
HETATM    1  C   UNK N   1      20.616  16.273   8.521  0.00  0.00     0.009 C 
ENDROOT
BRANCH   1   2
HETATM    2  C   UNK N   1      21.289  14.967   8.885  0.00  0.00     0.000 C 
BRANCH   2   3
HETATM    3  C   UNK N   1      20.359  14.086   9.700  0.00  0.00     0.000 C 
BRANCH   3   4
HETATM    4  C   UNK N   1      21.146  13.017  10.439  0.00  0.00     0.009 C 
BRANCH   4   5
HETATM    5  C   UNK N   1      22.103  12.300   9.490  0.00  0.00     0.105 C 
BRANCH   5   6
HETATM    6  C   UNK N   1      23.505  12.185  10.023  0.00  0.00     0.240 C 
HETATM    7  O   UNK N   1      24.416  11.792   9.311  0.00  0.00    -0.271 OA
HETATM    8  N   UNK N   1      23.749  12.537  11.304  0.00  0.00    -0.237 N 
HETATM    9  H   UNK N   1      23.008  12.853  11.871  0.00  0.00     0.197 HD
BRANCH   8  10
HETATM   10  O   UNK N   1      24.986  12.458  11.813  0.00  0.00    -0.287 OA
HETATM   11  H   UNK N   1      25.301  11.993  12.604  0.00  0.00     0.244 HD
ENDBRANCH   8  10
ENDBRANCH   5   6
ENDBRANCH   4   5
ENDBRANCH   3   4
ENDBRANCH   2   3
ENDBRANCH   1   2
BRANCH   1  12
HETATM   12  C   UNK N   1      20.450  16.398   7.012  0.00  0.00     0.103 C 
BRANCH  12  13
HETATM   13  C   UNK N   1      21.184  17.576   6.441  0.00  0.00     0.222 C 
HETATM   14  O   UNK N   1      21.243  18.629   7.060  0.00  0.00    -0.273 OA
HETATM   15  N   UNK N   1      21.718  17.461   5.197  0.00  0.00    -0.327 N 
HETATM   16  H   UNK N   1      21.642  16.583   4.757  0.00  0.00     0.169 HD
BRANCH  15  17
HETATM   17  C   UNK N   1      22.376  18.493   4.468  0.00  0.00     0.034 A 
HETATM   18  C   UNK N   1      21.688  19.347   3.588  0.00  0.00     0.029 A 
HETATM   19  C   UNK N   1      22.382  20.314   2.855  0.00  0.00     0.002 A 
HETATM   20  C   UNK N   1      23.768  20.428   2.988  0.00  0.00     0.000 A 
HETATM   21  C   UNK N   1      24.458  19.585   3.864  0.00  0.00     0.002 A 
HETATM   22  C   UNK N   1      23.762  18.624   4.602  0.00  0.00     0.029 A 
ENDBRANCH  15  17
ENDBRANCH  12  13
ENDBRANCH   1  12
TORSDOF 9
ENDMDL
MODEL 4
REMARK VINA RESULT:      -5.7     15.067     16.824
REMARK  9 active torsions:
REMARK  status: ('A' for Active; 'I' for Inactive)
REMARK    1  A    between atoms: O_3  and  N_5 
REMARK       I    between atoms: N_4  and  C_12 
REMARK    2  A    between atoms: N_4  and  C_14 
REMARK       I    between atoms: N_5  and  C_13 
REMARK    3  A    between atoms: C_6  and  C_7 
REMARK    4  A    between atoms: C_6  and  C_8 
REMARK    5  A    between atoms: C_7  and  C_9 
REMARK    6  A    between atoms: C_8  and  C_10 
REMARK    7  A    between atoms: C_9  and  C_11 
REMARK    8  A    between atoms: C_10  and  C_12 
REMARK    9  A    between atoms: C_11  and  C_13 
ROOT
HETATM    1  C   UNK N   1      20.717  15.545   5.453  0.00  0.00     0.009 C 
ENDROOT
BRANCH   1   2
HETATM    2  C   UNK N   1      19.845  15.667   4.222  0.00  0.00     0.000 C 
BRANCH   2   3
HETATM    3  C   UNK N   1      19.562  17.124   3.901  0.00  0.00     0.000 C 
BRANCH   3   4
HETATM    4  C   UNK N   1      20.741  17.750   3.177  0.00  0.00     0.009 C 
BRANCH   4   5
HETATM    5  C   UNK N   1      20.857  19.234   3.518  0.00  0.00     0.105 C 
BRANCH   5   6
HETATM    6  C   UNK N   1      21.103  20.109   2.319  0.00  0.00     0.240 C 
HETATM    7  O   UNK N   1      21.857  21.068   2.387  0.00  0.00    -0.271 OA
HETATM    8  N   UNK N   1      20.486  19.813   1.155  0.00  0.00    -0.237 N 
HETATM    9  H   UNK N   1      19.880  19.037   1.109  0.00  0.00     0.197 HD
BRANCH   8  10
HETATM   10  O   UNK N   1      20.687  20.563   0.062  0.00  0.00    -0.287 OA
HETATM   11  H   UNK N   1      21.425  20.551  -0.567  0.00  0.00     0.244 HD
ENDBRANCH   8  10
ENDBRANCH   5   6
ENDBRANCH   4   5
ENDBRANCH   3   4
ENDBRANCH   2   3
ENDBRANCH   1   2
BRANCH   1  12
HETATM   12  C   UNK N   1      20.001  16.085   6.684  0.00  0.00     0.103 C 
BRANCH  12  13
HETATM   13  C   UNK N   1      20.526  15.506   7.965  0.00  0.00     0.222 C 
HETATM   14  O   UNK N   1      20.701  16.220   8.942  0.00  0.00    -0.273 OA
HETATM   15  N   UNK N   1      20.865  14.191   7.987  0.00  0.00    -0.327 N 
HETATM   16  H   UNK N   1      20.691  13.671   7.169  0.00  0.00     0.169 HD
BRANCH  15  17
HETATM   17  C   UNK N   1      21.448  13.493   9.083  0.00  0.00     0.034 A 
HETATM   18  C   UNK N   1      20.684  13.021  10.165  0.00  0.00     0.029 A 
HETATM   19  C   UNK N   1      21.305  12.385  11.244  0.00  0.00     0.002 A 
HETATM   20  C   UNK N   1      22.693  12.224  11.254  0.00  0.00     0.000 A 
HETATM   21  C   UNK N   1      23.458  12.687  10.180  0.00  0.00     0.002 A 
HETATM   22  C   UNK N   1      22.836  13.316   9.098  0.00  0.00     0.029 A 
ENDBRANCH  15  17
ENDBRANCH  12  13
ENDBRANCH   1  12
TORSDOF 9
ENDMDL
MODEL 5
REMARK VINA RESULT:      -5.6     10.994     13.395
REMARK  9 active torsions:
REMARK  status: ('A' for Active; 'I' for Inactive)
REMARK    1  A    between atoms: O_3  and  N_5 
REMARK       I    between atoms: N_4  and  C_12 
REMARK    2  A    between atoms: N_4  and  C_14 
REMARK       I    between atoms: N_5  and  C_13 
REMARK    3  A    between atoms: C_6  and  C_7 
REMARK    4  A    between atoms: C_6  and  C_8 
REMARK    5  A    between atoms: C_7  and  C_9 
REMARK    6  A    between atoms: C_8  and  C_10 
REMARK    7  A    between atoms: C_9  and  C_11 
REMARK    8  A    between atoms: C_10  and  C_12 
REMARK    9  A    between atoms: C_11  and  C_13 
ROOT
HETATM    1  C   UNK N   1      31.064  17.133   5.843  0.00  0.00     0.009 C 
ENDROOT
BRANCH   1   2
HETATM    2  C   UNK N   1      32.337  16.535   6.403  0.00  0.00     0.000 C 
BRANCH   2   3
HETATM    3  C   UNK N   1      33.405  17.600   6.576  0.00  0.00     0.000 C 
BRANCH   3   4
HETATM    4  C   UNK N   1      33.477  18.054   8.024  0.00  0.00     0.009 C 
BRANCH   4   5
HETATM    5  C   UNK N   1      34.778  17.586   8.672  0.00  0.00     0.105 C 
BRANCH   5   6
HETATM    6  C   UNK N   1      34.570  16.785   9.928  0.00  0.00     0.240 C 
HETATM    7  O   UNK N   1      35.264  16.973  10.914  0.00  0.00    -0.271 OA
HETATM    8  N   UNK N   1      33.590  15.855   9.956  0.00  0.00    -0.237 N 
HETATM    9  H   UNK N   1      33.034  15.710   9.156  0.00  0.00     0.197 HD
BRANCH   8  10
HETATM   10  O   UNK N   1      33.367  15.127  11.060  0.00  0.00    -0.287 OA
HETATM   11  H   UNK N   1      33.667  14.232  11.280  0.00  0.00     0.244 HD
ENDBRANCH   8  10
ENDBRANCH   5   6
ENDBRANCH   4   5
ENDBRANCH   3   4
ENDBRANCH   2   3
ENDBRANCH   1   2
BRANCH   1  12
HETATM   12  C   UNK N   1      29.973  17.184   6.904  0.00  0.00     0.103 C 
BRANCH  12  13
HETATM   13  C   UNK N   1      28.728  17.874   6.427  0.00  0.00     0.222 C 
HETATM   14  O   UNK N   1      27.863  18.213   7.223  0.00  0.00    -0.273 OA
HETATM   15  N   UNK N   1      28.559  18.047   5.090  0.00  0.00    -0.327 N 
HETATM   16  H   UNK N   1      29.296  17.759   4.505  0.00  0.00     0.169 HD
BRANCH  15  17
HETATM   17  C   UNK N   1      27.413  18.606   4.455  0.00  0.00     0.034 A 
HETATM   18  C   UNK N   1      26.269  17.843   4.162  0.00  0.00     0.029 A 
HETATM   19  C   UNK N   1      25.187  18.420   3.492  0.00  0.00     0.002 A 
HETATM   20  C   UNK N   1      25.242  19.761   3.104  0.00  0.00     0.000 A 
HETATM   21  C   UNK N   1      26.374  20.527   3.396  0.00  0.00     0.002 A 
HETATM   22  C   UNK N   1      27.453  19.951   4.071  0.00  0.00     0.029 A 
ENDBRANCH  15  17
ENDBRANCH  12  13
ENDBRANCH   1  12
TORSDOF 9
ENDMDL
MODEL 6
REMARK VINA RESULT:      -5.5     11.199     13.093
REMARK  9 active torsions:
REMARK  status: ('A' for Active; 'I' for Inactive)
REMARK    1  A    between atoms: O_3  and  N_5 
REMARK       I    between atoms: N_4  and  C_12 
REMARK    2  A    between atoms: N_4  and  C_14 
REMARK       I    between atoms: N_5  and  C_13 
REMARK    3  A    between atoms: C_6  and  C_7 
REMARK    4  A    between atoms: C_6  and  C_8 
REMARK    5  A    between atoms: C_7  and  C_9 
REMARK    6  A    between atoms: C_8  and  C_10 
REMARK    7  A    between atoms: C_9  and  C_11 
REMARK    8  A    between atoms: C_10  and  C_12 
REMARK    9  A    between atoms: C_11  and  C_13 
ROOT
HETATM    1  C   UNK N   1      32.359  16.568   5.746  0.00  0.00     0.009 C 
ENDROOT
BRANCH   1   2
HETATM    2  C   UNK N   1      33.220  17.526   6.541  0.00  0.00     0.000 C 
BRANCH   2   3
HETATM    3  C   UNK N   1      33.209  17.167   8.017  0.00  0.00     0.000 C 
BRANCH   3   4
HETATM    4  C   UNK N   1      31.784  17.088   8.536  0.00  0.00     0.009 C 
BRANCH   4   5
HETATM    5  C   UNK N   1      31.152  18.477   8.590  0.00  0.00     0.105 C 
BRANCH   5   6
HETATM    6  C   UNK N   1      29.816  18.503   9.281  0.00  0.00     0.240 C 
HETATM    7  O   UNK N   1      29.716  18.880  10.439  0.00  0.00    -0.271 OA
HETATM    8  N   UNK N   1      28.718  18.114   8.598  0.00  0.00    -0.237 N 
HETATM    9  H   UNK N   1      28.807  17.813   7.665  0.00  0.00     0.197 HD
BRANCH   8  10
HETATM   10  O   UNK N   1      27.508  18.133   9.177  0.00  0.00    -0.287 OA
HETATM   11  H   UNK N   1      26.931  18.886   9.376  0.00  0.00     0.244 HD
ENDBRANCH   8  10
ENDBRANCH   5   6
ENDBRANCH   4   5
ENDBRANCH   3   4
ENDBRANCH   2   3
ENDBRANCH   1   2
BRANCH   1  12
HETATM   12  C   UNK N   1      31.586  17.304   4.660  0.00  0.00     0.103 C 
BRANCH  12  13
HETATM   13  C   UNK N   1      30.143  17.518   5.015  0.00  0.00     0.222 C 
HETATM   14  O   UNK N   1      29.612  16.842   5.885  0.00  0.00    -0.273 OA
HETATM   15  N   UNK N   1      29.432  18.430   4.301  0.00  0.00    -0.327 N 
HETATM   16  H   UNK N   1      29.923  18.945   3.621  0.00  0.00     0.169 HD
BRANCH  15  17
HETATM   17  C   UNK N   1      28.043  18.708   4.444  0.00  0.00     0.034 A 
HETATM   18  C   UNK N   1      27.049  17.801   4.035  0.00  0.00     0.029 A 
HETATM   19  C   UNK N   1      25.697  18.137   4.148  0.00  0.00     0.002 A 
HETATM   20  C   UNK N   1      25.328  19.382   4.661  0.00  0.00     0.000 A 
HETATM   21  C   UNK N   1      26.310  20.288   5.073  0.00  0.00     0.002 A 
HETATM   22  C   UNK N   1      27.661  19.948   4.966  0.00  0.00     0.029 A 
ENDBRANCH  15  17
ENDBRANCH  12  13
ENDBRANCH   1  12
TORSDOF 9
ENDMDL
MODEL 7
REMARK VINA RESULT:      -5.4      3.035      7.539
REMARK  9 active torsions:
REMARK  status: ('A' for Active; 'I' for Inactive)
REMARK    1  A    between atoms: O_3  and  N_5 
REMARK       I    between atoms: N_4  and  C_12 
REMARK    2  A    between atoms: N_4  and  C_14 
REMARK       I    between atoms: N_5  and  C_13 
REMARK    3  A    between atoms: C_6  and  C_7 
REMARK    4  A    between atoms: C_6  and  C_8 
REMARK    5  A    between atoms: C_7  and  C_9 
REMARK    6  A    between atoms: C_8  and  C_10 
REMARK    7  A    between atoms: C_9  and  C_11 
REMARK    8  A    between atoms: C_10  and  C_12 
REMARK    9  A    between atoms: C_11  and  C_13 
ROOT
HETATM    1  C   UNK N   1      28.046  24.114  -3.589  0.00  0.00     0.009 C 
ENDROOT
BRANCH   1   2
HETATM    2  C   UNK N   1      26.563  24.414  -3.528  0.00  0.00     0.000 C 
BRANCH   2   3
HETATM    3  C   UNK N   1      25.914  24.217  -4.887  0.00  0.00     0.000 C 
BRANCH   3   4
HETATM    4  C   UNK N   1      26.150  25.429  -5.772  0.00  0.00     0.009 C 
BRANCH   4   5
HETATM    5  C   UNK N   1      25.169  26.547  -5.426  0.00  0.00     0.105 C 
BRANCH   5   6
HETATM    6  C   UNK N   1      25.826  27.758  -4.820  0.00  0.00     0.240 C 
HETATM    7  O   UNK N   1      26.498  28.515  -5.504  0.00  0.00    -0.271 OA
HETATM    8  N   UNK N   1      25.655  28.005  -3.504  0.00  0.00    -0.237 N 
HETATM    9  H   UNK N   1      25.112  27.390  -2.959  0.00  0.00     0.197 HD
BRANCH   8  10
HETATM   10  O   UNK N   1      26.216  29.079  -2.929  0.00  0.00    -0.287 OA
HETATM   11  H   UNK N   1      26.285  29.989  -3.256  0.00  0.00     0.244 HD
ENDBRANCH   8  10
ENDBRANCH   5   6
ENDBRANCH   4   5
ENDBRANCH   3   4
ENDBRANCH   2   3
ENDBRANCH   1   2
BRANCH   1  12
HETATM   12  C   UNK N   1      28.461  23.190  -2.452  0.00  0.00     0.103 C 
BRANCH  12  13
HETATM   13  C   UNK N   1      29.924  22.855  -2.478  0.00  0.00     0.222 C 
HETATM   14  O   UNK N   1      30.637  23.114  -1.519  0.00  0.00    -0.273 OA
HETATM   15  N   UNK N   1      30.443  22.322  -3.615  0.00  0.00    -0.327 N 
HETATM   16  H   UNK N   1      29.812  22.131  -4.347  0.00  0.00     0.169 HD
BRANCH  15  17
HETATM   17  C   UNK N   1      31.814  22.015  -3.848  0.00  0.00     0.034 A 
HETATM   18  C   UNK N   1      32.480  20.984  -3.163  0.00  0.00     0.029 A 
HETATM   19  C   UNK N   1      33.840  20.750  -3.386  0.00  0.00     0.002 A 
HETATM   20  C   UNK N   1      34.545  21.549  -4.288  0.00  0.00     0.000 A 
HETATM   21  C   UNK N   1      33.889  22.574  -4.976  0.00  0.00     0.002 A 
HETATM   22  C   UNK N   1      32.528  22.802  -4.757  0.00  0.00     0.029 A 
ENDBRANCH  15  17
ENDBRANCH  12  13
ENDBRANCH   1  12
TORSDOF 9
ENDMDL
MODEL 8
REMARK VINA RESULT:      -5.4     10.472     12.421
REMARK  9 active torsions:
REMARK  status: ('A' for Active; 'I' for Inactive)
REMARK    1  A    between atoms: O_3  and  N_5 
REMARK       I    between atoms: N_4  and  C_12 
REMARK    2  A    between atoms: N_4  and  C_14 
REMARK       I    between atoms: N_5  and  C_13 
REMARK    3  A    between atoms: C_6  and  C_7 
REMARK    4  A    between atoms: C_6  and  C_8 
REMARK    5  A    between atoms: C_7  and  C_9 
REMARK    6  A    between atoms: C_8  and  C_10 
REMARK    7  A    between atoms: C_9  and  C_11 
REMARK    8  A    between atoms: C_10  and  C_12 
REMARK    9  A    between atoms: C_11  and  C_13 
ROOT
HETATM    1  C   UNK N   1      22.009  15.172   4.299  0.00  0.00     0.009 C 
ENDROOT
BRANCH   1   2
HETATM    2  C   UNK N   1      20.713  15.707   3.729  0.00  0.00     0.000 C 
BRANCH   2   3
HETATM    3  C   UNK N   1      20.977  16.620   2.545  0.00  0.00     0.000 C 
BRANCH   3   4
HETATM    4  C   UNK N   1      20.179  17.906   2.674  0.00  0.00     0.009 C 
BRANCH   4   5
HETATM    5  C   UNK N   1      21.072  19.050   3.145  0.00  0.00     0.105 C 
BRANCH   5   6
HETATM    6  C   UNK N   1      21.185  20.174   2.151  0.00  0.00     0.240 C 
HETATM    7  O   UNK N   1      21.745  21.218   2.445  0.00  0.00    -0.271 OA
HETATM    8  N   UNK N   1      20.666  20.008   0.915  0.00  0.00    -0.237 N 
HETATM    9  H   UNK N   1      20.216  19.162   0.685  0.00  0.00     0.197 HD
BRANCH   8  10
HETATM   10  O   UNK N   1      20.755  20.982  -0.002  0.00  0.00    -0.287 OA
HETATM   11  H   UNK N   1      21.462  21.629  -0.150  0.00  0.00     0.244 HD
ENDBRANCH   8  10
ENDBRANCH   5   6
ENDBRANCH   4   5
ENDBRANCH   3   4
ENDBRANCH   2   3
ENDBRANCH   1   2
BRANCH   1  12
HETATM   12  C   UNK N   1      23.190  15.553   3.416  0.00  0.00     0.103 C 
BRANCH  12  13
HETATM   13  C   UNK N   1      24.121  16.528   4.075  0.00  0.00     0.222 C 
HETATM   14  O   UNK N   1      23.941  16.870   5.236  0.00  0.00    -0.273 OA
HETATM   15  N   UNK N   1      25.121  17.069   3.331  0.00  0.00    -0.327 N 
HETATM   16  H   UNK N   1      25.215  16.745   2.406  0.00  0.00     0.169 HD
BRANCH  15  17
HETATM   17  C   UNK N   1      26.045  18.063   3.763  0.00  0.00     0.034 A 
HETATM   18  C   UNK N   1      25.791  19.438   3.617  0.00  0.00     0.029 A 
HETATM   19  C   UNK N   1      26.749  20.379   4.009  0.00  0.00     0.002 A 
HETATM   20  C   UNK N   1      27.967  19.952   4.542  0.00  0.00     0.000 A 
HETATM   21  C   UNK N   1      28.224  18.587   4.694  0.00  0.00     0.002 A 
HETATM   22  C   UNK N   1      27.264  17.648   4.308  0.00  0.00     0.029 A 
ENDBRANCH  15  17
ENDBRANCH  12  13
ENDBRANCH   1  12
TORSDOF 9
ENDMDL
MODEL 9
REMARK VINA RESULT:      -5.4     18.716     22.358
REMARK  9 active torsions:
REMARK  status: ('A' for Active; 'I' for Inactive)
REMARK    1  A    between atoms: O_3  and  N_5 
REMARK       I    between atoms: N_4  and  C_12 
REMARK    2  A    between atoms: N_4  and  C_14 
REMARK       I    between atoms: N_5  and  C_13 
REMARK    3  A    between atoms: C_6  and  C_7 
REMARK    4  A    between atoms: C_6  and  C_8 
REMARK    5  A    between atoms: C_7  and  C_9 
REMARK    6  A    between atoms: C_8  and  C_10 
REMARK    7  A    between atoms: C_9  and  C_11 
REMARK    8  A    between atoms: C_10  and  C_12 
REMARK    9  A    between atoms: C_11  and  C_13 
ROOT
HETATM    1  C   UNK N   1      35.735  13.224  16.086  0.00  0.00     0.009 C 
ENDROOT
BRANCH   1   2
HETATM    2  C   UNK N   1      35.738  11.823  16.659  0.00  0.00     0.000 C 
BRANCH   2   3
HETATM    3  C   UNK N   1      34.826  10.909  15.859  0.00  0.00     0.000 C 
BRANCH   3   4
HETATM    4  C   UNK N   1      35.614   9.751  15.270  0.00  0.00     0.009 C 
BRANCH   4   5
HETATM    5  C   UNK N   1      34.986   9.282  13.960  0.00  0.00     0.105 C 
BRANCH   5   6
HETATM    6  C   UNK N   1      35.129  10.272  12.837  0.00  0.00     0.240 C 
HETATM    7  O   UNK N   1      36.229  10.566  12.395  0.00  0.00    -0.271 OA
HETATM    8  N   UNK N   1      34.017  10.829  12.309  0.00  0.00    -0.237 N 
HETATM    9  H   UNK N   1      33.133  10.587  12.671  0.00  0.00     0.197 HD
BRANCH   8  10
HETATM   10  O   UNK N   1      34.102  11.707  11.301  0.00  0.00    -0.287 OA
HETATM   11  H   UNK N   1      33.445  11.939  10.626  0.00  0.00     0.244 HD
ENDBRANCH   8  10
ENDBRANCH   5   6
ENDBRANCH   4   5
ENDBRANCH   3   4
ENDBRANCH   2   3
ENDBRANCH   1   2
BRANCH   1  12
HETATM   12  C   UNK N   1      36.644  13.317  14.868  0.00  0.00     0.103 C 
BRANCH  12  13
HETATM   13  C   UNK N   1      35.931  13.818  13.646  0.00  0.00     0.222 C 
HETATM   14  O   UNK N   1      34.742  13.584  13.482  0.00  0.00    -0.273 OA
HETATM   15  N   UNK N   1      36.655  14.473  12.701  0.00  0.00    -0.327 N 
HETATM   16  H   UNK N   1      37.605  14.635  12.899  0.00  0.00     0.169 HD
BRANCH  15  17
HETATM   17  C   UNK N   1      36.166  14.947  11.449  0.00  0.00     0.034 A 
HETATM   18  C   UNK N   1      35.504  16.181  11.320  0.00  0.00     0.029 A 
HETATM   19  C   UNK N   1      34.997  16.584  10.082  0.00  0.00     0.002 A 
HETATM   20  C   UNK N   1      35.140  15.755   8.967  0.00  0.00     0.000 A 
HETATM   21  C   UNK N   1      35.800  14.529   9.087  0.00  0.00     0.002 A 
HETATM   22  C   UNK N   1      36.313  14.130  10.323  0.00  0.00     0.029 A 
ENDBRANCH  15  17
ENDBRANCH  12  13
ENDBRANCH   1  12
TORSDOF 9
ENDMDL
