MODEL 1
REMARK VINA RESULT:      -6.9      0.000      0.000
REMARK  11 active torsions:
REMARK  status: ('A' for Active; 'I' for Inactive)
REMARK    1  A    between atoms: C_1  and  O_28 
REMARK    2  A    between atoms: C_3  and  O_26 
REMARK    3  A    between atoms: C_5  and  C_8 
REMARK    4  A    between atoms: C_8  and  C_9 
REMARK    5  A    between atoms: C_9  and  C_10 
REMARK    6  A    between atoms: C_15  and  C_18 
REMARK    7  A    between atoms: C_18  and  C_19 
REMARK    8  A    between atoms: C_19  and  C_20 
REMARK    9  A    between atoms: C_20  and  C_21 
REMARK   10  A    between atoms: C_21  and  O_22 
REMARK   11  A    between atoms: C_21  and  C_23 
ROOT
HETATM    1  C   UNK N   1      25.547  26.953  -6.354  0.00  0.00     0.034 C 
HETATM    2  C   UNK N   1      25.803  26.752  -4.874  0.00  0.00    -0.075 C 
HETATM    3  C   UNK N   1      27.259  25.050  -6.807  0.00  0.00     0.010 C 
HETATM    4  C   UNK N   1      25.912  25.710  -7.189  0.00  0.00     0.005 C 
HETATM    5  C   UNK N   1      26.339  25.407  -4.472  0.00  0.00     0.023 C 
HETATM    6  C   UNK N   1      27.581  25.077  -5.295  0.00  0.00    -0.032 C 
HETATM    7  C   UNK N   1      27.936  23.719  -4.683  0.00  0.00     0.002 C 
HETATM    8  C   UNK N   1      26.763  25.139  -3.037  0.00  0.00     0.010 C 
HETATM    9  C   UNK N   1      27.753  23.967  -3.171  0.00  0.00     0.007 C 
HETATM   10  C   UNK N   1      28.712  26.086  -5.056  0.00  0.00     0.016 C 
ENDROOT
BRANCH   2  11
HETATM   11  C   UNK N   1      25.575  27.732  -3.978  0.00  0.00     0.004 C 
BRANCH  11  12
HETATM   12  C   UNK N   1      26.036  29.127  -4.198  0.00  0.00     0.008 C 
BRANCH  12  13
HETATM   13  C   UNK N   1      27.291  29.591  -4.041  0.00  0.00    -0.048 C 
HETATM   14  C   UNK N   1      27.776  29.855  -2.644  0.00  0.00     0.071 C 
HETATM   15  C   UNK N   1      29.212  29.341  -2.492  0.00  0.00     0.125 C 
HETATM   16  C   UNK N   1      30.197  29.914  -3.534  0.00  0.00     0.068 C 
HETATM   17  C   UNK N   1      29.524  30.602  -4.730  0.00  0.00     0.153 C 
HETATM   18  C   UNK N   1      28.265  29.884  -5.132  0.00  0.00    -0.033 C 
HETATM   19  C   UNK N   1      28.111  29.422  -6.377  0.00  0.00     0.022 C 
BRANCH  15  20
HETATM   20  O   UNK N   1      29.679  29.613  -1.208  0.00  0.00    -0.395 OA
HETATM   21  H   UNK N   1      29.123  29.977  -0.501  0.00  0.00     0.210 HD
ENDBRANCH  15  20
BRANCH  17  22
HETATM   22  O   UNK N   1      30.429  30.746  -5.784  0.00  0.00    -0.391 OA
HETATM   23  H   UNK N   1      30.248  30.420  -6.679  0.00  0.00     0.210 HD
ENDBRANCH  17  22
ENDBRANCH  12  13
ENDBRANCH  11  12
ENDBRANCH   2  11
BRANCH   7  24
HETATM   24  C   UNK N   1      29.333  23.141  -5.005  0.00  0.00     0.009 C 
HETATM   25  C   UNK N   1      29.319  22.180  -6.189  0.00  0.00     0.014 C 
BRANCH  24  26
HETATM   26  C   UNK N   1      29.880  22.450  -3.786  0.00  0.00    -0.024 C 
BRANCH  26  27
HETATM   27  C   UNK N   1      31.113  22.729  -3.347  0.00  0.00     0.001 C 
BRANCH  27  28
HETATM   28  C   UNK N   1      32.222  21.725  -3.387  0.00  0.00     0.144 C 
BRANCH  28  29
HETATM   29  O   UNK N   1      32.540  21.294  -2.098  0.00  0.00    -0.391 OA
HETATM   30  H   UNK N   1      31.969  20.942  -1.397  0.00  0.00     0.210 HD
ENDBRANCH  28  29
BRANCH  28  31
HETATM   31  C   UNK N   1      31.838  20.537  -4.260  0.00  0.00     0.018 A 
HETATM   32  C   UNK N   1      32.642  20.545  -5.547  0.00  0.00     0.008 A 
HETATM   33  C   UNK N   1      33.037  19.624  -4.411  0.00  0.00     0.008 A 
ENDBRANCH  28  31
ENDBRANCH  27  28
ENDBRANCH  26  27
ENDBRANCH  24  26
ENDBRANCH   7  24
TORSDOF 11
ENDMDL
MODEL 2
REMARK VINA RESULT:      -6.9     10.963     13.583
REMARK  11 active torsions:
REMARK  status: ('A' for Active; 'I' for Inactive)
REMARK    1  A    between atoms: C_1  and  O_28 
REMARK    2  A    between atoms: C_3  and  O_26 
REMARK    3  A    between atoms: C_5  and  C_8 
REMARK    4  A    between atoms: C_8  and  C_9 
REMARK    5  A    between atoms: C_9  and  C_10 
REMARK    6  A    between atoms: C_15  and  C_18 
REMARK    7  A    between atoms: C_18  and  C_19 
REMARK    8  A    between atoms: C_19  and  C_20 
REMARK    9  A    between atoms: C_20  and  C_21 
REMARK   10  A    between atoms: C_21  and  O_22 
REMARK   11  A    between atoms: C_21  and  C_23 
ROOT
HETATM    1  C   UNK N   1      25.212  19.954   3.948  0.00  0.00     0.034 C 
HETATM    2  C   UNK N   1      25.164  18.518   4.428  0.00  0.00    -0.075 C 
HETATM    3  C   UNK N   1      27.803  19.816   4.109  0.00  0.00     0.010 C 
HETATM    4  C   UNK N   1      26.570  20.320   3.319  0.00  0.00     0.005 C 
HETATM    5  C   UNK N   1      26.406  17.702   4.203  0.00  0.00     0.023 C 
HETATM    6  C   UNK N   1      27.617  18.434   4.776  0.00  0.00    -0.032 C 
HETATM    7  C   UNK N   1      28.706  17.407   4.457  0.00  0.00     0.002 C 
HETATM    8  C   UNK N   1      26.522  16.295   4.764  0.00  0.00     0.010 C 
HETATM    9  C   UNK N   1      28.043  16.070   4.851  0.00  0.00     0.007 C 
HETATM   10  C   UNK N   1      27.497  18.637   6.292  0.00  0.00     0.016 C 
ENDROOT
BRANCH   2  11
HETATM   11  C   UNK N   1      24.072  18.011   5.034  0.00  0.00     0.004 C 
BRANCH  11  12
HETATM   12  C   UNK N   1      22.970  17.370   4.271  0.00  0.00     0.008 C 
BRANCH  12  13
HETATM   13  C   UNK N   1      21.970  18.000   3.624  0.00  0.00    -0.048 C 
HETATM   14  C   UNK N   1      21.816  19.480   3.835  0.00  0.00     0.071 C 
HETATM   15  C   UNK N   1      21.527  20.162   2.494  0.00  0.00     0.125 C 
HETATM   16  C   UNK N   1      20.307  19.583   1.745  0.00  0.00     0.068 C 
HETATM   17  C   UNK N   1      19.820  18.229   2.281  0.00  0.00     0.153 C 
HETATM   18  C   UNK N   1      20.976  17.368   2.710  0.00  0.00    -0.033 C 
HETATM   19  C   UNK N   1      21.155  16.153   2.182  0.00  0.00     0.022 C 
BRANCH  15  20
HETATM   20  O   UNK N   1      21.350  21.531   2.688  0.00  0.00    -0.395 OA
HETATM   21  H   UNK N   1      20.874  21.909   3.444  0.00  0.00     0.210 HD
ENDBRANCH  15  20
BRANCH  17  22
HETATM   22  O   UNK N   1      18.993  17.603   1.346  0.00  0.00    -0.391 OA
HETATM   23  H   UNK N   1      18.102  17.286   1.563  0.00  0.00     0.210 HD
ENDBRANCH  17  22
ENDBRANCH  12  13
ENDBRANCH  11  12
ENDBRANCH   2  11
BRANCH   7  24
HETATM   24  C   UNK N   1      30.077  17.593   5.145  0.00  0.00     0.009 C 
HETATM   25  C   UNK N   1      31.241  17.590   4.161  0.00  0.00     0.014 C 
BRANCH  24  26
HETATM   26  C   UNK N   1      30.269  16.513   6.175  0.00  0.00    -0.024 C 
BRANCH  26  27
HETATM   27  C   UNK N   1      31.269  16.593   7.061  0.00  0.00     0.001 C 
BRANCH  27  28
HETATM   28  C   UNK N   1      31.038  16.938   8.499  0.00  0.00     0.144 C 
BRANCH  28  29
HETATM   29  O   UNK N   1      32.066  17.751   8.979  0.00  0.00    -0.391 OA
HETATM   30  H   UNK N   1      32.378  18.615   8.668  0.00  0.00     0.210 HD
ENDBRANCH  28  29
BRANCH  28  31
HETATM   31  C   UNK N   1      29.693  17.631   8.674  0.00  0.00     0.018 A 
HETATM   32  C   UNK N   1      29.082  17.269  10.015  0.00  0.00     0.008 A 
HETATM   33  C   UNK N   1      29.782  18.601   9.833  0.00  0.00     0.008 A 
ENDBRANCH  28  31
ENDBRANCH  27  28
ENDBRANCH  26  27
ENDBRANCH  24  26
ENDBRANCH   7  24
TORSDOF 11
ENDMDL
MODEL 3
REMARK VINA RESULT:      -6.8      2.000      3.378
REMARK  11 active torsions:
REMARK  status: ('A' for Active; 'I' for Inactive)
REMARK    1  A    between atoms: C_1  and  O_28 
REMARK    2  A    between atoms: C_3  and  O_26 
REMARK    3  A    between atoms: C_5  and  C_8 
REMARK    4  A    between atoms: C_8  and  C_9 
REMARK    5  A    between atoms: C_9  and  C_10 
REMARK    6  A    between atoms: C_15  and  C_18 
REMARK    7  A    between atoms: C_18  and  C_19 
REMARK    8  A    between atoms: C_19  and  C_20 
REMARK    9  A    between atoms: C_20  and  C_21 
REMARK   10  A    between atoms: C_21  and  O_22 
REMARK   11  A    between atoms: C_21  and  C_23 
ROOT
HETATM    1  C   UNK N   1      25.568  23.744  -7.302  0.00  0.00     0.034 C 
HETATM    2  C   UNK N   1      25.930  24.566  -6.082  0.00  0.00    -0.075 C 
HETATM    3  C   UNK N   1      27.826  22.493  -7.005  0.00  0.00     0.010 C 
HETATM    4  C   UNK N   1      26.320  22.401  -7.351  0.00  0.00     0.005 C 
HETATM    5  C   UNK N   1      26.922  23.949  -5.137  0.00  0.00     0.023 C 
HETATM    6  C   UNK N   1      28.171  23.521  -5.904  0.00  0.00    -0.032 C 
HETATM    7  C   UNK N   1      29.006  22.975  -4.743  0.00  0.00     0.002 C 
HETATM    8  C   UNK N   1      27.463  24.737  -3.955  0.00  0.00     0.010 C 
HETATM    9  C   UNK N   1      28.799  24.038  -3.643  0.00  0.00     0.007 C 
HETATM   10  C   UNK N   1      28.877  24.716  -6.558  0.00  0.00     0.016 C 
ENDROOT
BRANCH   2  11
HETATM   11  C   UNK N   1      25.401  25.788  -5.869  0.00  0.00     0.004 C 
BRANCH  11  12
HETATM   12  C   UNK N   1      25.995  27.018  -6.451  0.00  0.00     0.008 C 
BRANCH  12  13
HETATM   13  C   UNK N   1      26.609  28.010  -5.777  0.00  0.00    -0.048 C 
HETATM   14  C   UNK N   1      26.180  28.270  -4.360  0.00  0.00     0.071 C 
HETATM   15  C   UNK N   1      27.414  28.510  -3.485  0.00  0.00     0.125 C 
HETATM   16  C   UNK N   1      28.337  29.638  -3.996  0.00  0.00     0.068 C 
HETATM   17  C   UNK N   1      28.061  30.074  -5.442  0.00  0.00     0.153 C 
HETATM   18  C   UNK N   1      27.685  28.898  -6.302  0.00  0.00    -0.033 C 
HETATM   19  C   UNK N   1      28.384  28.608  -7.405  0.00  0.00     0.022 C 
BRANCH  15  20
HETATM   20  O   UNK N   1      27.021  28.785  -2.177  0.00  0.00    -0.395 OA
HETATM   21  H   UNK N   1      26.767  29.668  -1.867  0.00  0.00     0.210 HD
ENDBRANCH  15  20
BRANCH  17  22
HETATM   22  O   UNK N   1      29.144  30.796  -5.950  0.00  0.00    -0.391 OA
HETATM   23  H   UNK N   1      29.110  31.752  -6.106  0.00  0.00     0.210 HD
ENDBRANCH  17  22
ENDBRANCH  12  13
ENDBRANCH  11  12
ENDBRANCH   2  11
BRANCH   7  24
HETATM   24  C   UNK N   1      30.504  22.709  -5.012  0.00  0.00     0.009 C 
HETATM   25  C   UNK N   1      30.919  21.277  -4.696  0.00  0.00     0.014 C 
BRANCH  24  26
HETATM   26  C   UNK N   1      31.333  23.676  -4.211  0.00  0.00    -0.024 C 
BRANCH  26  27
HETATM   27  C   UNK N   1      32.383  24.291  -4.769  0.00  0.00     0.001 C 
BRANCH  27  28
HETATM   28  C   UNK N   1      32.545  25.778  -4.746  0.00  0.00     0.144 C 
BRANCH  28  29
HETATM   29  O   UNK N   1      33.192  26.219  -5.901  0.00  0.00    -0.391 OA
HETATM   30  H   UNK N   1      34.122  26.457  -6.046  0.00  0.00     0.210 HD
ENDBRANCH  28  29
BRANCH  28  31
HETATM   31  C   UNK N   1      31.191  26.462  -4.607  0.00  0.00     0.018 A 
HETATM   32  C   UNK N   1      31.132  27.260  -3.318  0.00  0.00     0.008 A 
HETATM   33  C   UNK N   1      31.388  27.963  -4.635  0.00  0.00     0.008 A 
ENDBRANCH  28  31
ENDBRANCH  27  28
ENDBRANCH  26  27
ENDBRANCH  24  26
ENDBRANCH   7  24
TORSDOF 11
ENDMDL
MODEL 4
REMARK VINA RESULT:      -6.7     11.337     13.319
REMARK  11 active torsions:
REMARK  status: ('A' for Active; 'I' for Inactive)
REMARK    1  A    between atoms: C_1  and  O_28 
REMARK    2  A    between atoms: C_3  and  O_26 
REMARK    3  A    between atoms: C_5  and  C_8 
REMARK    4  A    between atoms: C_8  and  C_9 
REMARK    5  A    between atoms: C_9  and  C_10 
REMARK    6  A    between atoms: C_15  and  C_18 
REMARK    7  A    between atoms: C_18  and  C_19 
REMARK    8  A    between atoms: C_19  and  C_20 
REMARK    9  A    between atoms: C_20  and  C_21 
REMARK   10  A    between atoms: C_21  and  O_22 
REMARK   11  A    between atoms: C_21  and  C_23 
ROOT
HETATM    1  C   UNK N   1      25.960  20.225   5.275  0.00  0.00     0.034 C 
HETATM    2  C   UNK N   1      26.339  19.084   4.353  0.00  0.00    -0.075 C 
HETATM    3  C   UNK N   1      27.860  19.441   6.865  0.00  0.00     0.010 C 
HETATM    4  C   UNK N   1      27.111  20.630   6.216  0.00  0.00     0.005 C 
HETATM    5  C   UNK N   1      27.740  18.559   4.492  0.00  0.00     0.023 C 
HETATM    6  C   UNK N   1      28.020  18.206   5.950  0.00  0.00    -0.032 C 
HETATM    7  C   UNK N   1      29.451  17.679   5.813  0.00  0.00     0.002 C 
HETATM    8  C   UNK N   1      28.187  17.328   3.719  0.00  0.00     0.010 C 
HETATM    9  C   UNK N   1      29.372  16.798   4.548  0.00  0.00     0.007 C 
HETATM   10  C   UNK N   1      27.087  17.099   6.460  0.00  0.00     0.016 C 
ENDROOT
BRANCH   2  11
HETATM   11  C   UNK N   1      25.461  18.564   3.473  0.00  0.00     0.004 C 
BRANCH  11  12
HETATM   12  C   UNK N   1      24.218  17.877   3.909  0.00  0.00     0.008 C 
BRANCH  12  13
HETATM   13  C   UNK N   1      22.955  18.307   3.722  0.00  0.00    -0.048 C 
HETATM   14  C   UNK N   1      22.711  19.790   3.704  0.00  0.00     0.071 C 
HETATM   15  C   UNK N   1      21.742  20.137   2.570  0.00  0.00     0.125 C 
HETATM   16  C   UNK N   1      20.408  19.361   2.623  0.00  0.00     0.068 C 
HETATM   17  C   UNK N   1      20.420  18.149   3.566  0.00  0.00     0.153 C 
HETATM   18  C   UNK N   1      21.751  17.449   3.535  0.00  0.00    -0.033 C 
HETATM   19  C   UNK N   1      21.833  16.152   3.219  0.00  0.00     0.022 C 
BRANCH  15  20
HETATM   20  O   UNK N   1      21.486  21.507   2.569  0.00  0.00    -0.395 OA
HETATM   21  H   UNK N   1      21.858  22.123   3.220  0.00  0.00     0.210 HD
ENDBRANCH  15  20
BRANCH  17  22
HETATM   22  O   UNK N   1      19.350  17.297   3.279  0.00  0.00    -0.391 OA
HETATM   23  H   UNK N   1      19.228  16.882   2.411  0.00  0.00     0.210 HD
ENDBRANCH  17  22
ENDBRANCH  12  13
ENDBRANCH  11  12
ENDBRANCH   2  11
BRANCH   7  24
HETATM   24  C   UNK N   1      30.039  16.908   7.015  0.00  0.00     0.009 C 
HETATM   25  C   UNK N   1      30.471  17.824   8.155  0.00  0.00     0.014 C 
BRANCH  24  26
HETATM   26  C   UNK N   1      31.204  16.077   6.552  0.00  0.00    -0.024 C 
BRANCH  26  27
HETATM   27  C   UNK N   1      32.444  16.581   6.566  0.00  0.00     0.001 C 
BRANCH  27  28
HETATM   28  C   UNK N   1      33.276  16.694   5.328  0.00  0.00     0.144 C 
BRANCH  28  29
HETATM   29  O   UNK N   1      34.590  16.294   5.582  0.00  0.00    -0.391 OA
HETATM   30  H   UNK N   1      35.140  15.632   5.134  0.00  0.00     0.210 HD
ENDBRANCH  28  29
BRANCH  28  31
HETATM   31  C   UNK N   1      32.680  15.858   4.204  0.00  0.00     0.018 A 
HETATM   32  C   UNK N   1      32.632  16.661   2.916  0.00  0.00     0.008 A 
HETATM   33  C   UNK N   1      33.731  15.641   3.135  0.00  0.00     0.008 A 
ENDBRANCH  28  31
ENDBRANCH  27  28
ENDBRANCH  26  27
ENDBRANCH  24  26
ENDBRANCH   7  24
TORSDOF 11
ENDMDL
MODEL 5
REMARK VINA RESULT:      -6.5     15.570     19.300
REMARK  11 active torsions:
REMARK  status: ('A' for Active; 'I' for Inactive)
REMARK    1  A    between atoms: C_1  and  O_28 
REMARK    2  A    between atoms: C_3  and  O_26 
REMARK    3  A    between atoms: C_5  and  C_8 
REMARK    4  A    between atoms: C_8  and  C_9 
REMARK    5  A    between atoms: C_9  and  C_10 
REMARK    6  A    between atoms: C_15  and  C_18 
REMARK    7  A    between atoms: C_18  and  C_19 
REMARK    8  A    between atoms: C_19  and  C_20 
REMARK    9  A    between atoms: C_20  and  C_21 
REMARK   10  A    between atoms: C_21  and  O_22 
REMARK   11  A    between atoms: C_21  and  C_23 
ROOT
HETATM    1  C   UNK N   1      33.835  14.168   6.613  0.00  0.00     0.034 C 
HETATM    2  C   UNK N   1      34.122  15.270   7.613  0.00  0.00    -0.075 C 
HETATM    3  C   UNK N   1      34.489  12.459   8.458  0.00  0.00     0.010 C 
HETATM    4  C   UNK N   1      33.536  12.818   7.293  0.00  0.00     0.005 C 
HETATM    5  C   UNK N   1      34.053  14.882   9.063  0.00  0.00     0.023 C 
HETATM    6  C   UNK N   1      34.938  13.664   9.316  0.00  0.00    -0.032 C 
HETATM    7  C   UNK N   1      34.722  13.504  10.823  0.00  0.00     0.002 C 
HETATM    8  C   UNK N   1      34.456  15.866  10.149  0.00  0.00     0.010 C 
HETATM    9  C   UNK N   1      34.815  14.956  11.338  0.00  0.00     0.007 C 
HETATM   10  C   UNK N   1      36.413  13.955   9.012  0.00  0.00     0.016 C 
ENDROOT
BRANCH   2  11
HETATM   11  C   UNK N   1      34.435  16.520   7.218  0.00  0.00     0.004 C 
BRANCH  11  12
HETATM   12  C   UNK N   1      33.408  17.584   7.074  0.00  0.00     0.008 C 
BRANCH  12  13
HETATM   13  C   UNK N   1      32.091  17.468   7.335  0.00  0.00    -0.048 C 
HETATM   14  C   UNK N   1      31.631  17.684   8.749  0.00  0.00     0.071 C 
HETATM   15  C   UNK N   1      30.353  18.529   8.751  0.00  0.00     0.125 C 
HETATM   16  C   UNK N   1      29.215  17.947   7.885  0.00  0.00     0.068 C 
HETATM   17  C   UNK N   1      29.660  16.844   6.914  0.00  0.00     0.153 C 
HETATM   18  C   UNK N   1      31.023  17.135   6.350  0.00  0.00    -0.033 C 
HETATM   19  C   UNK N   1      31.212  17.219   5.028  0.00  0.00     0.022 C 
BRANCH  15  20
HETATM   20  O   UNK N   1      29.904  18.705  10.058  0.00  0.00    -0.395 OA
HETATM   21  H   UNK N   1      30.491  18.719  10.830  0.00  0.00     0.210 HD
ENDBRANCH  15  20
BRANCH  17  22
HETATM   22  O   UNK N   1      28.693  16.645   5.925  0.00  0.00    -0.391 OA
HETATM   23  H   UNK N   1      27.741  16.687   6.107  0.00  0.00     0.210 HD
ENDBRANCH  17  22
ENDBRANCH  12  13
ENDBRANCH  11  12
ENDBRANCH   2  11
BRANCH   7  24
HETATM   24  C   UNK N   1      35.686  12.563  11.580  0.00  0.00     0.009 C 
HETATM   25  C   UNK N   1      34.990  11.328  12.143  0.00  0.00     0.014 C 
BRANCH  24  26
HETATM   26  C   UNK N   1      36.360  13.325  12.688  0.00  0.00    -0.024 C 
BRANCH  26  27
HETATM   27  C   UNK N   1      37.036  12.675  13.643  0.00  0.00     0.001 C 
BRANCH  27  28
HETATM   28  C   UNK N   1      36.886  13.004  15.094  0.00  0.00     0.144 C 
BRANCH  28  29
HETATM   29  O   UNK N   1      37.524  14.210  15.393  0.00  0.00    -0.391 OA
HETATM   30  H   UNK N   1      38.272  14.647  14.955  0.00  0.00     0.210 HD
ENDBRANCH  28  29
BRANCH  28  31
HETATM   31  C   UNK N   1      35.414  13.080  15.477  0.00  0.00     0.018 A 
HETATM   32  C   UNK N   1      35.059  11.959  16.437  0.00  0.00     0.008 A 
HETATM   33  C   UNK N   1      35.300  13.360  16.961  0.00  0.00     0.008 A 
ENDBRANCH  28  31
ENDBRANCH  27  28
ENDBRANCH  26  27
ENDBRANCH  24  26
ENDBRANCH   7  24
TORSDOF 11
ENDMDL
MODEL 6
REMARK VINA RESULT:      -6.5     11.573     13.857
REMARK  11 active torsions:
REMARK  status: ('A' for Active; 'I' for Inactive)
REMARK    1  A    between atoms: C_1  and  O_28 
REMARK    2  A    between atoms: C_3  and  O_26 
REMARK    3  A    between atoms: C_5  and  C_8 
REMARK    4  A    between atoms: C_8  and  C_9 
REMARK    5  A    between atoms: C_9  and  C_10 
REMARK    6  A    between atoms: C_15  and  C_18 
REMARK    7  A    between atoms: C_18  and  C_19 
REMARK    8  A    between atoms: C_19  and  C_20 
REMARK    9  A    between atoms: C_20  and  C_21 
REMARK   10  A    between atoms: C_21  and  O_22 
REMARK   11  A    between atoms: C_21  and  C_23 
ROOT
HETATM    1  C   UNK N   1      26.283  20.818   5.422  0.00  0.00     0.034 C 
HETATM    2  C   UNK N   1      26.576  19.728   4.411  0.00  0.00    -0.075 C 
HETATM    3  C   UNK N   1      28.017  19.688   6.995  0.00  0.00     0.010 C 
HETATM    4  C   UNK N   1      27.429  21.006   6.435  0.00  0.00     0.005 C 
HETATM    5  C   UNK N   1      27.905  19.039   4.546  0.00  0.00     0.023 C 
HETATM    6  C   UNK N   1      28.081  18.529   5.974  0.00  0.00    -0.032 C 
HETATM    7  C   UNK N   1      29.452  17.860   5.836  0.00  0.00     0.002 C 
HETATM    8  C   UNK N   1      28.249  17.841   3.678  0.00  0.00     0.010 C 
HETATM    9  C   UNK N   1      29.332  17.110   4.492  0.00  0.00     0.007 C 
HETATM   10  C   UNK N   1      27.013  17.492   6.347  0.00  0.00     0.016 C 
ENDROOT
BRANCH   2  11
HETATM   11  C   UNK N   1      25.686  19.390   3.458  0.00  0.00     0.004 C 
BRANCH  11  12
HETATM   12  C   UNK N   1      24.261  19.805   3.524  0.00  0.00     0.008 C 
BRANCH  12  13
HETATM   13  C   UNK N   1      23.205  19.010   3.782  0.00  0.00    -0.048 C 
HETATM   14  C   UNK N   1      23.426  17.801   4.647  0.00  0.00     0.071 C 
HETATM   15  C   UNK N   1      22.272  17.665   5.645  0.00  0.00     0.125 C 
HETATM   16  C   UNK N   1      20.876  17.622   4.988  0.00  0.00     0.068 C 
HETATM   17  C   UNK N   1      20.854  18.070   3.519  0.00  0.00     0.153 C 
HETATM   18  C   UNK N   1      21.813  19.204   3.283  0.00  0.00    -0.033 C 
HETATM   19  C   UNK N   1      21.386  20.364   2.775  0.00  0.00     0.022 C 
BRANCH  15  20
HETATM   20  O   UNK N   1      22.456  16.527   6.428  0.00  0.00    -0.395 OA
HETATM   21  H   UNK N   1      22.487  15.627   6.068  0.00  0.00     0.210 HD
ENDBRANCH  15  20
BRANCH  17  22
HETATM   22  O   UNK N   1      19.549  18.368   3.119  0.00  0.00    -0.391 OA
HETATM   23  H   UNK N   1      19.177  19.262   3.166  0.00  0.00     0.210 HD
ENDBRANCH  17  22
ENDBRANCH  12  13
ENDBRANCH  11  12
ENDBRANCH   2  11
BRANCH   7  24
HETATM   24  C   UNK N   1      29.901  16.924   6.979  0.00  0.00     0.009 C 
HETATM   25  C   UNK N   1      29.927  17.615   8.338  0.00  0.00     0.014 C 
BRANCH  24  26
HETATM   26  C   UNK N   1      31.259  16.362   6.660  0.00  0.00    -0.024 C 
BRANCH  26  27
HETATM   27  C   UNK N   1      32.299  17.180   6.459  0.00  0.00     0.001 C 
BRANCH  27  28
HETATM   28  C   UNK N   1      33.602  17.008   7.176  0.00  0.00     0.144 C 
BRANCH  28  29
HETATM   29  O   UNK N   1      34.527  17.962   6.747  0.00  0.00    -0.391 OA
HETATM   30  H   UNK N   1      34.409  18.735   6.172  0.00  0.00     0.210 HD
ENDBRANCH  28  29
BRANCH  28  31
HETATM   31  C   UNK N   1      33.402  17.109   8.682  0.00  0.00     0.018 A 
HETATM   32  C   UNK N   1      33.873  15.837   9.364  0.00  0.00     0.008 A 
HETATM   33  C   UNK N   1      34.752  17.071   9.366  0.00  0.00     0.008 A 
ENDBRANCH  28  31
ENDBRANCH  27  28
ENDBRANCH  26  27
ENDBRANCH  24  26
ENDBRANCH   7  24
TORSDOF 11
ENDMDL
MODEL 7
REMARK VINA RESULT:      -6.5     12.814     17.304
REMARK  11 active torsions:
REMARK  status: ('A' for Active; 'I' for Inactive)
REMARK    1  A    between atoms: C_1  and  O_28 
REMARK    2  A    between atoms: C_3  and  O_26 
REMARK    3  A    between atoms: C_5  and  C_8 
REMARK    4  A    between atoms: C_8  and  C_9 
REMARK    5  A    between atoms: C_9  and  C_10 
REMARK    6  A    between atoms: C_15  and  C_18 
REMARK    7  A    between atoms: C_18  and  C_19 
REMARK    8  A    between atoms: C_19  and  C_20 
REMARK    9  A    between atoms: C_20  and  C_21 
REMARK   10  A    between atoms: C_21  and  O_22 
REMARK   11  A    between atoms: C_21  and  C_23 
ROOT
HETATM    1  C   UNK N   1      33.951  16.979   6.408  0.00  0.00     0.034 C 
HETATM    2  C   UNK N   1      32.943  16.910   7.538  0.00  0.00    -0.075 C 
HETATM    3  C   UNK N   1      31.951  16.884   4.751  0.00  0.00     0.010 C 
HETATM    4  C   UNK N   1      33.331  17.495   5.096  0.00  0.00     0.005 C 
HETATM    5  C   UNK N   1      31.548  17.359   7.208  0.00  0.00     0.023 C 
HETATM    6  C   UNK N   1      31.043  16.618   5.973  0.00  0.00    -0.032 C 
HETATM    7  C   UNK N   1      29.636  17.215   5.878  0.00  0.00     0.002 C 
HETATM    8  C   UNK N   1      30.423  17.205   8.220  0.00  0.00     0.010 C 
HETATM    9  C   UNK N   1      29.156  17.196   7.345  0.00  0.00     0.007 C 
HETATM   10  C   UNK N   1      30.969  15.103   6.205  0.00  0.00     0.016 C 
ENDROOT
BRANCH   2  11
HETATM   11  C   UNK N   1      33.281  16.456   8.761  0.00  0.00     0.004 C 
BRANCH  11  12
HETATM   12  C   UNK N   1      33.858  15.103   8.970  0.00  0.00     0.008 C 
BRANCH  12  13
HETATM   13  C   UNK N   1      34.822  14.769   9.851  0.00  0.00    -0.048 C 
HETATM   14  C   UNK N   1      34.474  14.773  11.312  0.00  0.00     0.071 C 
HETATM   15  C   UNK N   1      35.074  13.536  11.987  0.00  0.00     0.125 C 
HETATM   16  C   UNK N   1      36.598  13.388  11.784  0.00  0.00     0.068 C 
HETATM   17  C   UNK N   1      37.179  14.280  10.677  0.00  0.00     0.153 C 
HETATM   18  C   UNK N   1      36.227  14.396   9.519  0.00  0.00    -0.033 C 
HETATM   19  C   UNK N   1      36.607  14.048   8.285  0.00  0.00     0.022 C 
BRANCH  15  20
HETATM   20  O   UNK N   1      34.783  13.551  13.349  0.00  0.00    -0.395 OA
HETATM   21  H   UNK N   1      34.218  14.218  13.769  0.00  0.00     0.210 HD
ENDBRANCH  15  20
BRANCH  17  22
HETATM   22  O   UNK N   1      38.444  13.826  10.298  0.00  0.00    -0.391 OA
HETATM   23  H   UNK N   1      38.863  13.046  10.695  0.00  0.00     0.210 HD
ENDBRANCH  17  22
ENDBRANCH  12  13
ENDBRANCH  11  12
ENDBRANCH   2  11
BRANCH   7  24
HETATM   24  C   UNK N   1      28.632  16.513   4.936  0.00  0.00     0.009 C 
HETATM   25  C   UNK N   1      28.835  16.883   3.471  0.00  0.00     0.014 C 
BRANCH  24  26
HETATM   26  C   UNK N   1      27.229  16.849   5.364  0.00  0.00    -0.024 C 
BRANCH  26  27
HETATM   27  C   UNK N   1      26.439  17.586   4.574  0.00  0.00     0.001 C 
BRANCH  27  28
HETATM   28  C   UNK N   1      25.997  18.966   4.949  0.00  0.00     0.144 C 
BRANCH  28  29
HETATM   29  O   UNK N   1      24.699  18.943   5.461  0.00  0.00    -0.391 OA
HETATM   30  H   UNK N   1      24.246  18.266   5.988  0.00  0.00     0.210 HD
ENDBRANCH  28  29
BRANCH  28  31
HETATM   31  C   UNK N   1      26.953  19.577   5.965  0.00  0.00     0.018 A 
HETATM   32  C   UNK N   1      27.580  20.842   5.407  0.00  0.00     0.008 A 
HETATM   33  C   UNK N   1      26.428  20.933   6.388  0.00  0.00     0.008 A 
ENDBRANCH  28  31
ENDBRANCH  27  28
ENDBRANCH  26  27
ENDBRANCH  24  26
ENDBRANCH   7  24
TORSDOF 11
ENDMDL
MODEL 8
REMARK VINA RESULT:      -6.5     17.192     21.745
REMARK  11 active torsions:
REMARK  status: ('A' for Active; 'I' for Inactive)
REMARK    1  A    between atoms: C_1  and  O_28 
REMARK    2  A    between atoms: C_3  and  O_26 
REMARK    3  A    between atoms: C_5  and  C_8 
REMARK    4  A    between atoms: C_8  and  C_9 
REMARK    5  A    between atoms: C_9  and  C_10 
REMARK    6  A    between atoms: C_15  and  C_18 
REMARK    7  A    between atoms: C_18  and  C_19 
REMARK    8  A    between atoms: C_19  and  C_20 
REMARK    9  A    between atoms: C_20  and  C_21 
REMARK   10  A    between atoms: C_21  and  O_22 
REMARK   11  A    between atoms: C_21  and  C_23 
ROOT
HETATM    1  C   UNK N   1      36.657  12.591  10.884  0.00  0.00     0.034 C 
HETATM    2  C   UNK N   1      36.331  13.926  11.523  0.00  0.00    -0.075 C 
HETATM    3  C   UNK N   1      35.501  13.456   8.722  0.00  0.00     0.010 C 
HETATM    4  C   UNK N   1      36.677  12.663   9.345  0.00  0.00     0.005 C 
HETATM    5  C   UNK N   1      36.103  15.073  10.580  0.00  0.00     0.023 C 
HETATM    6  C   UNK N   1      35.053  14.689   9.540  0.00  0.00    -0.032 C 
HETATM    7  C   UNK N   1      34.986  16.000   8.753  0.00  0.00     0.002 C 
HETATM    8  C   UNK N   1      35.634  16.423  11.099  0.00  0.00     0.010 C 
HETATM    9  C   UNK N   1      34.973  17.068   9.867  0.00  0.00     0.007 C 
HETATM   10  C   UNK N   1      33.696  14.378  10.185  0.00  0.00     0.016 C 
ENDROOT
BRANCH   2  11
HETATM   11  C   UNK N   1      36.236  14.066  12.860  0.00  0.00     0.004 C 
BRANCH  11  12
HETATM   12  C   UNK N   1      35.195  13.367  13.656  0.00  0.00     0.008 C 
BRANCH  12  13
HETATM   13  C   UNK N   1      35.329  12.887  14.908  0.00  0.00    -0.048 C 
HETATM   14  C   UNK N   1      36.039  13.741  15.919  0.00  0.00     0.071 C 
HETATM   15  C   UNK N   1      35.283  13.698  17.251  0.00  0.00     0.125 C 
HETATM   16  C   UNK N   1      35.057  12.271  17.798  0.00  0.00     0.068 C 
HETATM   17  C   UNK N   1      35.303  11.155  16.773  0.00  0.00     0.153 C 
HETATM   18  C   UNK N   1      34.844  11.566  15.401  0.00  0.00    -0.033 C 
HETATM   19  C   UNK N   1      33.942  10.836  14.735  0.00  0.00     0.022 C 
BRANCH  15  20
HETATM   20  O   UNK N   1      35.956  14.462  18.202  0.00  0.00    -0.395 OA
HETATM   21  H   UNK N   1      35.517  15.107  18.779  0.00  0.00     0.210 HD
ENDBRANCH  15  20
BRANCH  17  22
HETATM   22  O   UNK N   1      34.724   9.959  17.205  0.00  0.00    -0.391 OA
HETATM   23  H   UNK N   1      33.765   9.822  17.236  0.00  0.00     0.210 HD
ENDBRANCH  17  22
ENDBRANCH  12  13
ENDBRANCH  11  12
ENDBRANCH   2  11
BRANCH   7  24
HETATM   24  C   UNK N   1      33.804  16.177   7.773  0.00  0.00     0.009 C 
HETATM   25  C   UNK N   1      34.248  16.276   6.318  0.00  0.00     0.014 C 
BRANCH  24  26
HETATM   26  C   UNK N   1      33.017  17.400   8.157  0.00  0.00    -0.024 C 
BRANCH  26  27
HETATM   27  C   UNK N   1      31.790  17.600   7.660  0.00  0.00     0.001 C 
BRANCH  27  28
HETATM   28  C   UNK N   1      30.553  17.210   8.405  0.00  0.00     0.144 C 
BRANCH  28  29
HETATM   29  O   UNK N   1      30.879  16.495   9.559  0.00  0.00    -0.391 OA
HETATM   30  H   UNK N   1      31.086  16.811  10.454  0.00  0.00     0.210 HD
ENDBRANCH  28  29
BRANCH  28  31
HETATM   31  C   UNK N   1      29.733  18.443   8.764  0.00  0.00     0.018 A 
HETATM   32  C   UNK N   1      28.444  18.472   7.964  0.00  0.00     0.008 A 
HETATM   33  C   UNK N   1      28.433  18.005   9.405  0.00  0.00     0.008 A 
ENDBRANCH  28  31
ENDBRANCH  27  28
ENDBRANCH  26  27
ENDBRANCH  24  26
ENDBRANCH   7  24
TORSDOF 11
ENDMDL
MODEL 9
REMARK VINA RESULT:      -6.5     22.276     26.585
REMARK  11 active torsions:
REMARK  status: ('A' for Active; 'I' for Inactive)
REMARK    1  A    between atoms: C_1  and  O_28 
REMARK    2  A    between atoms: C_3  and  O_26 
REMARK    3  A    between atoms: C_5  and  C_8 
REMARK    4  A    between atoms: C_8  and  C_9 
REMARK    5  A    between atoms: C_9  and  C_10 
REMARK    6  A    between atoms: C_15  and  C_18 
REMARK    7  A    between atoms: C_18  and  C_19 
REMARK    8  A    between atoms: C_19  and  C_20 
REMARK    9  A    between atoms: C_20  and  C_21 
REMARK   10  A    between atoms: C_21  and  O_22 
REMARK   11  A    between atoms: C_21  and  C_23 
ROOT
HETATM    1  C   UNK N   1      35.291  11.796  18.105  0.00  0.00     0.034 C 
HETATM    2  C   UNK N   1      34.831  10.782  17.077  0.00  0.00    -0.075 C 
HETATM    3  C   UNK N   1      35.918  13.365  16.130  0.00  0.00     0.010 C 
HETATM    4  C   UNK N   1      35.311  13.232  17.548  0.00  0.00     0.005 C 
HETATM    5  C   UNK N   1      34.463  11.329  15.726  0.00  0.00     0.023 C 
HETATM    6  C   UNK N   1      35.606  12.183  15.184  0.00  0.00    -0.032 C 
HETATM    7  C   UNK N   1      35.009  12.575  13.830  0.00  0.00     0.002 C 
HETATM    8  C   UNK N   1      34.121  10.394  14.578  0.00  0.00     0.010 C 
HETATM    9  C   UNK N   1      34.401  11.249  13.328  0.00  0.00     0.007 C 
HETATM   10  C   UNK N   1      36.889  11.365  14.989  0.00  0.00     0.016 C 
ENDROOT
BRANCH   2  11
HETATM   11  C   UNK N   1      34.772   9.466  17.359  0.00  0.00     0.004 C 
BRANCH  11  12
HETATM   12  C   UNK N   1      34.849   8.951  18.750  0.00  0.00     0.008 C 
BRANCH  12  13
HETATM   13  C   UNK N   1      33.956   9.167  19.736  0.00  0.00    -0.048 C 
HETATM   14  C   UNK N   1      32.551   8.673  19.536  0.00  0.00     0.071 C 
HETATM   15  C   UNK N   1      32.045   8.025  20.828  0.00  0.00     0.125 C 
HETATM   16  C   UNK N   1      32.135   8.942  22.068  0.00  0.00     0.068 C 
HETATM   17  C   UNK N   1      33.020  10.182  21.874  0.00  0.00     0.153 C 
HETATM   18  C   UNK N   1      34.221   9.865  21.027  0.00  0.00    -0.033 C 
HETATM   19  C   UNK N   1      35.458  10.082  21.487  0.00  0.00     0.022 C 
BRANCH  15  20
HETATM   20  O   UNK N   1      30.730   7.595  20.659  0.00  0.00    -0.395 OA
HETATM   21  H   UNK N   1      30.080   8.061  20.109  0.00  0.00     0.210 HD
ENDBRANCH  15  20
BRANCH  17  22
HETATM   22  O   UNK N   1      33.357  10.738  23.111  0.00  0.00    -0.391 OA
HETATM   23  H   UNK N   1      32.761  10.717  23.876  0.00  0.00     0.210 HD
ENDBRANCH  17  22
ENDBRANCH  12  13
ENDBRANCH  11  12
ENDBRANCH   2  11
BRANCH   7  24
HETATM   24  C   UNK N   1      35.964  13.201  12.790  0.00  0.00     0.009 C 
HETATM   25  C   UNK N   1      36.147  14.702  12.979  0.00  0.00     0.014 C 
BRANCH  24  26
HETATM   26  C   UNK N   1      35.450  12.913  11.405  0.00  0.00    -0.024 C 
BRANCH  26  27
HETATM   27  C   UNK N   1      35.205  13.916  10.553  0.00  0.00     0.001 C 
BRANCH  27  28
HETATM   28  C   UNK N   1      33.819  14.278  10.121  0.00  0.00     0.144 C 
BRANCH  28  29
HETATM   29  O   UNK N   1      33.154  14.969  11.136  0.00  0.00    -0.391 OA
HETATM   30  H   UNK N   1      32.653  15.800  11.103  0.00  0.00     0.210 HD
ENDBRANCH  28  29
BRANCH  28  31
HETATM   31  C   UNK N   1      33.855  15.116   8.850  0.00  0.00     0.018 A 
HETATM   32  C   UNK N   1      32.782  14.653   7.881  0.00  0.00     0.008 A 
HETATM   33  C   UNK N   1      32.559  15.890   8.728  0.00  0.00     0.008 A 
ENDBRANCH  28  31
ENDBRANCH  27  28
ENDBRANCH  26  27
ENDBRANCH  24  26
ENDBRANCH   7  24
TORSDOF 11
ENDMDL
