MODEL 1
REMARK VINA RESULT:      -3.8      0.000      0.000
REMARK  4 active torsions:
REMARK  status: ('A' for Active; 'I' for Inactive)
REMARK    1  A    between atoms: C_2  and  O_4 
REMARK    2  A    between atoms: O_4  and  C_5 
REMARK    3  A    between atoms: C_5  and  C_6 
REMARK    4  A    between atoms: C_6  and  N_7 
ROOT
HETATM    1  C   UNK N   1      33.780  16.899   6.321  0.00  0.00     0.206 C 
ENDROOT
BRANCH   1   2
HETATM    2  O   UNK N   1      34.417  18.027   6.786  0.00  0.00    -0.320 OA
BRANCH   2   3
HETATM    3  C   UNK N   1      34.647  18.251   8.101  0.00  0.00     0.254 C 
HETATM    4  C   UNK N   1      34.276  17.205   9.095  0.00  0.00     0.126 C 
HETATM    5  O   UNK N   1      35.137  19.302   8.486  0.00  0.00    -0.266 OA
ENDBRANCH   2   3
ENDBRANCH   1   2
BRANCH   1   6
HETATM    6  C   UNK N   1      32.382  17.294   5.847  0.00  0.00     0.262 C 
BRANCH   6   7
HETATM    7  N   UNK N   1      31.301  16.567   6.517  0.00  0.00    -0.077 N 
HETATM    8  C   UNK N   1      30.204  16.307   5.600  0.00  0.00     0.271 C 
HETATM    9  C   UNK N   1      31.835  15.295   6.965  0.00  0.00     0.271 C 
HETATM   10  C   UNK N   1      30.804  17.282   7.686  0.00  0.00     0.271 C 
ENDBRANCH   6   7
ENDBRANCH   1   6
TORSDOF 4
ENDMDL
MODEL 2
REMARK VINA RESULT:      -3.8      1.657      2.089
REMARK  4 active torsions:
REMARK  status: ('A' for Active; 'I' for Inactive)
REMARK    1  A    between atoms: C_2  and  O_4 
REMARK    2  A    between atoms: O_4  and  C_5 
REMARK    3  A    between atoms: C_5  and  C_6 
REMARK    4  A    between atoms: C_6  and  N_7 
ROOT
HETATM    1  C   UNK N   1      33.262  17.507   6.371  0.00  0.00     0.206 C 
ENDROOT
BRANCH   1   2
HETATM    2  O   UNK N   1      34.431  18.066   6.834  0.00  0.00    -0.320 OA
BRANCH   2   3
HETATM    3  C   UNK N   1      34.686  18.250   8.151  0.00  0.00     0.254 C 
HETATM    4  C   UNK N   1      34.199  17.243   9.136  0.00  0.00     0.126 C 
HETATM    5  O   UNK N   1      35.292  19.235   8.545  0.00  0.00    -0.266 OA
ENDBRANCH   2   3
ENDBRANCH   1   2
BRANCH   1   6
HETATM    6  C   UNK N   1      33.612  16.465   5.308  0.00  0.00     0.262 C 
BRANCH   6   7
HETATM    7  N   UNK N   1      32.585  16.302   4.277  0.00  0.00    -0.077 N 
HETATM    8  C   UNK N   1      33.179  16.291   2.950  0.00  0.00     0.271 C 
HETATM    9  C   UNK N   1      31.936  15.023   4.498  0.00  0.00     0.271 C 
HETATM   10  C   UNK N   1      31.566  17.340   4.351  0.00  0.00     0.271 C 
ENDBRANCH   6   7
ENDBRANCH   1   6
TORSDOF 4
ENDMDL
MODEL 3
REMARK VINA RESULT:      -3.7      3.457      5.253
REMARK  4 active torsions:
REMARK  status: ('A' for Active; 'I' for Inactive)
REMARK    1  A    between atoms: C_2  and  O_4 
REMARK    2  A    between atoms: O_4  and  C_5 
REMARK    3  A    between atoms: C_5  and  C_6 
REMARK    4  A    between atoms: C_6  and  N_7 
ROOT
HETATM    1  C   UNK N   1      34.754  16.130   9.565  0.00  0.00     0.206 C 
ENDROOT
BRANCH   1   2
HETATM    2  O   UNK N   1      34.366  17.448   9.495  0.00  0.00    -0.320 OA
BRANCH   2   3
HETATM    3  C   UNK N   1      34.583  18.221   8.404  0.00  0.00     0.254 C 
HETATM    4  C   UNK N   1      33.951  17.846   7.108  0.00  0.00     0.126 C 
HETATM    5  O   UNK N   1      35.300  19.208   8.463  0.00  0.00    -0.266 OA
ENDBRANCH   2   3
ENDBRANCH   1   2
BRANCH   1   6
HETATM    6  C   UNK N   1      35.836  16.000  10.637  0.00  0.00     0.262 C 
BRANCH   6   7
HETATM    7  N   UNK N   1      35.935  14.661  11.221  0.00  0.00    -0.077 N 
HETATM    8  C   UNK N   1      37.102  13.958  10.713  0.00  0.00     0.271 C 
HETATM    9  C   UNK N   1      36.084  14.815  12.656  0.00  0.00     0.271 C 
HETATM   10  C   UNK N   1      34.738  13.868  10.976  0.00  0.00     0.271 C 
ENDBRANCH   6   7
ENDBRANCH   1   6
TORSDOF 4
ENDMDL
MODEL 4
REMARK VINA RESULT:      -3.6      2.780      4.252
REMARK  4 active torsions:
REMARK  status: ('A' for Active; 'I' for Inactive)
REMARK    1  A    between atoms: C_2  and  O_4 
REMARK    2  A    between atoms: O_4  and  C_5 
REMARK    3  A    between atoms: C_5  and  C_6 
REMARK    4  A    between atoms: C_6  and  N_7 
ROOT
HETATM    1  C   UNK N   1      35.191  16.631  10.105  0.00  0.00     0.206 C 
ENDROOT
BRANCH   1   2
HETATM    2  O   UNK N   1      34.278  17.466   9.504  0.00  0.00    -0.320 OA
BRANCH   2   3
HETATM    3  C   UNK N   1      34.554  18.168   8.379  0.00  0.00     0.254 C 
HETATM    4  C   UNK N   1      33.999  17.705   7.076  0.00  0.00     0.126 C 
HETATM    5  O   UNK N   1      35.264  19.161   8.413  0.00  0.00    -0.266 OA
ENDBRANCH   2   3
ENDBRANCH   1   2
BRANCH   1   6
HETATM    6  C   UNK N   1      34.480  15.332  10.486  0.00  0.00     0.262 C 
BRANCH   6   7
HETATM    7  N   UNK N   1      34.705  14.234   9.544  0.00  0.00    -0.077 N 
HETATM    8  C   UNK N   1      34.932  12.983  10.249  0.00  0.00     0.271 C 
HETATM    9  C   UNK N   1      33.509  14.093   8.736  0.00  0.00     0.271 C 
HETATM   10  C   UNK N   1      35.823  14.503   8.648  0.00  0.00     0.271 C 
ENDBRANCH   6   7
ENDBRANCH   1   6
TORSDOF 4
ENDMDL
MODEL 5
REMARK VINA RESULT:      -3.4      2.098      3.241
REMARK  4 active torsions:
REMARK  status: ('A' for Active; 'I' for Inactive)
REMARK    1  A    between atoms: C_2  and  O_4 
REMARK    2  A    between atoms: O_4  and  C_5 
REMARK    3  A    between atoms: C_5  and  C_6 
REMARK    4  A    between atoms: C_6  and  N_7 
ROOT
HETATM    1  C   UNK N   1      31.345  17.002   7.872  0.00  0.00     0.206 C 
ENDROOT
BRANCH   1   2
HETATM    2  O   UNK N   1      32.123  17.285   6.773  0.00  0.00    -0.320 OA
BRANCH   2   3
HETATM    3  C   UNK N   1      33.397  17.733   6.870  0.00  0.00     0.254 C 
HETATM    4  C   UNK N   1      33.880  18.280   8.169  0.00  0.00     0.126 C 
HETATM    5  O   UNK N   1      34.148  17.712   5.907  0.00  0.00    -0.266 OA
ENDBRANCH   2   3
ENDBRANCH   1   2
BRANCH   1   6
HETATM    6  C   UNK N   1      29.880  17.225   7.498  0.00  0.00     0.262 C 
BRANCH   6   7
HETATM    7  N   UNK N   1      29.145  18.063   8.448  0.00  0.00    -0.077 N 
HETATM    8  C   UNK N   1      30.059  18.777   9.325  0.00  0.00     0.271 C 
HETATM    9  C   UNK N   1      28.389  19.038   7.685  0.00  0.00     0.271 C 
HETATM   10  C   UNK N   1      28.204  17.289   9.247  0.00  0.00     0.271 C 
ENDBRANCH   6   7
ENDBRANCH   1   6
TORSDOF 4
ENDMDL
MODEL 6
REMARK VINA RESULT:      -3.3      2.256      3.973
REMARK  4 active torsions:
REMARK  status: ('A' for Active; 'I' for Inactive)
REMARK    1  A    between atoms: C_2  and  O_4 
REMARK    2  A    between atoms: O_4  and  C_5 
REMARK    3  A    between atoms: C_5  and  C_6 
REMARK    4  A    between atoms: C_6  and  N_7 
ROOT
HETATM    1  C   UNK N   1      33.540  17.755   8.295  0.00  0.00     0.206 C 
ENDROOT
BRANCH   1   2
HETATM    2  O   UNK N   1      34.059  18.068   7.059  0.00  0.00    -0.320 OA
BRANCH   2   3
HETATM    3  C   UNK N   1      33.910  17.269   5.976  0.00  0.00     0.254 C 
HETATM    4  C   UNK N   1      32.746  17.479   5.070  0.00  0.00     0.126 C 
HETATM    5  O   UNK N   1      34.704  16.371   5.741  0.00  0.00    -0.266 OA
ENDBRANCH   2   3
ENDBRANCH   1   2
BRANCH   1   6
HETATM    6  C   UNK N   1      34.666  17.200   9.166  0.00  0.00     0.262 C 
BRANCH   6   7
HETATM    7  N   UNK N   1      34.493  15.794   9.536  0.00  0.00    -0.077 N 
HETATM    8  C   UNK N   1      35.423  14.947   8.806  0.00  0.00     0.271 C 
HETATM    9  C   UNK N   1      34.777  15.670  10.953  0.00  0.00     0.271 C 
HETATM   10  C   UNK N   1      33.129  15.333   9.309  0.00  0.00     0.271 C 
ENDBRANCH   6   7
ENDBRANCH   1   6
TORSDOF 4
ENDMDL
MODEL 7
REMARK VINA RESULT:      -3.3     12.743     13.803
REMARK  4 active torsions:
REMARK  status: ('A' for Active; 'I' for Inactive)
REMARK    1  A    between atoms: C_2  and  O_4 
REMARK    2  A    between atoms: O_4  and  C_5 
REMARK    3  A    between atoms: C_5  and  C_6 
REMARK    4  A    between atoms: C_6  and  N_7 
ROOT
HETATM    1  C   UNK N   1      29.473  24.776  -4.043  0.00  0.00     0.206 C 
ENDROOT
BRANCH   1   2
HETATM    2  O   UNK N   1      30.295  24.503  -2.974  0.00  0.00    -0.320 OA
BRANCH   2   3
HETATM    3  C   UNK N   1      30.528  23.246  -2.528  0.00  0.00     0.254 C 
HETATM    4  C   UNK N   1      30.926  22.190  -3.502  0.00  0.00     0.126 C 
HETATM    5  O   UNK N   1      30.400  22.961  -1.348  0.00  0.00    -0.266 OA
ENDBRANCH   2   3
ENDBRANCH   1   2
BRANCH   1   6
HETATM    6  C   UNK N   1      28.032  24.469  -3.636  0.00  0.00     0.262 C 
BRANCH   6   7
HETATM    7  N   UNK N   1      27.030  25.252  -4.362  0.00  0.00    -0.077 N 
HETATM    8  C   UNK N   1      25.928  24.410  -4.797  0.00  0.00     0.271 C 
HETATM    9  C   UNK N   1      26.508  26.254  -3.452  0.00  0.00     0.271 C 
HETATM   10  C   UNK N   1      27.603  25.943  -5.510  0.00  0.00     0.271 C 
ENDBRANCH   6   7
ENDBRANCH   1   6
TORSDOF 4
ENDMDL
MODEL 8
REMARK VINA RESULT:      -3.2      6.399      7.774
REMARK  4 active torsions:
REMARK  status: ('A' for Active; 'I' for Inactive)
REMARK    1  A    between atoms: C_2  and  O_4 
REMARK    2  A    between atoms: O_4  and  C_5 
REMARK    3  A    between atoms: C_5  and  C_6 
REMARK    4  A    between atoms: C_6  and  N_7 
ROOT
HETATM    1  C   UNK N   1      35.465  13.422  12.948  0.00  0.00     0.206 C 
ENDROOT
BRANCH   1   2
HETATM    2  O   UNK N   1      34.926  13.523  14.210  0.00  0.00    -0.320 OA
BRANCH   2   3
HETATM    3  C   UNK N   1      35.589  13.134  15.326  0.00  0.00     0.254 C 
HETATM    4  C   UNK N   1      34.865  13.095  16.628  0.00  0.00     0.126 C 
HETATM    5  O   UNK N   1      36.772  12.833  15.284  0.00  0.00    -0.266 OA
ENDBRANCH   2   3
ENDBRANCH   1   2
BRANCH   1   6
HETATM    6  C   UNK N   1      35.919  14.812  12.503  0.00  0.00     0.262 C 
BRANCH   6   7
HETATM    7  N   UNK N   1      35.608  15.118  11.106  0.00  0.00    -0.077 N 
HETATM    8  C   UNK N   1      35.413  16.547  10.918  0.00  0.00     0.271 C 
HETATM    9  C   UNK N   1      36.741  14.703  10.299  0.00  0.00     0.271 C 
HETATM   10  C   UNK N   1      34.433  14.397  10.636  0.00  0.00     0.271 C 
ENDBRANCH   6   7
ENDBRANCH   1   6
TORSDOF 4
ENDMDL
MODEL 9
REMARK VINA RESULT:      -3.2     12.895     14.131
REMARK  4 active torsions:
REMARK  status: ('A' for Active; 'I' for Inactive)
REMARK    1  A    between atoms: C_2  and  O_4 
REMARK    2  A    between atoms: O_4  and  C_5 
REMARK    3  A    between atoms: C_5  and  C_6 
REMARK    4  A    between atoms: C_6  and  N_7 
ROOT
HETATM    1  C   UNK N   1      44.864  23.658   2.433  0.00  0.00     0.206 C 
ENDROOT
BRANCH   1   2
HETATM    2  O   UNK N   1      44.981  24.936   2.930  0.00  0.00    -0.320 OA
BRANCH   2   3
HETATM    3  C   UNK N   1      45.714  25.897   2.319  0.00  0.00     0.254 C 
HETATM    4  C   UNK N   1      46.991  25.524   1.649  0.00  0.00     0.126 C 
HETATM    5  O   UNK N   1      45.354  27.064   2.326  0.00  0.00    -0.266 OA
ENDBRANCH   2   3
ENDBRANCH   1   2
BRANCH   1   6
HETATM    6  C   UNK N   1      43.513  23.535   1.728  0.00  0.00     0.262 C 
BRANCH   6   7
HETATM    7  N   UNK N   1      42.817  22.275   1.995  0.00  0.00    -0.077 N 
HETATM    8  C   UNK N   1      43.229  21.244   1.056  0.00  0.00     0.271 C 
HETATM    9  C   UNK N   1      43.178  21.844   3.333  0.00  0.00     0.271 C 
HETATM   10  C   UNK N   1      41.369  22.430   1.949  0.00  0.00     0.271 C 
ENDBRANCH   6   7
ENDBRANCH   1   6
TORSDOF 4
ENDMDL
