MODEL 1
REMARK VINA RESULT:      -1.8      0.000      0.000
REMARK  0 active torsions:
REMARK  status: ('A' for Active; 'I' for Inactive)
ROOT
HETATM    1  C   UNK N   1      34.538  18.384   8.193  0.00  0.00     0.315 C 
HETATM    2  O   UNK N   1      35.322  19.255   8.530  0.00  0.00    -0.315 OA
ENDROOT
TORSDOF 0
ENDMDL
MODEL 2
REMARK VINA RESULT:      -1.7     19.105     19.105
REMARK  0 active torsions:
REMARK  status: ('A' for Active; 'I' for Inactive)
ROOT
HETATM    1  C   UNK N   1      17.176  27.087   8.414  0.00  0.00     0.315 C 
HETATM    2  O   UNK N   1      18.002  26.482   7.753  0.00  0.00    -0.315 OA
ENDROOT
TORSDOF 0
ENDMDL
MODEL 3
REMARK VINA RESULT:      -1.7     16.065     16.065
REMARK  0 active torsions:
REMARK  status: ('A' for Active; 'I' for Inactive)
ROOT
HETATM    1  C   UNK N   1      20.889  20.533   1.196  0.00  0.00     0.315 C 
HETATM    2  O   UNK N   1      21.122  20.740   0.018  0.00  0.00    -0.315 OA
ENDROOT
TORSDOF 0
ENDMDL
MODEL 4
REMARK VINA RESULT:      -1.6     14.282     14.282
REMARK  0 active torsions:
REMARK  status: ('A' for Active; 'I' for Inactive)
ROOT
HETATM    1  C   UNK N   1      23.193  11.886  13.026  0.00  0.00     0.315 C 
HETATM    2  O   UNK N   1      23.720  12.283  14.051  0.00  0.00    -0.315 OA
ENDROOT
TORSDOF 0
ENDMDL
MODEL 5
REMARK VINA RESULT:      -1.6     11.959     11.959
REMARK  0 active torsions:
REMARK  status: ('A' for Active; 'I' for Inactive)
ROOT
HETATM    1  C   UNK N   1      30.633  22.753  -2.557  0.00  0.00     0.315 C 
HETATM    2  O   UNK N   1      30.453  23.023  -1.382  0.00  0.00    -0.315 OA
ENDROOT
TORSDOF 0
ENDMDL
MODEL 6
REMARK VINA RESULT:      -1.5     17.970     17.970
REMARK  0 active torsions:
REMARK  status: ('A' for Active; 'I' for Inactive)
ROOT
HETATM    1  C   UNK N   1      48.689  19.206  20.348  0.00  0.00     0.315 C 
HETATM    2  O   UNK N   1      47.590  18.760  20.631  0.00  0.00    -0.315 OA
ENDROOT
TORSDOF 0
ENDMDL
MODEL 7
REMARK VINA RESULT:      -1.4     15.257     15.257
REMARK  0 active torsions:
REMARK  status: ('A' for Active; 'I' for Inactive)
ROOT
HETATM    1  C   UNK N   1      19.464  18.399   9.330  0.00  0.00     0.315 C 
HETATM    2  O   UNK N   1      19.988  19.329   9.918  0.00  0.00    -0.315 OA
ENDROOT
TORSDOF 0
ENDMDL
MODEL 8
REMARK VINA RESULT:      -1.4     13.912     13.912
REMARK  0 active torsions:
REMARK  status: ('A' for Active; 'I' for Inactive)
ROOT
HETATM    1  C   UNK N   1      21.363  18.156   6.327  0.00  0.00     0.315 C 
HETATM    2  O   UNK N   1      20.895  18.809   7.244  0.00  0.00    -0.315 OA
ENDROOT
TORSDOF 0
ENDMDL
MODEL 9
REMARK VINA RESULT:      -1.4     14.449     14.449
REMARK  0 active torsions:
REMARK  status: ('A' for Active; 'I' for Inactive)
ROOT
HETATM    1  C   UNK N   1      21.346  20.717   2.530  0.00  0.00     0.315 C 
HETATM    2  O   UNK N   1      22.334  21.378   2.799  0.00  0.00    -0.315 OA
ENDROOT
TORSDOF 0
ENDMDL
