MODEL 1
REMARK VINA RESULT:      -4.0      0.000      0.000
REMARK  1 active torsions:
REMARK  status: ('A' for Active; 'I' for Inactive)
REMARK    1  A    between atoms: O_1  and  C_2 
ROOT
HETATM    1  C   UNK N   1      23.988  12.272  11.040  0.00  0.00     0.065 A 
HETATM    2  C   UNK N   1      22.864  11.877  11.771  0.00  0.00     0.036 A 
HETATM    3  C   UNK N   1      21.586  12.212  11.318  0.00  0.00     0.003 A 
HETATM    4  C   UNK N   1      21.434  12.941  10.135  0.00  0.00     0.000 A 
HETATM    5  C   UNK N   1      22.558  13.336   9.404  0.00  0.00     0.003 A 
HETATM    6  C   UNK N   1      23.838  13.001   9.857  0.00  0.00     0.036 A 
ENDROOT
BRANCH   1   7
HETATM    7  O   UNK N   1      25.216  11.950  11.475  0.00  0.00    -0.361 OA
HETATM    8  H   UNK N   1      25.783  11.432  10.937  0.00  0.00     0.217 HD
ENDBRANCH   1   7
TORSDOF 1
ENDMDL
MODEL 2
REMARK VINA RESULT:      -4.0     14.086     14.545
REMARK  1 active torsions:
REMARK  status: ('A' for Active; 'I' for Inactive)
REMARK    1  A    between atoms: O_1  and  C_2 
ROOT
HETATM    1  C   UNK N   1      35.155  12.835  19.242  0.00  0.00     0.065 A 
HETATM    2  C   UNK N   1      35.403  11.477  19.024  0.00  0.00     0.036 A 
HETATM    3  C   UNK N   1      35.631  11.010  17.727  0.00  0.00     0.003 A 
HETATM    4  C   UNK N   1      35.611  11.902  16.651  0.00  0.00     0.000 A 
HETATM    5  C   UNK N   1      35.362  13.260  16.869  0.00  0.00     0.003 A 
HETATM    6  C   UNK N   1      35.134  13.728  18.167  0.00  0.00     0.036 A 
ENDROOT
BRANCH   1   7
HETATM    7  O   UNK N   1      34.935  13.284  20.487  0.00  0.00    -0.361 OA
HETATM    8  H   UNK N   1      34.091  13.616  20.724  0.00  0.00     0.217 HD
ENDBRANCH   1   7
TORSDOF 1
ENDMDL
MODEL 3
REMARK VINA RESULT:      -3.9      1.287      2.052
REMARK  1 active torsions:
REMARK  status: ('A' for Active; 'I' for Inactive)
REMARK    1  A    between atoms: O_1  and  C_2 
ROOT
HETATM    1  C   UNK N   1      22.963  11.887  11.930  0.00  0.00     0.065 A 
HETATM    2  C   UNK N   1      21.905  12.346  11.140  0.00  0.00     0.036 A 
HETATM    3  C   UNK N   1      22.166  12.920   9.893  0.00  0.00     0.003 A 
HETATM    4  C   UNK N   1      23.483  13.034   9.439  0.00  0.00     0.000 A 
HETATM    5  C   UNK N   1      24.540  12.574  10.229  0.00  0.00     0.003 A 
HETATM    6  C   UNK N   1      24.280  12.000  11.477  0.00  0.00     0.036 A 
ENDROOT
BRANCH   1   7
HETATM    7  O   UNK N   1      22.713  11.335  13.127  0.00  0.00    -0.361 OA
HETATM    8  H   UNK N   1      23.208  10.592  13.414  0.00  0.00     0.217 HD
ENDBRANCH   1   7
TORSDOF 1
ENDMDL
MODEL 4
REMARK VINA RESULT:      -3.8     20.133     21.066
REMARK  1 active torsions:
REMARK  status: ('A' for Active; 'I' for Inactive)
REMARK    1  A    between atoms: O_1  and  C_2 
ROOT
HETATM    1  C   UNK N   1      25.645  27.607  -3.946  0.00  0.00     0.065 A 
HETATM    2  C   UNK N   1      25.068  27.408  -5.204  0.00  0.00     0.036 A 
HETATM    3  C   UNK N   1      25.184  26.166  -5.833  0.00  0.00     0.003 A 
HETATM    4  C   UNK N   1      25.875  25.126  -5.204  0.00  0.00     0.000 A 
HETATM    5  C   UNK N   1      26.451  25.326  -3.946  0.00  0.00     0.003 A 
HETATM    6  C   UNK N   1      26.336  26.569  -3.316  0.00  0.00     0.036 A 
ENDROOT
BRANCH   1   7
HETATM    7  O   UNK N   1      25.534  28.800  -3.341  0.00  0.00    -0.361 OA
HETATM    8  H   UNK N   1      26.264  29.389  -3.328  0.00  0.00     0.217 HD
ENDBRANCH   1   7
TORSDOF 1
ENDMDL
MODEL 5
REMARK VINA RESULT:      -3.7      2.198      2.845
REMARK  1 active torsions:
REMARK  status: ('A' for Active; 'I' for Inactive)
REMARK    1  A    between atoms: O_1  and  C_2 
ROOT
HETATM    1  C   UNK N   1      21.113  13.056  10.331  0.00  0.00     0.065 A 
HETATM    2  C   UNK N   1      21.466  12.176  11.358  0.00  0.00     0.036 A 
HETATM    3  C   UNK N   1      22.801  11.797  11.521  0.00  0.00     0.003 A 
HETATM    4  C   UNK N   1      23.779  12.298  10.658  0.00  0.00     0.000 A 
HETATM    5  C   UNK N   1      23.426  13.179   9.631  0.00  0.00     0.003 A 
HETATM    6  C   UNK N   1      22.090  13.559   9.467  0.00  0.00     0.036 A 
ENDROOT
BRANCH   1   7
HETATM    7  O   UNK N   1      19.831  13.421  10.174  0.00  0.00    -0.361 OA
HETATM    8  H   UNK N   1      19.617  14.169   9.650  0.00  0.00     0.217 HD
ENDBRANCH   1   7
TORSDOF 1
ENDMDL
MODEL 6
REMARK VINA RESULT:      -3.7     19.606     20.591
REMARK  1 active torsions:
REMARK  status: ('A' for Active; 'I' for Inactive)
REMARK    1  A    between atoms: O_1  and  C_2 
ROOT
HETATM    1  C   UNK N   1      26.327  25.494  -3.748  0.00  0.00     0.065 A 
HETATM    2  C   UNK N   1      25.799  25.169  -5.001  0.00  0.00     0.036 A 
HETATM    3  C   UNK N   1      25.195  26.159  -5.779  0.00  0.00     0.003 A 
HETATM    4  C   UNK N   1      25.119  27.471  -5.304  0.00  0.00     0.000 A 
HETATM    5  C   UNK N   1      25.647  27.796  -4.051  0.00  0.00     0.003 A 
HETATM    6  C   UNK N   1      26.252  26.806  -3.271  0.00  0.00     0.036 A 
ENDROOT
BRANCH   1   7
HETATM    7  O   UNK N   1      26.907  24.543  -3.000  0.00  0.00    -0.361 OA
HETATM    8  H   UNK N   1      27.729  24.713  -2.580  0.00  0.00     0.217 HD
ENDBRANCH   1   7
TORSDOF 1
ENDMDL
MODEL 7
REMARK VINA RESULT:      -3.7      8.037      9.025
REMARK  1 active torsions:
REMARK  status: ('A' for Active; 'I' for Inactive)
REMARK    1  A    between atoms: O_1  and  C_2 
ROOT
HETATM    1  C   UNK N   1      28.555  18.034   8.813  0.00  0.00     0.065 A 
HETATM    2  C   UNK N   1      29.744  18.474   9.401  0.00  0.00     0.036 A 
HETATM    3  C   UNK N   1      30.970  18.160   8.810  0.00  0.00     0.003 A 
HETATM    4  C   UNK N   1      31.005  17.407   7.632  0.00  0.00     0.000 A 
HETATM    5  C   UNK N   1      29.816  16.967   7.045  0.00  0.00     0.003 A 
HETATM    6  C   UNK N   1      28.588  17.281   7.636  0.00  0.00     0.036 A 
ENDROOT
BRANCH   1   7
HETATM    7  O   UNK N   1      27.377  18.335   9.380  0.00  0.00    -0.361 OA
HETATM    8  H   UNK N   1      26.727  18.803   8.892  0.00  0.00     0.217 HD
ENDBRANCH   1   7
TORSDOF 1
ENDMDL
MODEL 8
REMARK VINA RESULT:      -3.6     13.123     13.940
REMARK  1 active torsions:
REMARK  status: ('A' for Active; 'I' for Inactive)
REMARK    1  A    between atoms: O_1  and  C_2 
ROOT
HETATM    1  C   UNK N   1      34.884  12.657  16.376  0.00  0.00     0.065 A 
HETATM    2  C   UNK N   1      35.071  11.282  16.544  0.00  0.00     0.036 A 
HETATM    3  C   UNK N   1      35.334  10.767  17.816  0.00  0.00     0.003 A 
HETATM    4  C   UNK N   1      35.409  11.626  18.915  0.00  0.00     0.000 A 
HETATM    5  C   UNK N   1      35.222  13.001  18.746  0.00  0.00     0.003 A 
HETATM    6  C   UNK N   1      34.959  13.518  17.474  0.00  0.00     0.036 A 
ENDROOT
BRANCH   1   7
HETATM    7  O   UNK N   1      34.631  13.153  15.154  0.00  0.00    -0.361 OA
HETATM    8  H   UNK N   1      34.694  12.598  14.401  0.00  0.00     0.217 HD
ENDBRANCH   1   7
TORSDOF 1
ENDMDL
MODEL 9
REMARK VINA RESULT:      -3.6     22.903     23.862
REMARK  1 active torsions:
REMARK  status: ('A' for Active; 'I' for Inactive)
REMARK    1  A    between atoms: O_1  and  C_2 
ROOT
HETATM    1  C   UNK N   1      44.899  21.446   3.855  0.00  0.00     0.065 A 
HETATM    2  C   UNK N   1      43.541  21.767   3.933  0.00  0.00     0.036 A 
HETATM    3  C   UNK N   1      42.582  20.839   3.521  0.00  0.00     0.003 A 
HETATM    4  C   UNK N   1      42.982  19.592   3.032  0.00  0.00     0.000 A 
HETATM    5  C   UNK N   1      44.341  19.272   2.954  0.00  0.00     0.003 A 
HETATM    6  C   UNK N   1      45.301  20.200   3.367  0.00  0.00     0.036 A 
ENDROOT
BRANCH   1   7
HETATM    7  O   UNK N   1      45.821  22.337   4.251  0.00  0.00    -0.361 OA
HETATM    8  H   UNK N   1      46.555  22.529   3.700  0.00  0.00     0.217 HD
ENDBRANCH   1   7
TORSDOF 1
ENDMDL
