MODEL 1
REMARK VINA RESULT:      -6.0      0.000      0.000
REMARK  16 active torsions:
REMARK  status: ('A' for Active; 'I' for Inactive)
REMARK    1  A    between atoms: C_6  and  C_2 
REMARK    2  A    between atoms: N_18  and  C_2 
REMARK    3  A    between atoms: C_7  and  C_3 
REMARK    4  A    between atoms: O_22  and  C_3 
REMARK    5  A    between atoms: C_4  and  N_19 
REMARK    6  A    between atoms: C_5  and  N_20 
REMARK    7  A    between atoms: C_8  and  N_21 
REMARK    8  A    between atoms: C_9  and  O_23 
REMARK    9  A    between atoms: C_10  and  O_24 
REMARK   10  A    between atoms: C_11  and  O_25 
REMARK   11  A    between atoms: C_12  and  O_26 
REMARK   12  A    between atoms: C_13  and  O_27 
REMARK   13  A    between atoms: C_14  and  O_30 
REMARK   14  A    between atoms: C_15  and  O_31 
REMARK   15  A    between atoms: C_16  and  O_30 
REMARK   16  A    between atoms: C_17  and  O_31 
ROOT
HETATM    1  C   UNK N   1      29.399  14.301   2.740  0.00  0.00     0.054 C 
HETATM    2  C   UNK N   1      30.617  13.724   3.474  0.00  0.00     0.107 C 
HETATM    3  C   UNK N   1      29.219  15.807   2.975  0.00  0.00     0.107 C 
HETATM    4  C   UNK N   1      30.555  14.063   4.974  0.00  0.00     0.172 C 
HETATM    5  C   UNK N   1      29.148  16.088   4.505  0.00  0.00     0.178 C 
HETATM    6  C   UNK N   1      30.430  15.592   5.222  0.00  0.00     0.186 C 
ENDROOT
BRANCH   5   7
HETATM    7  O   UNK N   1      28.729  17.393   4.900  0.00  0.00    -0.349 OA
BRANCH   7   8
HETATM    8  C   UNK N   1      27.467  17.504   5.539  0.00  0.00     0.285 C 
HETATM    9  C   UNK N   1      26.674  18.673   4.910  0.00  0.00     0.161 C 
HETATM   10  C   UNK N   1      27.407  19.999   5.189  0.00  0.00     0.176 C 
HETATM   11  C   UNK N   1      27.631  20.154   6.701  0.00  0.00     0.179 C 
HETATM   12  C   UNK N   1      28.366  18.899   7.214  0.00  0.00     0.173 C 
HETATM   13  O   UNK N   1      27.598  17.737   6.939  0.00  0.00    -0.350 OA
BRANCH   9  14
HETATM   14  N   UNK N   1      26.525  18.473   3.476  0.00  0.00    -0.420 N 
HETATM   15  H   UNK N   1      25.853  19.010   2.929  0.00  0.00     0.150 HD
HETATM   16  H   UNK N   1      27.106  17.778   3.006  0.00  0.00     0.150 HD
ENDBRANCH   9  14
BRANCH  10  17
HETATM   17  O   UNK N   1      26.673  21.081   4.697  0.00  0.00    -0.391 OA
HETATM   18  H   UNK N   1      25.703  21.041   4.675  0.00  0.00     0.210 HD
ENDBRANCH  10  17
BRANCH  11  19
HETATM   19  O   UNK N   1      26.403  20.289   7.358  0.00  0.00    -0.390 OA
HETATM   20  H   UNK N   1      25.870  20.381   8.164  0.00  0.00     0.210 HD
ENDBRANCH  11  19
BRANCH  12  21
HETATM   21  C   UNK N   1      28.599  18.961   8.721  0.00  0.00     0.145 C 
BRANCH  21  22
HETATM   22  N   UNK N   1      27.675  18.089   9.427  0.00  0.00    -0.428 N 
HETATM   23  H   UNK N   1      27.020  18.095  10.208  0.00  0.00     0.150 HD
HETATM   24  H   UNK N   1      27.686  17.163   8.999  0.00  0.00     0.150 HD
ENDBRANCH  21  22
ENDBRANCH  12  21
ENDBRANCH   7   8
ENDBRANCH   5   7
BRANCH   3  25
HETATM   25  N   UNK N   1      30.319  16.515   2.333  0.00  0.00    -0.423 N 
HETATM   26  H   UNK N   1      31.152  16.942   1.927  0.00  0.00     0.150 HD
HETATM   27  H   UNK N   1      29.696  17.202   1.908  0.00  0.00     0.150 HD
ENDBRANCH   3  25
BRANCH   6  28
HETATM   28  O   UNK N   1      30.331  15.833   6.622  0.00  0.00    -0.348 OA
BRANCH  28  29
HETATM   29  C   UNK N   1      31.267  16.818   7.046  0.00  0.00     0.292 C 
HETATM   30  C   UNK N   1      31.430  16.769   8.561  0.00  0.00     0.204 C 
HETATM   31  C   UNK N   1      32.333  15.575   8.650  0.00  0.00     0.182 C 
HETATM   32  C   UNK N   1      33.299  15.859   7.495  0.00  0.00     0.179 C 
HETATM   33  O   UNK N   1      32.551  16.539   6.499  0.00  0.00    -0.348 OA
BRANCH  30  34
HETATM   34  O   UNK N   1      32.096  17.919   9.001  0.00  0.00    -0.388 OA
HETATM   35  H   UNK N   1      31.893  18.800   9.353  0.00  0.00     0.210 HD
ENDBRANCH  30  34
BRANCH  31  36
HETATM   36  O   UNK N   1      32.946  15.419   9.896  0.00  0.00    -0.390 OA
HETATM   37  H   UNK N   1      32.651  14.745  10.529  0.00  0.00     0.210 HD
ENDBRANCH  31  36
BRANCH  32  38
HETATM   38  C   UNK N   1      34.485  16.748   7.876  0.00  0.00     0.198 C 
BRANCH  38  39
HETATM   39  O   UNK N   1      34.506  17.902   7.091  0.00  0.00    -0.398 OA
HETATM   40  H   UNK N   1      33.797  18.565   7.119  0.00  0.00     0.209 HD
ENDBRANCH  38  39
ENDBRANCH  32  38
ENDBRANCH  28  29
ENDBRANCH   6  28
BRANCH   4  41
HETATM   41  O   UNK N   1      31.681  13.538   5.610  0.00  0.00    -0.391 OA
HETATM   42  H   UNK N   1      31.803  12.592   5.785  0.00  0.00     0.210 HD
ENDBRANCH   4  41
BRANCH   2  43
HETATM   43  N   UNK N   1      31.851  14.224   2.883  0.00  0.00    -0.423 N 
HETATM   44  H   UNK N   1      32.761  14.516   2.526  0.00  0.00     0.150 HD
HETATM   45  H   UNK N   1      31.350  14.854   2.256  0.00  0.00     0.150 HD
ENDBRANCH   2  43
TORSDOF 16
ENDMDL
MODEL 2
REMARK VINA RESULT:      -5.9      2.965      6.777
REMARK  16 active torsions:
REMARK  status: ('A' for Active; 'I' for Inactive)
REMARK    1  A    between atoms: C_6  and  C_2 
REMARK    2  A    between atoms: N_18  and  C_2 
REMARK    3  A    between atoms: C_7  and  C_3 
REMARK    4  A    between atoms: O_22  and  C_3 
REMARK    5  A    between atoms: C_4  and  N_19 
REMARK    6  A    between atoms: C_5  and  N_20 
REMARK    7  A    between atoms: C_8  and  N_21 
REMARK    8  A    between atoms: C_9  and  O_23 
REMARK    9  A    between atoms: C_10  and  O_24 
REMARK   10  A    between atoms: C_11  and  O_25 
REMARK   11  A    between atoms: C_12  and  O_26 
REMARK   12  A    between atoms: C_13  and  O_27 
REMARK   13  A    between atoms: C_14  and  O_30 
REMARK   14  A    between atoms: C_15  and  O_31 
REMARK   15  A    between atoms: C_16  and  O_30 
REMARK   16  A    between atoms: C_17  and  O_31 
ROOT
HETATM    1  C   UNK N   1      33.217  16.111   2.770  0.00  0.00     0.054 C 
HETATM    2  C   UNK N   1      31.885  16.842   2.986  0.00  0.00     0.107 C 
HETATM    3  C   UNK N   1      33.507  15.065   3.855  0.00  0.00     0.107 C 
HETATM    4  C   UNK N   1      31.828  17.454   4.397  0.00  0.00     0.172 C 
HETATM    5  C   UNK N   1      33.449  15.743   5.257  0.00  0.00     0.178 C 
HETATM    6  C   UNK N   1      32.063  16.390   5.505  0.00  0.00     0.186 C 
ENDROOT
BRANCH   5   7
HETATM    7  O   UNK N   1      33.942  14.982   6.359  0.00  0.00    -0.349 OA
BRANCH   7   8
HETATM    8  C   UNK N   1      35.097  15.473   7.022  0.00  0.00     0.285 C 
HETATM    9  C   UNK N   1      36.227  14.422   6.931  0.00  0.00     0.161 C 
HETATM   10  C   UNK N   1      35.809  13.152   7.696  0.00  0.00     0.176 C 
HETATM   11  C   UNK N   1      35.429  13.521   9.138  0.00  0.00     0.179 C 
HETATM   12  C   UNK N   1      34.349  14.621   9.089  0.00  0.00     0.173 C 
HETATM   13  O   UNK N   1      34.841  15.758   8.394  0.00  0.00    -0.350 OA
BRANCH   9  14
HETATM   14  N   UNK N   1      36.513  14.101   5.540  0.00  0.00    -0.420 N 
HETATM   15  H   UNK N   1      36.201  14.702   4.778  0.00  0.00     0.150 HD
HETATM   16  H   UNK N   1      37.036  13.253   5.322  0.00  0.00     0.150 HD
ENDBRANCH   9  14
BRANCH  10  17
HETATM   17  O   UNK N   1      36.843  12.213   7.695  0.00  0.00    -0.391 OA
HETATM   18  H   UNK N   1      37.739  12.478   7.432  0.00  0.00     0.210 HD
ENDBRANCH  10  17
BRANCH  11  19
HETATM   19  O   UNK N   1      36.555  13.989   9.826  0.00  0.00    -0.390 OA
HETATM   20  H   UNK N   1      36.969  14.512  10.531  0.00  0.00     0.210 HD
ENDBRANCH  11  19
BRANCH  12  21
HETATM   21  C   UNK N   1      33.940  15.068  10.490  0.00  0.00     0.145 C 
BRANCH  21  22
HETATM   22  N   UNK N   1      34.713  16.223  10.914  0.00  0.00    -0.428 N 
HETATM   23  H   UNK N   1      35.677  16.519  11.066  0.00  0.00     0.150 HD
HETATM   24  H   UNK N   1      34.082  16.994  11.135  0.00  0.00     0.150 HD
ENDBRANCH  21  22
ENDBRANCH  12  21
ENDBRANCH   7   8
ENDBRANCH   5   7
BRANCH   3  25
HETATM   25  N   UNK N   1      32.544  13.979   3.727  0.00  0.00    -0.423 N 
HETATM   26  H   UNK N   1      31.813  13.267   3.707  0.00  0.00     0.150 HD
HETATM   27  H   UNK N   1      33.109  13.491   3.031  0.00  0.00     0.150 HD
ENDBRANCH   3  25
BRANCH   6  28
HETATM   28  O   UNK N   1      32.044  17.028   6.778  0.00  0.00    -0.348 OA
BRANCH  28  29
HETATM   29  C   UNK N   1      31.104  16.412   7.652  0.00  0.00     0.292 C 
HETATM   30  C   UNK N   1      31.203  17.024   9.045  0.00  0.00     0.204 C 
HETATM   31  C   UNK N   1      30.444  18.292   8.787  0.00  0.00     0.182 C 
HETATM   32  C   UNK N   1      29.276  17.761   7.950  0.00  0.00     0.179 C 
HETATM   33  O   UNK N   1      29.779  16.666   7.200  0.00  0.00    -0.348 OA
BRANCH  30  34
HETATM   34  O   UNK N   1      30.514  16.221   9.963  0.00  0.00    -0.388 OA
HETATM   35  H   UNK N   1      29.789  16.288  10.602  0.00  0.00     0.210 HD
ENDBRANCH  30  34
BRANCH  31  36
HETATM   36  O   UNK N   1      30.067  18.973   9.947  0.00  0.00    -0.390 OA
HETATM   37  H   UNK N   1      30.113  19.941  10.008  0.00  0.00     0.210 HD
ENDBRANCH  31  36
BRANCH  32  38
HETATM   38  C   UNK N   1      28.092  17.256   8.778  0.00  0.00     0.198 C 
BRANCH  38  39
HETATM   39  O   UNK N   1      27.414  18.325   9.367  0.00  0.00    -0.398 OA
HETATM   40  H   UNK N   1      27.449  19.226   9.008  0.00  0.00     0.209 HD
ENDBRANCH  38  39
ENDBRANCH  32  38
ENDBRANCH  28  29
ENDBRANCH   6  28
BRANCH   4  41
HETATM   41  O   UNK N   1      30.602  18.099   4.568  0.00  0.00    -0.391 OA
HETATM   42  H   UNK N   1      29.777  17.633   4.777  0.00  0.00     0.210 HD
ENDBRANCH   4  41
BRANCH   2  43
HETATM   43  N   UNK N   1      30.766  15.935   2.772  0.00  0.00    -0.423 N 
HETATM   44  H   UNK N   1      30.037  15.253   2.563  0.00  0.00     0.150 HD
HETATM   45  H   UNK N   1      30.169  16.442   3.427  0.00  0.00     0.150 HD
ENDBRANCH   2  43
TORSDOF 16
ENDMDL
MODEL 3
REMARK VINA RESULT:      -5.8      6.096      9.810
REMARK  16 active torsions:
REMARK  status: ('A' for Active; 'I' for Inactive)
REMARK    1  A    between atoms: C_6  and  C_2 
REMARK    2  A    between atoms: N_18  and  C_2 
REMARK    3  A    between atoms: C_7  and  C_3 
REMARK    4  A    between atoms: O_22  and  C_3 
REMARK    5  A    between atoms: C_4  and  N_19 
REMARK    6  A    between atoms: C_5  and  N_20 
REMARK    7  A    between atoms: C_8  and  N_21 
REMARK    8  A    between atoms: C_9  and  O_23 
REMARK    9  A    between atoms: C_10  and  O_24 
REMARK   10  A    between atoms: C_11  and  O_25 
REMARK   11  A    between atoms: C_12  and  O_26 
REMARK   12  A    between atoms: C_13  and  O_27 
REMARK   13  A    between atoms: C_14  and  O_30 
REMARK   14  A    between atoms: C_15  and  O_31 
REMARK   15  A    between atoms: C_16  and  O_30 
REMARK   16  A    between atoms: C_17  and  O_31 
ROOT
HETATM    1  C   UNK N   1      34.445   9.475  10.005  0.00  0.00     0.054 C 
HETATM    2  C   UNK N   1      33.645  10.319   9.003  0.00  0.00     0.107 C 
HETATM    3  C   UNK N   1      34.708  10.207  11.327  0.00  0.00     0.107 C 
HETATM    4  C   UNK N   1      34.329  11.679   8.775  0.00  0.00     0.172 C 
HETATM    5  C   UNK N   1      35.412  11.566  11.035  0.00  0.00     0.178 C 
HETATM    6  C   UNK N   1      34.547  12.453  10.104  0.00  0.00     0.186 C 
ENDROOT
BRANCH   5   7
HETATM    7  O   UNK N   1      35.959  12.259  12.156  0.00  0.00    -0.349 OA
BRANCH   7   8
HETATM    8  C   UNK N   1      35.065  13.033  12.941  0.00  0.00     0.285 C 
HETATM    9  C   UNK N   1      35.852  14.146  13.668  0.00  0.00     0.161 C 
HETATM   10  C   UNK N   1      36.842  13.509  14.662  0.00  0.00     0.176 C 
HETATM   11  C   UNK N   1      36.084  12.571  15.614  0.00  0.00     0.179 C 
HETATM   12  C   UNK N   1      35.290  11.558  14.766  0.00  0.00     0.173 C 
HETATM   13  O   UNK N   1      34.385  12.240  13.910  0.00  0.00    -0.350 OA
BRANCH   9  14
HETATM   14  N   UNK N   1      36.567  14.975  12.709  0.00  0.00    -0.420 N 
HETATM   15  H   UNK N   1      37.477  15.380  12.926  0.00  0.00     0.150 HD
HETATM   16  H   UNK N   1      36.147  15.157  11.797  0.00  0.00     0.150 HD
ENDBRANCH   9  14
BRANCH  10  17
HETATM   17  O   UNK N   1      37.514  14.494  15.390  0.00  0.00    -0.391 OA
HETATM   18  H   UNK N   1      37.552  14.441  16.359  0.00  0.00     0.210 HD
ENDBRANCH  10  17
BRANCH  11  19
HETATM   19  O   UNK N   1      35.208  13.309  16.419  0.00  0.00    -0.390 OA
HETATM   20  H   UNK N   1      34.368  13.772  16.567  0.00  0.00     0.210 HD
ENDBRANCH  11  19
BRANCH  12  21
HETATM   21  C   UNK N   1      34.479  10.606  15.642  0.00  0.00     0.145 C 
BRANCH  21  22
HETATM   22  N   UNK N   1      35.143  10.377  16.914  0.00  0.00    -0.428 N 
HETATM   23  H   UNK N   1      36.024  10.035  17.299  0.00  0.00     0.150 HD
HETATM   24  H   UNK N   1      34.521  10.646  17.677  0.00  0.00     0.150 HD
ENDBRANCH  21  22
ENDBRANCH  12  21
ENDBRANCH   7   8
ENDBRANCH   5   7
BRANCH   3  25
HETATM   25  N   UNK N   1      33.441  10.381  12.026  0.00  0.00    -0.423 N 
HETATM   26  H   UNK N   1      32.510  10.509  12.423  0.00  0.00     0.150 HD
HETATM   27  H   UNK N   1      33.879  10.312  12.944  0.00  0.00     0.150 HD
ENDBRANCH   3  25
BRANCH   6  28
HETATM   28  O   UNK N   1      35.223  13.675   9.829  0.00  0.00    -0.348 OA
BRANCH  28  29
HETATM   29  C   UNK N   1      34.406  14.800  10.136  0.00  0.00     0.292 C 
HETATM   30  C   UNK N   1      35.040  16.074   9.588  0.00  0.00     0.204 C 
HETATM   31  C   UNK N   1      34.646  15.919   8.149  0.00  0.00     0.182 C 
HETATM   32  C   UNK N   1      33.197  15.444   8.298  0.00  0.00     0.179 C 
HETATM   33  O   UNK N   1      33.143  14.676   9.491  0.00  0.00    -0.348 OA
BRANCH  30  34
HETATM   34  O   UNK N   1      34.411  17.192  10.149  0.00  0.00    -0.388 OA
HETATM   35  H   UNK N   1      33.649  17.405  10.710  0.00  0.00     0.210 HD
ENDBRANCH  30  34
BRANCH  31  36
HETATM   36  O   UNK N   1      34.800  17.083   7.390  0.00  0.00    -0.390 OA
HETATM   37  H   UNK N   1      34.071  17.449   6.865  0.00  0.00     0.210 HD
ENDBRANCH  31  36
BRANCH  32  38
HETATM   38  C   UNK N   1      32.176  16.576   8.425  0.00  0.00     0.198 C 
BRANCH  38  39
HETATM   39  O   UNK N   1      31.394  16.406   9.569  0.00  0.00    -0.398 OA
HETATM   40  H   UNK N   1      31.776  16.182  10.433  0.00  0.00     0.209 HD
ENDBRANCH  38  39
ENDBRANCH  32  38
ENDBRANCH  28  29
ENDBRANCH   6  28
BRANCH   4  41
HETATM   41  O   UNK N   1      33.572  12.427   7.872  0.00  0.00    -0.391 OA
HETATM   42  H   UNK N   1      33.867  12.637   6.972  0.00  0.00     0.210 HD
ENDBRANCH   4  41
BRANCH   2  43
HETATM   43  N   UNK N   1      32.278  10.502   9.470  0.00  0.00    -0.423 N 
HETATM   44  H   UNK N   1      31.305  10.681   9.720  0.00  0.00     0.150 HD
HETATM   45  H   UNK N   1      32.438   9.939  10.306  0.00  0.00     0.150 HD
ENDBRANCH   2  43
TORSDOF 16
ENDMDL
MODEL 4
REMARK VINA RESULT:      -5.8      5.549      8.570
REMARK  16 active torsions:
REMARK  status: ('A' for Active; 'I' for Inactive)
REMARK    1  A    between atoms: C_6  and  C_2 
REMARK    2  A    between atoms: N_18  and  C_2 
REMARK    3  A    between atoms: C_7  and  C_3 
REMARK    4  A    between atoms: O_22  and  C_3 
REMARK    5  A    between atoms: C_4  and  N_19 
REMARK    6  A    between atoms: C_5  and  N_20 
REMARK    7  A    between atoms: C_8  and  N_21 
REMARK    8  A    between atoms: C_9  and  O_23 
REMARK    9  A    between atoms: C_10  and  O_24 
REMARK   10  A    between atoms: C_11  and  O_25 
REMARK   11  A    between atoms: C_12  and  O_26 
REMARK   12  A    between atoms: C_13  and  O_27 
REMARK   13  A    between atoms: C_14  and  O_30 
REMARK   14  A    between atoms: C_15  and  O_31 
REMARK   15  A    between atoms: C_16  and  O_30 
REMARK   16  A    between atoms: C_17  and  O_31 
ROOT
HETATM    1  C   UNK N   1      33.883   9.688   6.868  0.00  0.00     0.054 C 
HETATM    2  C   UNK N   1      33.520  10.818   5.894  0.00  0.00     0.107 C 
HETATM    3  C   UNK N   1      33.561  10.033   8.328  0.00  0.00     0.107 C 
HETATM    4  C   UNK N   1      34.181  12.138   6.326  0.00  0.00     0.172 C 
HETATM    5  C   UNK N   1      34.267  11.367   8.713  0.00  0.00     0.178 C 
HETATM    6  C   UNK N   1      33.814  12.524   7.786  0.00  0.00     0.186 C 
ENDROOT
BRANCH   5   7
HETATM    7  O   UNK N   1      34.287  11.705  10.099  0.00  0.00    -0.349 OA
BRANCH   7   8
HETATM    8  C   UNK N   1      35.379  11.227  10.868  0.00  0.00     0.285 C 
HETATM    9  C   UNK N   1      35.055  11.382  12.371  0.00  0.00     0.161 C 
HETATM   10  C   UNK N   1      34.920  12.877  12.716  0.00  0.00     0.176 C 
HETATM   11  C   UNK N   1      36.192  13.622  12.283  0.00  0.00     0.179 C 
HETATM   12  C   UNK N   1      36.439  13.331  10.789  0.00  0.00     0.173 C 
HETATM   13  O   UNK N   1      36.582  11.934  10.580  0.00  0.00    -0.350 OA
BRANCH   9  14
HETATM   14  N   UNK N   1      33.826  10.676  12.703  0.00  0.00    -0.420 N 
HETATM   15  H   UNK N   1      32.979  10.789  12.147  0.00  0.00     0.150 HD
HETATM   16  H   UNK N   1      33.811  10.053  13.511  0.00  0.00     0.150 HD
ENDBRANCH   9  14
BRANCH  10  17
HETATM   17  O   UNK N   1      34.702  13.051  14.085  0.00  0.00    -0.391 OA
HETATM   18  H   UNK N   1      33.962  12.597  14.520  0.00  0.00     0.210 HD
ENDBRANCH  10  17
BRANCH  11  19
HETATM   19  O   UNK N   1      37.285  13.187  13.041  0.00  0.00    -0.390 OA
HETATM   20  H   UNK N   1      37.711  12.556  13.642  0.00  0.00     0.210 HD
ENDBRANCH  11  19
BRANCH  12  21
HETATM   21  C   UNK N   1      37.710  14.013  10.288  0.00  0.00     0.145 C 
BRANCH  21  22
HETATM   22  N   UNK N   1      38.894  13.284  10.711  0.00  0.00    -0.428 N 
HETATM   23  H   UNK N   1      39.805  13.434  11.142  0.00  0.00     0.150 HD
HETATM   24  H   UNK N   1      38.773  12.291  10.509  0.00  0.00     0.150 HD
ENDBRANCH  21  22
ENDBRANCH  12  21
ENDBRANCH   7   8
ENDBRANCH   5   7
BRANCH   3  25
HETATM   25  N   UNK N   1      32.114  10.108   8.482  0.00  0.00    -0.423 N 
HETATM   26  H   UNK N   1      31.110  10.089   8.663  0.00  0.00     0.150 HD
HETATM   27  H   UNK N   1      32.022  10.818   7.756  0.00  0.00     0.150 HD
ENDBRANCH   3  25
BRANCH   6  28
HETATM   28  O   UNK N   1      34.492  13.725   8.139  0.00  0.00    -0.348 OA
BRANCH  28  29
HETATM   29  C   UNK N   1      33.617  14.847   8.095  0.00  0.00     0.292 C 
HETATM   30  C   UNK N   1      33.490  15.467   9.482  0.00  0.00     0.204 C 
HETATM   31  C   UNK N   1      34.787  16.219   9.510  0.00  0.00     0.182 C 
HETATM   32  C   UNK N   1      34.811  16.803   8.094  0.00  0.00     0.179 C 
HETATM   33  O   UNK N   1      34.162  15.859   7.256  0.00  0.00    -0.348 OA
BRANCH  30  34
HETATM   34  O   UNK N   1      32.409  16.357   9.503  0.00  0.00    -0.388 OA
HETATM   35  H   UNK N   1      31.702  16.644  10.101  0.00  0.00     0.210 HD
ENDBRANCH  30  34
BRANCH  31  36
HETATM   36  O   UNK N   1      34.870  17.170  10.532  0.00  0.00    -0.390 OA
HETATM   37  H   UNK N   1      34.075  17.555  10.934  0.00  0.00     0.210 HD
ENDBRANCH  31  36
BRANCH  32  38
HETATM   38  C   UNK N   1      34.075  18.136   7.953  0.00  0.00     0.198 C 
BRANCH  38  39
HETATM   39  O   UNK N   1      34.897  19.195   8.345  0.00  0.00    -0.398 OA
HETATM   40  H   UNK N   1      34.676  20.122   8.161  0.00  0.00     0.209 HD
ENDBRANCH  38  39
ENDBRANCH  32  38
ENDBRANCH  28  29
ENDBRANCH   6  28
BRANCH   4  41
HETATM   41  O   UNK N   1      33.821  13.146   5.431  0.00  0.00    -0.391 OA
HETATM   42  H   UNK N   1      33.552  12.976   4.515  0.00  0.00     0.210 HD
ENDBRANCH   4  41
BRANCH   2  43
HETATM   43  N   UNK N   1      32.074  10.970   5.808  0.00  0.00    -0.423 N 
HETATM   44  H   UNK N   1      31.056  11.033   5.830  0.00  0.00     0.150 HD
HETATM   45  H   UNK N   1      32.131  11.445   4.906  0.00  0.00     0.150 HD
ENDBRANCH   2  43
TORSDOF 16
ENDMDL
MODEL 5
REMARK VINA RESULT:      -5.7      2.310      5.586
REMARK  16 active torsions:
REMARK  status: ('A' for Active; 'I' for Inactive)
REMARK    1  A    between atoms: C_6  and  C_2 
REMARK    2  A    between atoms: N_18  and  C_2 
REMARK    3  A    between atoms: C_7  and  C_3 
REMARK    4  A    between atoms: O_22  and  C_3 
REMARK    5  A    between atoms: C_4  and  N_19 
REMARK    6  A    between atoms: C_5  and  N_20 
REMARK    7  A    between atoms: C_8  and  N_21 
REMARK    8  A    between atoms: C_9  and  O_23 
REMARK    9  A    between atoms: C_10  and  O_24 
REMARK   10  A    between atoms: C_11  and  O_25 
REMARK   11  A    between atoms: C_12  and  O_26 
REMARK   12  A    between atoms: C_13  and  O_27 
REMARK   13  A    between atoms: C_14  and  O_30 
REMARK   14  A    between atoms: C_15  and  O_31 
REMARK   15  A    between atoms: C_16  and  O_30 
REMARK   16  A    between atoms: C_17  and  O_31 
ROOT
HETATM    1  C   UNK N   1      27.954  18.916   6.859  0.00  0.00     0.054 C 
HETATM    2  C   UNK N   1      28.553  18.916   8.272  0.00  0.00     0.107 C 
HETATM    3  C   UNK N   1      28.042  17.547   6.174  0.00  0.00     0.107 C 
HETATM    4  C   UNK N   1      29.996  18.383   8.248  0.00  0.00     0.172 C 
HETATM    5  C   UNK N   1      29.523  17.065   6.166  0.00  0.00     0.178 C 
HETATM    6  C   UNK N   1      30.086  16.971   7.607  0.00  0.00     0.186 C 
ENDROOT
BRANCH   5   7
HETATM    7  O   UNK N   1      29.827  15.937   5.347  0.00  0.00    -0.349 OA
BRANCH   7   8
HETATM    8  C   UNK N   1      30.244  16.194   4.015  0.00  0.00     0.285 C 
HETATM    9  C   UNK N   1      29.833  15.009   3.111  0.00  0.00     0.161 C 
HETATM   10  C   UNK N   1      30.589  13.742   3.552  0.00  0.00     0.176 C 
HETATM   11  C   UNK N   1      32.100  14.017   3.552  0.00  0.00     0.179 C 
HETATM   12  C   UNK N   1      32.367  15.257   4.430  0.00  0.00     0.173 C 
HETATM   13  O   UNK N   1      31.654  16.376   3.925  0.00  0.00    -0.350 OA
BRANCH   9  14
HETATM   14  N   UNK N   1      28.396  14.789   3.182  0.00  0.00    -0.420 N 
HETATM   15  H   UNK N   1      27.905  14.753   4.075  0.00  0.00     0.150 HD
HETATM   16  H   UNK N   1      27.867  14.665   2.319  0.00  0.00     0.150 HD
ENDBRANCH   9  14
BRANCH  10  17
HETATM   17  O   UNK N   1      30.295  12.671   2.703  0.00  0.00    -0.391 OA
HETATM   18  H   UNK N   1      30.785  12.561   1.873  0.00  0.00     0.210 HD
ENDBRANCH  10  17
BRANCH  11  19
HETATM   19  O   UNK N   1      32.546  14.253   2.247  0.00  0.00    -0.390 OA
HETATM   20  H   UNK N   1      32.754  13.954   1.347  0.00  0.00     0.210 HD
ENDBRANCH  11  19
BRANCH  12  21
HETATM   21  C   UNK N   1      33.849  15.618   4.456  0.00  0.00     0.145 C 
BRANCH  21  22
HETATM   22  N   UNK N   1      34.676  14.422   4.463  0.00  0.00    -0.428 N 
HETATM   23  H   UNK N   1      34.898  13.615   5.046  0.00  0.00     0.150 HD
HETATM   24  H   UNK N   1      35.215  14.375   3.598  0.00  0.00     0.150 HD
ENDBRANCH  21  22
ENDBRANCH  12  21
ENDBRANCH   7   8
ENDBRANCH   5   7
BRANCH   3  25
HETATM   25  N   UNK N   1      27.163  16.617   6.872  0.00  0.00    -0.423 N 
HETATM   26  H   UNK N   1      26.611  15.892   7.331  0.00  0.00     0.150 HD
HETATM   27  H   UNK N   1      26.525  17.358   7.162  0.00  0.00     0.150 HD
ENDBRANCH   3  25
BRANCH   6  28
HETATM   28  O   UNK N   1      31.448  16.557   7.573  0.00  0.00    -0.348 OA
BRANCH  28  29
HETATM   29  C   UNK N   1      31.736  15.634   8.618  0.00  0.00     0.292 C 
HETATM   30  C   UNK N   1      32.415  14.394   8.049  0.00  0.00     0.204 C 
HETATM   31  C   UNK N   1      33.797  14.952   7.882  0.00  0.00     0.182 C 
HETATM   32  C   UNK N   1      33.952  15.732   9.192  0.00  0.00     0.179 C 
HETATM   33  O   UNK N   1      32.661  16.209   9.535  0.00  0.00    -0.348 OA
BRANCH  30  34
HETATM   34  O   UNK N   1      32.414  13.374   9.010  0.00  0.00    -0.388 OA
HETATM   35  H   UNK N   1      32.138  12.450   9.104  0.00  0.00     0.210 HD
ENDBRANCH  30  34
BRANCH  31  36
HETATM   36  O   UNK N   1      34.778  13.982   7.663  0.00  0.00    -0.390 OA
HETATM   37  H   UNK N   1      34.750  13.393   6.892  0.00  0.00     0.210 HD
ENDBRANCH  31  36
BRANCH  32  38
HETATM   38  C   UNK N   1      34.466  14.892  10.363  0.00  0.00     0.198 C 
BRANCH  38  39
HETATM   39  O   UNK N   1      33.504  14.815  11.371  0.00  0.00    -0.398 OA
HETATM   40  H   UNK N   1      33.737  14.719  12.309  0.00  0.00     0.209 HD
ENDBRANCH  38  39
ENDBRANCH  32  38
ENDBRANCH  28  29
ENDBRANCH   6  28
BRANCH   4  41
HETATM   41  O   UNK N   1      30.507  18.382   9.547  0.00  0.00    -0.391 OA
HETATM   42  H   UNK N   1      31.119  17.708   9.880  0.00  0.00     0.210 HD
ENDBRANCH   4  41
BRANCH   2  43
HETATM   43  N   UNK N   1      27.727  18.126   9.174  0.00  0.00    -0.423 N 
HETATM   44  H   UNK N   1      27.138  17.649   9.858  0.00  0.00     0.150 HD
HETATM   45  H   UNK N   1      27.833  17.283   8.609  0.00  0.00     0.150 HD
ENDBRANCH   2  43
TORSDOF 16
ENDMDL
MODEL 6
REMARK VINA RESULT:      -5.6      2.678      5.449
REMARK  16 active torsions:
REMARK  status: ('A' for Active; 'I' for Inactive)
REMARK    1  A    between atoms: C_6  and  C_2 
REMARK    2  A    between atoms: N_18  and  C_2 
REMARK    3  A    between atoms: C_7  and  C_3 
REMARK    4  A    between atoms: O_22  and  C_3 
REMARK    5  A    between atoms: C_4  and  N_19 
REMARK    6  A    between atoms: C_5  and  N_20 
REMARK    7  A    between atoms: C_8  and  N_21 
REMARK    8  A    between atoms: C_9  and  O_23 
REMARK    9  A    between atoms: C_10  and  O_24 
REMARK   10  A    between atoms: C_11  and  O_25 
REMARK   11  A    between atoms: C_12  and  O_26 
REMARK   12  A    between atoms: C_13  and  O_27 
REMARK   13  A    between atoms: C_14  and  O_30 
REMARK   14  A    between atoms: C_15  and  O_31 
REMARK   15  A    between atoms: C_16  and  O_30 
REMARK   16  A    between atoms: C_17  and  O_31 
ROOT
HETATM    1  C   UNK N   1      34.397  15.848   9.831  0.00  0.00     0.054 C 
HETATM    2  C   UNK N   1      35.243  15.266   8.690  0.00  0.00     0.107 C 
HETATM    3  C   UNK N   1      32.891  15.655   9.615  0.00  0.00     0.107 C 
HETATM    4  C   UNK N   1      34.785  15.833   7.335  0.00  0.00     0.172 C 
HETATM    5  C   UNK N   1      32.483  16.259   8.238  0.00  0.00     0.178 C 
HETATM    6  C   UNK N   1      33.270  15.591   7.083  0.00  0.00     0.186 C 
ENDROOT
BRANCH   5   7
HETATM    7  O   UNK N   1      31.085  16.398   7.986  0.00  0.00    -0.349 OA
BRANCH   7   8
HETATM    8  C   UNK N   1      30.629  17.662   7.532  0.00  0.00     0.285 C 
HETATM    9  C   UNK N   1      29.595  18.225   8.533  0.00  0.00     0.161 C 
HETATM   10  C   UNK N   1      28.354  17.313   8.557  0.00  0.00     0.176 C 
HETATM   11  C   UNK N   1      27.804  17.155   7.131  0.00  0.00     0.179 C 
HETATM   12  C   UNK N   1      28.946  16.656   6.223  0.00  0.00     0.173 C 
HETATM   13  O   UNK N   1      30.026  17.578   6.244  0.00  0.00    -0.350 OA
BRANCH   9  14
HETATM   14  N   UNK N   1      30.175  18.320   9.865  0.00  0.00    -0.420 N 
HETATM   15  H   UNK N   1      31.182  18.255  10.015  0.00  0.00     0.150 HD
HETATM   16  H   UNK N   1      29.560  18.454  10.668  0.00  0.00     0.150 HD
ENDBRANCH   9  14
BRANCH  10  17
HETATM   17  O   UNK N   1      27.370  17.840   9.397  0.00  0.00    -0.391 OA
HETATM   18  H   UNK N   1      26.886  18.639   9.136  0.00  0.00     0.210 HD
ENDBRANCH  10  17
BRANCH  11  19
HETATM   19  O   UNK N   1      27.325  18.384   6.662  0.00  0.00    -0.390 OA
HETATM   20  H   UNK N   1      27.458  19.307   6.394  0.00  0.00     0.210 HD
ENDBRANCH  11  19
BRANCH  12  21
HETATM   21  C   UNK N   1      28.487  16.504   4.775  0.00  0.00     0.145 C 
BRANCH  21  22
HETATM   22  N   UNK N   1      28.925  17.632   3.969  0.00  0.00    -0.428 N 
HETATM   23  H   UNK N   1      28.866  18.650   3.932  0.00  0.00     0.150 HD
HETATM   24  H   UNK N   1      29.472  17.294   3.178  0.00  0.00     0.150 HD
ENDBRANCH  21  22
ENDBRANCH  12  21
ENDBRANCH   7   8
ENDBRANCH   5   7
BRANCH   3  25
HETATM   25  N   UNK N   1      32.582  14.234   9.708  0.00  0.00    -0.423 N 
HETATM   26  H   UNK N   1      32.353  13.241   9.672  0.00  0.00     0.150 HD
HETATM   27  H   UNK N   1      32.721  14.218  10.719  0.00  0.00     0.150 HD
ENDBRANCH   3  25
BRANCH   6  28
HETATM   28  O   UNK N   1      32.903  16.178   5.839  0.00  0.00    -0.348 OA
BRANCH  28  29
HETATM   29  C   UNK N   1      32.230  15.243   5.003  0.00  0.00     0.292 C 
HETATM   30  C   UNK N   1      32.283  15.705   3.551  0.00  0.00     0.204 C 
HETATM   31  C   UNK N   1      33.689  15.289   3.235  0.00  0.00     0.182 C 
HETATM   32  C   UNK N   1      33.738  13.912   3.905  0.00  0.00     0.179 C 
HETATM   33  O   UNK N   1      32.895  13.985   5.044  0.00  0.00    -0.348 OA
BRANCH  30  34
HETATM   34  O   UNK N   1      31.371  14.964   2.787  0.00  0.00    -0.388 OA
HETATM   35  H   UNK N   1      30.500  15.067   2.375  0.00  0.00     0.210 HD
ENDBRANCH  30  34
BRANCH  31  36
HETATM   36  O   UNK N   1      33.984  15.282   1.869  0.00  0.00    -0.390 OA
HETATM   37  H   UNK N   1      34.896  15.202   1.545  0.00  0.00     0.210 HD
ENDBRANCH  31  36
BRANCH  32  38
HETATM   38  C   UNK N   1      33.233  12.768   3.023  0.00  0.00     0.198 C 
BRANCH  38  39
HETATM   39  O   UNK N   1      32.132  12.144   3.611  0.00  0.00    -0.398 OA
HETATM   40  H   UNK N   1      31.842  12.342   4.516  0.00  0.00     0.209 HD
ENDBRANCH  38  39
ENDBRANCH  32  38
ENDBRANCH  28  29
ENDBRANCH   6  28
BRANCH   4  41
HETATM   41  O   UNK N   1      35.561  15.276   6.318  0.00  0.00    -0.391 OA
HETATM   42  H   UNK N   1      35.879  14.359   6.330  0.00  0.00     0.210 HD
ENDBRANCH   4  41
BRANCH   2  43
HETATM   43  N   UNK N   1      35.168  13.812   8.692  0.00  0.00    -0.423 N 
HETATM   44  H   UNK N   1      35.038  12.801   8.743  0.00  0.00     0.150 HD
HETATM   45  H   UNK N   1      36.022  13.721   8.140  0.00  0.00     0.150 HD
ENDBRANCH   2  43
TORSDOF 16
ENDMDL
MODEL 7
REMARK VINA RESULT:      -5.5      2.474      4.171
REMARK  16 active torsions:
REMARK  status: ('A' for Active; 'I' for Inactive)
REMARK    1  A    between atoms: C_6  and  C_2 
REMARK    2  A    between atoms: N_18  and  C_2 
REMARK    3  A    between atoms: C_7  and  C_3 
REMARK    4  A    between atoms: O_22  and  C_3 
REMARK    5  A    between atoms: C_4  and  N_19 
REMARK    6  A    between atoms: C_5  and  N_20 
REMARK    7  A    between atoms: C_8  and  N_21 
REMARK    8  A    between atoms: C_9  and  O_23 
REMARK    9  A    between atoms: C_10  and  O_24 
REMARK   10  A    between atoms: C_11  and  O_25 
REMARK   11  A    between atoms: C_12  and  O_26 
REMARK   12  A    between atoms: C_13  and  O_27 
REMARK   13  A    between atoms: C_14  and  O_30 
REMARK   14  A    between atoms: C_15  and  O_31 
REMARK   15  A    between atoms: C_16  and  O_30 
REMARK   16  A    between atoms: C_17  and  O_31 
ROOT
HETATM    1  C   UNK N   1      32.277  13.874   4.256  0.00  0.00     0.054 C 
HETATM    2  C   UNK N   1      33.697  14.444   4.142  0.00  0.00     0.107 C 
HETATM    3  C   UNK N   1      31.317  14.808   5.004  0.00  0.00     0.107 C 
HETATM    4  C   UNK N   1      34.240  14.826   5.531  0.00  0.00     0.172 C 
HETATM    5  C   UNK N   1      31.909  15.148   6.404  0.00  0.00     0.178 C 
HETATM    6  C   UNK N   1      33.300  15.818   6.272  0.00  0.00     0.186 C 
ENDROOT
BRANCH   5   7
HETATM    7  O   UNK N   1      31.037  15.794   7.330  0.00  0.00    -0.349 OA
BRANCH   7   8
HETATM    8  C   UNK N   1      30.764  17.170   7.114  0.00  0.00     0.285 C 
HETATM    9  C   UNK N   1      30.762  17.912   8.470  0.00  0.00     0.161 C 
HETATM   10  C   UNK N   1      29.606  17.385   9.341  0.00  0.00     0.176 C 
HETATM   11  C   UNK N   1      28.283  17.509   8.572  0.00  0.00     0.179 C 
HETATM   12  C   UNK N   1      28.440  16.790   7.217  0.00  0.00     0.173 C 
HETATM   13  O   UNK N   1      29.505  17.368   6.477  0.00  0.00    -0.350 OA
BRANCH   9  14
HETATM   14  N   UNK N   1      32.033  17.727   9.154  0.00  0.00    -0.420 N 
HETATM   15  H   UNK N   1      32.167  18.021  10.121  0.00  0.00     0.150 HD
HETATM   16  H   UNK N   1      32.810  17.293   8.654  0.00  0.00     0.150 HD
ENDBRANCH   9  14
BRANCH  10  17
HETATM   17  O   UNK N   1      29.533  18.092  10.544  0.00  0.00    -0.391 OA
HETATM   18  H   UNK N   1      30.224  18.734  10.773  0.00  0.00     0.210 HD
ENDBRANCH  10  17
BRANCH  11  19
HETATM   19  O   UNK N   1      27.974  18.858   8.362  0.00  0.00    -0.390 OA
HETATM   20  H   UNK N   1      27.614  19.709   8.659  0.00  0.00     0.210 HD
ENDBRANCH  11  19
BRANCH  12  21
HETATM   21  C   UNK N   1      27.172  16.896   6.375  0.00  0.00     0.145 C 
BRANCH  21  22
HETATM   22  N   UNK N   1      26.126  16.031   6.896  0.00  0.00    -0.428 N 
HETATM   23  H   UNK N   1      25.738  15.700   7.779  0.00  0.00     0.150 HD
HETATM   24  H   UNK N   1      25.609  15.616   6.120  0.00  0.00     0.150 HD
ENDBRANCH  21  22
ENDBRANCH  12  21
ENDBRANCH   7   8
ENDBRANCH   5   7
BRANCH   3  25
HETATM   25  N   UNK N   1      31.097  15.999   4.193  0.00  0.00    -0.423 N 
HETATM   26  H   UNK N   1      31.034  16.866   3.659  0.00  0.00     0.150 HD
HETATM   27  H   UNK N   1      30.188  15.671   3.865  0.00  0.00     0.150 HD
ENDBRANCH   3  25
BRANCH   6  28
HETATM   28  O   UNK N   1      33.834  16.092   7.563  0.00  0.00    -0.348 OA
BRANCH  28  29
HETATM   29  C   UNK N   1      34.177  14.892   8.248  0.00  0.00     0.292 C 
HETATM   30  C   UNK N   1      35.652  14.913   8.634  0.00  0.00     0.204 C 
HETATM   31  C   UNK N   1      35.558  15.812   9.830  0.00  0.00     0.182 C 
HETATM   32  C   UNK N   1      34.300  15.259  10.507  0.00  0.00     0.179 C 
HETATM   33  O   UNK N   1      33.449  14.801   9.467  0.00  0.00    -0.348 OA
BRANCH  30  34
HETATM   34  O   UNK N   1      36.056  13.628   9.019  0.00  0.00    -0.388 OA
HETATM   35  H   UNK N   1      35.713  12.721   9.035  0.00  0.00     0.210 HD
ENDBRANCH  30  34
BRANCH  31  36
HETATM   36  O   UNK N   1      36.701  15.807  10.634  0.00  0.00    -0.390 OA
HETATM   37  H   UNK N   1      37.509  15.338  10.369  0.00  0.00     0.210 HD
ENDBRANCH  31  36
BRANCH  32  38
HETATM   38  C   UNK N   1      34.562  14.083  11.449  0.00  0.00     0.198 C 
BRANCH  38  39
HETATM   39  O   UNK N   1      35.117  14.529  12.650  0.00  0.00    -0.398 OA
HETATM   40  H   UNK N   1      34.769  14.263  13.516  0.00  0.00     0.209 HD
ENDBRANCH  38  39
ENDBRANCH  32  38
ENDBRANCH  28  29
ENDBRANCH   6  28
BRANCH   4  41
HETATM   41  O   UNK N   1      35.524  15.354   5.392  0.00  0.00    -0.391 OA
HETATM   42  H   UNK N   1      36.049  15.276   4.580  0.00  0.00     0.210 HD
ENDBRANCH   4  41
BRANCH   2  43
HETATM   43  N   UNK N   1      33.713  15.595   3.249  0.00  0.00    -0.423 N 
HETATM   44  H   UNK N   1      33.636  16.417   2.649  0.00  0.00     0.150 HD
HETATM   45  H   UNK N   1      34.680  15.425   2.971  0.00  0.00     0.150 HD
ENDBRANCH   2  43
TORSDOF 16
ENDMDL
MODEL 8
REMARK VINA RESULT:      -5.4      4.529      7.145
REMARK  16 active torsions:
REMARK  status: ('A' for Active; 'I' for Inactive)
REMARK    1  A    between atoms: C_6  and  C_2 
REMARK    2  A    between atoms: N_18  and  C_2 
REMARK    3  A    between atoms: C_7  and  C_3 
REMARK    4  A    between atoms: O_22  and  C_3 
REMARK    5  A    between atoms: C_4  and  N_19 
REMARK    6  A    between atoms: C_5  and  N_20 
REMARK    7  A    between atoms: C_8  and  N_21 
REMARK    8  A    between atoms: C_9  and  O_23 
REMARK    9  A    between atoms: C_10  and  O_24 
REMARK   10  A    between atoms: C_11  and  O_25 
REMARK   11  A    between atoms: C_12  and  O_26 
REMARK   12  A    between atoms: C_13  and  O_27 
REMARK   13  A    between atoms: C_14  and  O_30 
REMARK   14  A    between atoms: C_15  and  O_31 
REMARK   15  A    between atoms: C_16  and  O_30 
REMARK   16  A    between atoms: C_17  and  O_31 
ROOT
HETATM    1  C   UNK N   1      38.524  12.576   4.931  0.00  0.00     0.054 C 
HETATM    2  C   UNK N   1      39.086  12.122   6.285  0.00  0.00     0.107 C 
HETATM    3  C   UNK N   1      37.877  13.965   4.988  0.00  0.00     0.107 C 
HETATM    4  C   UNK N   1      38.002  12.201   7.374  0.00  0.00     0.172 C 
HETATM    5  C   UNK N   1      36.780  13.981   6.094  0.00  0.00     0.178 C 
HETATM    6  C   UNK N   1      37.380  13.621   7.478  0.00  0.00     0.186 C 
ENDROOT
BRANCH   5   7
HETATM    7  O   UNK N   1      35.905  15.107   6.115  0.00  0.00    -0.349 OA
BRANCH   7   8
HETATM    8  C   UNK N   1      34.527  14.854   6.341  0.00  0.00     0.285 C 
HETATM    9  C   UNK N   1      33.738  15.104   5.035  0.00  0.00     0.161 C 
HETATM   10  C   UNK N   1      33.837  16.593   4.653  0.00  0.00     0.176 C 
HETATM   11  C   UNK N   1      33.363  17.459   5.830  0.00  0.00     0.179 C 
HETATM   12  C   UNK N   1      34.177  17.066   7.079  0.00  0.00     0.173 C 
HETATM   13  O   UNK N   1      33.995  15.687   7.367  0.00  0.00    -0.350 OA
BRANCH   9  14
HETATM   14  N   UNK N   1      34.259  14.272   3.959  0.00  0.00    -0.420 N 
HETATM   15  H   UNK N   1      35.138  13.766   4.054  0.00  0.00     0.150 HD
HETATM   16  H   UNK N   1      33.732  14.196   3.089  0.00  0.00     0.150 HD
ENDBRANCH   9  14
BRANCH  10  17
HETATM   17  O   UNK N   1      33.069  16.862   3.517  0.00  0.00    -0.391 OA
HETATM   18  H   UNK N   1      33.147  16.295   2.733  0.00  0.00     0.210 HD
ENDBRANCH  10  17
BRANCH  11  19
HETATM   19  O   UNK N   1      31.999  17.248   6.064  0.00  0.00    -0.390 OA
HETATM   20  H   UNK N   1      31.078  17.552   6.080  0.00  0.00     0.210 HD
ENDBRANCH  11  19
BRANCH  12  21
HETATM   21  C   UNK N   1      33.741  17.863   8.306  0.00  0.00     0.145 C 
BRANCH  21  22
HETATM   22  N   UNK N   1      32.691  17.168   9.033  0.00  0.00    -0.428 N 
HETATM   23  H   UNK N   1      31.834  16.639   8.873  0.00  0.00     0.150 HD
HETATM   24  H   UNK N   1      32.870  17.231  10.035  0.00  0.00     0.150 HD
ENDBRANCH  21  22
ENDBRANCH  12  21
ENDBRANCH   7   8
ENDBRANCH   5   7
BRANCH   3  25
HETATM   25  N   UNK N   1      38.918  14.957   5.227  0.00  0.00    -0.423 N 
HETATM   26  H   UNK N   1      39.573  15.722   5.386  0.00  0.00     0.150 HD
HETATM   27  H   UNK N   1      39.644  14.247   5.318  0.00  0.00     0.150 HD
ENDBRANCH   3  25
BRANCH   6  28
HETATM   28  O   UNK N   1      36.356  13.614   8.466  0.00  0.00    -0.348 OA
BRANCH  28  29
HETATM   29  C   UNK N   1      36.815  14.172   9.693  0.00  0.00     0.292 C 
HETATM   30  C   UNK N   1      35.973  15.387  10.064  0.00  0.00     0.204 C 
HETATM   31  C   UNK N   1      34.770  14.669  10.602  0.00  0.00     0.182 C 
HETATM   32  C   UNK N   1      35.440  13.562  11.422  0.00  0.00     0.179 C 
HETATM   33  O   UNK N   1      36.646  13.233  10.750  0.00  0.00    -0.348 OA
BRANCH  30  34
HETATM   34  O   UNK N   1      36.608  16.107  11.083  0.00  0.00    -0.388 OA
HETATM   35  H   UNK N   1      36.555  16.972  11.519  0.00  0.00     0.210 HD
ENDBRANCH  30  34
BRANCH  31  36
HETATM   36  O   UNK N   1      33.901  15.487  11.330  0.00  0.00    -0.390 OA
HETATM   37  H   UNK N   1      34.205  16.308  11.748  0.00  0.00     0.210 HD
ENDBRANCH  31  36
BRANCH  32  38
HETATM   38  C   UNK N   1      35.799  13.971  12.852  0.00  0.00     0.198 C 
BRANCH  38  39
HETATM   39  O   UNK N   1      37.165  13.800  13.083  0.00  0.00    -0.398 OA
HETATM   40  H   UNK N   1      37.822  13.823  12.369  0.00  0.00     0.209 HD
ENDBRANCH  38  39
ENDBRANCH  32  38
ENDBRANCH  28  29
ENDBRANCH   6  28
BRANCH   4  41
HETATM   41  O   UNK N   1      38.546  11.797   8.593  0.00  0.00    -0.391 OA
HETATM   42  H   UNK N   1      39.112  12.364   9.140  0.00  0.00     0.210 HD
ENDBRANCH   4  41
BRANCH   2  43
HETATM   43  N   UNK N   1      40.243  12.928   6.651  0.00  0.00    -0.423 N 
HETATM   44  H   UNK N   1      40.995  13.565   6.916  0.00  0.00     0.150 HD
HETATM   45  H   UNK N   1      40.882  12.137   6.561  0.00  0.00     0.150 HD
ENDBRANCH   2  43
TORSDOF 16
ENDMDL
MODEL 9
REMARK VINA RESULT:      -5.3      5.529      7.978
REMARK  16 active torsions:
REMARK  status: ('A' for Active; 'I' for Inactive)
REMARK    1  A    between atoms: C_6  and  C_2 
REMARK    2  A    between atoms: N_18  and  C_2 
REMARK    3  A    between atoms: C_7  and  C_3 
REMARK    4  A    between atoms: O_22  and  C_3 
REMARK    5  A    between atoms: C_4  and  N_19 
REMARK    6  A    between atoms: C_5  and  N_20 
REMARK    7  A    between atoms: C_8  and  N_21 
REMARK    8  A    between atoms: C_9  and  O_23 
REMARK    9  A    between atoms: C_10  and  O_24 
REMARK   10  A    between atoms: C_11  and  O_25 
REMARK   11  A    between atoms: C_12  and  O_26 
REMARK   12  A    between atoms: C_13  and  O_27 
REMARK   13  A    between atoms: C_14  and  O_30 
REMARK   14  A    between atoms: C_15  and  O_31 
REMARK   15  A    between atoms: C_16  and  O_30 
REMARK   16  A    between atoms: C_17  and  O_31 
ROOT
HETATM    1  C   UNK N   1      23.237  13.185   6.131  0.00  0.00     0.054 C 
HETATM    2  C   UNK N   1      24.578  13.838   6.491  0.00  0.00     0.107 C 
HETATM    3  C   UNK N   1      22.679  13.668   4.785  0.00  0.00     0.107 C 
HETATM    4  C   UNK N   1      24.463  15.371   6.440  0.00  0.00     0.172 C 
HETATM    5  C   UNK N   1      22.572  15.222   4.798  0.00  0.00     0.178 C 
HETATM    6  C   UNK N   1      23.953  15.874   5.061  0.00  0.00     0.186 C 
ENDROOT
BRANCH   5   7
HETATM    7  O   UNK N   1      21.838  15.824   3.732  0.00  0.00    -0.349 OA
BRANCH   7   8
HETATM    8  C   UNK N   1      20.490  16.180   3.992  0.00  0.00     0.285 C 
HETATM    9  C   UNK N   1      19.630  15.880   2.743  0.00  0.00     0.161 C 
HETATM   10  C   UNK N   1      20.087  16.778   1.578  0.00  0.00     0.176 C 
HETATM   11  C   UNK N   1      20.041  18.251   2.014  0.00  0.00     0.179 C 
HETATM   12  C   UNK N   1      20.876  18.401   3.301  0.00  0.00     0.173 C 
HETATM   13  O   UNK N   1      20.358  17.560   4.322  0.00  0.00    -0.350 OA
BRANCH   9  14
HETATM   14  N   UNK N   1      19.744  14.477   2.371  0.00  0.00    -0.420 N 
HETATM   15  H   UNK N   1      18.996  13.812   2.562  0.00  0.00     0.150 HD
HETATM   16  H   UNK N   1      20.593  14.151   1.909  0.00  0.00     0.150 HD
ENDBRANCH   9  14
BRANCH  10  17
HETATM   17  O   UNK N   1      19.276  16.583   0.456  0.00  0.00    -0.391 OA
HETATM   18  H   UNK N   1      18.581  15.906   0.472  0.00  0.00     0.210 HD
ENDBRANCH  10  17
BRANCH  11  19
HETATM   19  O   UNK N   1      18.718  18.639   2.257  0.00  0.00    -0.390 OA
HETATM   20  H   UNK N   1      17.919  19.139   2.029  0.00  0.00     0.210 HD
ENDBRANCH  11  19
BRANCH  12  21
HETATM   21  C   UNK N   1      20.854  19.836   3.821  0.00  0.00     0.145 C 
BRANCH  21  22
HETATM   22  N   UNK N   1      20.761  20.785   2.724  0.00  0.00    -0.428 N 
HETATM   23  H   UNK N   1      20.085  21.382   2.248  0.00  0.00     0.150 HD
HETATM   24  H   UNK N   1      21.675  20.888   2.282  0.00  0.00     0.150 HD
ENDBRANCH  21  22
ENDBRANCH  12  21
ENDBRANCH   7   8
ENDBRANCH   5   7
BRANCH   3  25
HETATM   25  N   UNK N   1      23.545  13.183   3.718  0.00  0.00    -0.423 N 
HETATM   26  H   UNK N   1      24.171  12.762   3.032  0.00  0.00     0.150 HD
HETATM   27  H   UNK N   1      23.344  13.984   3.121  0.00  0.00     0.150 HD
ENDBRANCH   3  25
BRANCH   6  28
HETATM   28  O   UNK N   1      23.825  17.291   5.096  0.00  0.00    -0.348 OA
BRANCH  28  29
HETATM   29  C   UNK N   1      24.551  17.904   4.036  0.00  0.00     0.292 C 
HETATM   30  C   UNK N   1      24.522  19.421   4.189  0.00  0.00     0.204 C 
HETATM   31  C   UNK N   1      25.565  19.558   5.258  0.00  0.00     0.182 C 
HETATM   32  C   UNK N   1      26.623  18.569   4.755  0.00  0.00     0.179 C 
HETATM   33  O   UNK N   1      25.921  17.524   4.100  0.00  0.00    -0.348 OA
BRANCH  30  34
HETATM   34  O   UNK N   1      24.958  20.022   3.001  0.00  0.00    -0.388 OA
HETATM   35  H   UNK N   1      25.729  20.497   2.655  0.00  0.00     0.210 HD
ENDBRANCH  30  34
BRANCH  31  36
HETATM   36  O   UNK N   1      26.028  20.865   5.434  0.00  0.00    -0.390 OA
HETATM   37  H   UNK N   1      26.799  21.062   5.989  0.00  0.00     0.210 HD
ENDBRANCH  31  36
BRANCH  32  38
HETATM   38  C   UNK N   1      27.613  19.168   3.754  0.00  0.00     0.198 C 
BRANCH  38  39
HETATM   39  O   UNK N   1      28.576  19.934   4.414  0.00  0.00    -0.398 OA
HETATM   40  H   UNK N   1      28.866  19.739   5.319  0.00  0.00     0.209 HD
ENDBRANCH  38  39
ENDBRANCH  32  38
ENDBRANCH  28  29
ENDBRANCH   6  28
BRANCH   4  41
HETATM   41  O   UNK N   1      25.700  15.935   6.758  0.00  0.00    -0.391 OA
HETATM   42  H   UNK N   1      25.995  16.798   6.428  0.00  0.00     0.210 HD
ENDBRANCH   4  41
BRANCH   2  43
HETATM   43  N   UNK N   1      25.628  13.370   5.596  0.00  0.00    -0.423 N 
HETATM   44  H   UNK N   1      26.341  13.113   4.913  0.00  0.00     0.150 HD
HETATM   45  H   UNK N   1      25.876  12.597   6.215  0.00  0.00     0.150 HD
ENDBRANCH   2  43
TORSDOF 16
ENDMDL
