MODEL 1
REMARK VINA RESULT:      -2.9      0.000      0.000
REMARK  0 active torsions:
REMARK  status: ('A' for Active; 'I' for Inactive)
REMARK       I    between atoms: N_1  and  C_2 
REMARK       I    between atoms: C_2  and  N_3 
ROOT
HETATM    1  N   UNK N   1      18.325  19.588  11.123  0.00  0.00    -0.352 N 
HETATM    2  C   UNK N   1      19.021  19.012  10.123  0.00  0.00     0.311 C 
HETATM    3  N   UNK N   1      18.451  18.049   9.375  0.00  0.00    -0.352 N 
HETATM    4  O   UNK N   1      20.166  19.364   9.897  0.00  0.00    -0.248 OA
HETATM    5  H   UNK N   1      17.400  19.304  11.306  0.00  0.00     0.160 HD
HETATM    6  H   UNK N   1      18.742  20.291  11.670  0.00  0.00     0.160 HD
HETATM    7  H   UNK N   1      18.960  17.629   8.644  0.00  0.00     0.160 HD
HETATM    8  H   UNK N   1      17.526  17.765   9.558  0.00  0.00     0.160 HD
ENDROOT
TORSDOF 0
ENDMDL
MODEL 2
REMARK VINA RESULT:      -2.9      9.241      9.394
REMARK  0 active torsions:
REMARK  status: ('A' for Active; 'I' for Inactive)
REMARK       I    between atoms: N_1  and  C_2 
REMARK       I    between atoms: C_2  and  N_3 
ROOT
HETATM    1  N   UNK N   1      20.356  19.187   1.332  0.00  0.00    -0.352 N 
HETATM    2  C   UNK N   1      20.834  20.435   1.170  0.00  0.00     0.311 C 
HETATM    3  N   UNK N   1      20.950  21.255   2.232  0.00  0.00    -0.352 N 
HETATM    4  O   UNK N   1      21.161  20.823   0.062  0.00  0.00    -0.248 OA
HETATM    5  H   UNK N   1      20.091  18.874   2.228  0.00  0.00     0.160 HD
HETATM    6  H   UNK N   1      20.271  18.588   0.556  0.00  0.00     0.160 HD
HETATM    7  H   UNK N   1      21.300  22.167   2.113  0.00  0.00     0.160 HD
HETATM    8  H   UNK N   1      20.685  20.941   3.127  0.00  0.00     0.160 HD
ENDROOT
TORSDOF 0
ENDMDL
MODEL 3
REMARK VINA RESULT:      -2.8     15.708     15.763
REMARK  0 active torsions:
REMARK  status: ('A' for Active; 'I' for Inactive)
REMARK       I    between atoms: N_1  and  C_2 
REMARK       I    between atoms: C_2  and  N_3 
ROOT
HETATM    1  N   UNK N   1      34.098  17.796   7.172  0.00  0.00    -0.352 N 
HETATM    2  C   UNK N   1      34.569  18.166   8.378  0.00  0.00     0.311 C 
HETATM    3  N   UNK N   1      34.278  17.432   9.468  0.00  0.00    -0.352 N 
HETATM    4  O   UNK N   1      35.260  19.165   8.482  0.00  0.00    -0.248 OA
HETATM    5  H   UNK N   1      33.540  16.989   7.087  0.00  0.00     0.160 HD
HETATM    6  H   UNK N   1      34.311  18.333   6.375  0.00  0.00     0.160 HD
HETATM    7  H   UNK N   1      34.623  17.702  10.349  0.00  0.00     0.160 HD
HETATM    8  H   UNK N   1      33.720  16.625   9.384  0.00  0.00     0.160 HD
ENDROOT
TORSDOF 0
ENDMDL
MODEL 4
REMARK VINA RESULT:      -2.8      8.694      8.864
REMARK  0 active torsions:
REMARK  status: ('A' for Active; 'I' for Inactive)
REMARK       I    between atoms: N_1  and  C_2 
REMARK       I    between atoms: C_2  and  N_3 
ROOT
HETATM    1  N   UNK N   1      22.645  11.456  11.388  0.00  0.00    -0.352 N 
HETATM    2  C   UNK N   1      23.722  11.955  12.022  0.00  0.00     0.311 C 
HETATM    3  N   UNK N   1      24.809  12.321  11.316  0.00  0.00    -0.352 N 
HETATM    4  O   UNK N   1      23.715  12.075  13.235  0.00  0.00    -0.248 OA
HETATM    5  H   UNK N   1      22.651  11.359  10.408  0.00  0.00     0.160 HD
HETATM    6  H   UNK N   1      21.851  11.188  11.904  0.00  0.00     0.160 HD
HETATM    7  H   UNK N   1      25.596  12.686  11.780  0.00  0.00     0.160 HD
HETATM    8  H   UNK N   1      24.815  12.224  10.336  0.00  0.00     0.160 HD
ENDROOT
TORSDOF 0
ENDMDL
MODEL 5
REMARK VINA RESULT:      -2.8     26.105     26.188
REMARK  0 active torsions:
REMARK  status: ('A' for Active; 'I' for Inactive)
REMARK       I    between atoms: N_1  and  C_2 
REMARK       I    between atoms: C_2  and  N_3 
ROOT
HETATM    1  N   UNK N   1      45.485  22.260   4.181  0.00  0.00    -0.352 N 
HETATM    2  C   UNK N   1      44.147  22.381   4.088  0.00  0.00     0.311 C 
HETATM    3  N   UNK N   1      43.584  23.602   4.036  0.00  0.00    -0.352 N 
HETATM    4  O   UNK N   1      43.447  21.384   4.052  0.00  0.00    -0.248 OA
HETATM    5  H   UNK N   1      46.051  23.065   4.210  0.00  0.00     0.160 HD
HETATM    6  H   UNK N   1      45.897  21.367   4.219  0.00  0.00     0.160 HD
HETATM    7  H   UNK N   1      42.606  23.690   3.968  0.00  0.00     0.160 HD
HETATM    8  H   UNK N   1      44.150  24.408   4.065  0.00  0.00     0.160 HD
ENDROOT
TORSDOF 0
ENDMDL
MODEL 6
REMARK VINA RESULT:      -2.7     16.729     16.811
REMARK  0 active torsions:
REMARK  status: ('A' for Active; 'I' for Inactive)
REMARK       I    between atoms: N_1  and  C_2 
REMARK       I    between atoms: C_2  and  N_3 
ROOT
HETATM    1  N   UNK N   1      34.317  15.792  10.902  0.00  0.00    -0.352 N 
HETATM    2  C   UNK N   1      35.518  16.386  10.770  0.00  0.00     0.311 C 
HETATM    3  N   UNK N   1      36.636  15.733  11.140  0.00  0.00    -0.352 N 
HETATM    4  O   UNK N   1      35.593  17.514  10.315  0.00  0.00    -0.248 OA
HETATM    5  H   UNK N   1      34.257  14.880  11.270  0.00  0.00     0.160 HD
HETATM    6  H   UNK N   1      33.500  16.269  10.632  0.00  0.00     0.160 HD
HETATM    7  H   UNK N   1      37.514  16.167  11.043  0.00  0.00     0.160 HD
HETATM    8  H   UNK N   1      36.576  14.822  11.507  0.00  0.00     0.160 HD
ENDROOT
TORSDOF 0
ENDMDL
MODEL 7
REMARK VINA RESULT:      -2.5     10.065     10.191
REMARK  0 active torsions:
REMARK  status: ('A' for Active; 'I' for Inactive)
REMARK       I    between atoms: N_1  and  C_2 
REMARK       I    between atoms: C_2  and  N_3 
ROOT
HETATM    1  N   UNK N   1      20.083  18.097   0.457  0.00  0.00    -0.352 N 
HETATM    2  C   UNK N   1      19.739  16.810   0.267  0.00  0.00     0.311 C 
HETATM    3  N   UNK N   1      18.484  16.496  -0.108  0.00  0.00    -0.352 N 
HETATM    4  O   UNK N   1      20.563  15.927   0.435  0.00  0.00    -0.248 OA
HETATM    5  H   UNK N   1      19.416  18.810   0.322  0.00  0.00     0.160 HD
HETATM    6  H   UNK N   1      20.999  18.326   0.732  0.00  0.00     0.160 HD
HETATM    7  H   UNK N   1      18.233  15.555  -0.247  0.00  0.00     0.160 HD
HETATM    8  H   UNK N   1      17.818  17.209  -0.244  0.00  0.00     0.160 HD
ENDROOT
TORSDOF 0
ENDMDL
MODEL 8
REMARK VINA RESULT:      -2.4     32.786     32.812
REMARK  0 active torsions:
REMARK  status: ('A' for Active; 'I' for Inactive)
REMARK       I    between atoms: N_1  and  C_2 
REMARK       I    between atoms: C_2  and  N_3 
ROOT
HETATM    1  N   UNK N   1      51.452  24.078  11.949  0.00  0.00    -0.352 N 
HETATM    2  C   UNK N   1      51.441  22.802  12.378  0.00  0.00     0.311 C 
HETATM    3  N   UNK N   1      52.378  21.938  11.946  0.00  0.00    -0.352 N 
HETATM    4  O   UNK N   1      50.582  22.429  13.158  0.00  0.00    -0.248 OA
HETATM    5  H   UNK N   1      52.146  24.380  11.318  0.00  0.00     0.160 HD
HETATM    6  H   UNK N   1      50.766  24.709  12.265  0.00  0.00     0.160 HD
HETATM    7  H   UNK N   1      52.370  21.006  12.259  0.00  0.00     0.160 HD
HETATM    8  H   UNK N   1      53.072  22.240  11.315  0.00  0.00     0.160 HD
ENDROOT
TORSDOF 0
ENDMDL
MODEL 9
REMARK VINA RESULT:      -2.4     10.130     10.221
REMARK  0 active torsions:
REMARK  status: ('A' for Active; 'I' for Inactive)
REMARK       I    between atoms: N_1  and  C_2 
REMARK       I    between atoms: C_2  and  N_3 
ROOT
HETATM    1  N   UNK N   1      27.690  18.477   9.106  0.00  0.00    -0.352 N 
HETATM    2  C   UNK N   1      29.031  18.408   9.004  0.00  0.00     0.311 C 
HETATM    3  N   UNK N   1      29.802  18.644  10.082  0.00  0.00    -0.352 N 
HETATM    4  O   UNK N   1      29.547  18.131   7.935  0.00  0.00    -0.248 OA
HETATM    5  H   UNK N   1      27.273  18.701   9.970  0.00  0.00     0.160 HD
HETATM    6  H   UNK N   1      27.127  18.304   8.318  0.00  0.00     0.160 HD
HETATM    7  H   UNK N   1      30.782  18.594  10.007  0.00  0.00     0.160 HD
HETATM    8  H   UNK N   1      29.385  18.868  10.946  0.00  0.00     0.160 HD
ENDROOT
TORSDOF 0
ENDMDL
