REMARK  21 active torsions:
REMARK  status: ('A' for Active; 'I' for Inactive)
REMARK    1  A    between atoms: N_9  and  C_10 
REMARK    2  A    between atoms: C_10  and  C_11 
REMARK    3  A    between atoms: C_11  and  O_12 
REMARK    4  A    between atoms: C_11  and  C_13 
REMARK    5  A    between atoms: C_13  and  O_14 
REMARK    6  A    between atoms: C_13  and  C_15 
REMARK    7  A    between atoms: C_15  and  O_16 
REMARK    8  A    between atoms: C_15  and  C_17 
REMARK    9  A    between atoms: C_17  and  O_18 
REMARK   10  A    between atoms: P_19  and  O_18 
REMARK   11  A    between atoms: P_19  and  O_20 
REMARK   12  A    between atoms: P_19  and  O_22 
REMARK   13  A    between atoms: P_23  and  O_22 
REMARK   14  A    between atoms: P_23  and  O_24 
REMARK   15  A    between atoms: P_23  and  O_26 
REMARK   16  A    between atoms: O_26  and  C_27 
REMARK   17  A    between atoms: C_28  and  C_27 
REMARK   18  A    between atoms: C_30  and  N_35 
REMARK   19  A    between atoms: C_31  and  O_32 
REMARK   20  A    between atoms: C_33  and  O_34 
REMARK   21  A    between atoms: C_46  and  N_47 
ROOT
HETATM    1  P   UNK N   1       4.641  -0.283   0.172  0.00  0.00     0.401 P 
HETATM    2  O   UNK N   1       3.371   0.592   0.162  0.00  0.00    -0.631 OA
ENDROOT
BRANCH   1   3
HETATM    3  O   UNK N   1       4.404  -1.846  -0.605  0.00  0.00    -0.294 OA
BRANCH   3   4
HETATM    4  C   UNK N   1       3.309  -1.811  -1.474  0.00  0.00     0.215 C 
BRANCH   4   5
HETATM    5  C   UNK N   1       1.978  -2.111  -0.770  0.00  0.00     0.173 C 
BRANCH   5   6
HETATM    6  C   UNK N   1       1.280  -0.804  -0.387  0.00  0.00     0.179 C 
BRANCH   6   7
HETATM    7  C   UNK N   1      -0.180  -0.964  -0.119  0.00  0.00     0.167 C 
BRANCH   7   8
HETATM    8  C   UNK N   1      -0.552  -1.804   1.114  0.00  0.00     0.165 C 
BRANCH   8   9
HETATM    9  N   UNK N   1      -1.798  -2.492   0.786  0.00  0.00    -0.327 N 
HETATM   10  C   UNK N   1      -2.925  -1.771   0.485  0.00  0.00     0.063 A 
HETATM   11  C   UNK N   1      -4.039  -2.427  -0.070  0.00  0.00     0.060 A 
HETATM   12  C   UNK N   1      -2.950  -0.371   0.625  0.00  0.00     0.039 A 
HETATM   13  C   UNK N   1      -5.138  -1.681  -0.508  0.00  0.00     0.039 A 
HETATM   14  N   UNK N   1      -3.996  -3.773  -0.267  0.00  0.00    -0.347 N 
HETATM   15  C   UNK N   1      -5.137  -0.282  -0.396  0.00  0.00    -0.054 A 
HETATM   16  C   UNK N   1      -6.296   0.490  -0.927  0.00  0.00     0.049 C 
HETATM   17  C   UNK N   1      -4.039   0.374   0.187  0.00  0.00    -0.054 A 
HETATM   18  C   UNK N   1      -3.991   1.860   0.316  0.00  0.00     0.049 C 
HETATM   19  C   UNK N   1      -2.883  -4.490   0.047  0.00  0.00     0.146 A 
ATOM     20  HN  UNK N   1      -4.809  -4.250  -0.655  1.00  0.00     0.166 HD
HETATM   21  C   UNK N   1      -2.798  -5.863  -0.218  0.00  0.00     0.280 A 
HETATM   22  C   UNK N   1      -1.759  -3.841   0.585  0.00  0.00     0.145 A 
HETATM   23  N   UNK N   1      -1.640  -6.540   0.059  0.00  0.00    -0.273 N 
HETATM   24  O   UNK N   1      -3.740  -6.454  -0.716  0.00  0.00    -0.265 OA
HETATM   25  C   UNK N   1      -0.555  -5.890   0.587  0.00  0.00     0.328 A 
HETATM   26  H   UNK N   1      -1.587  -7.506  -0.124  0.00  0.00     0.173 HD
HETATM   27  N   UNK N   1      -0.624  -4.547   0.839  0.00  0.00    -0.292 N 
HETATM   28  O   UNK N   1       0.469  -6.501   0.820  0.00  0.00    -0.247 OA
ATOM     29  HN  UNK N   1       0.189  -4.067   1.224  1.00  0.00     0.172 HD
ENDBRANCH   8   9
ENDBRANCH   7   8
BRANCH   7  30
HETATM   30  O   UNK N   1      -0.785  -1.432  -1.295  0.00  0.00    -0.391 OA
HETATM   31  H   UNK N   1      -1.275  -1.231  -2.108  0.00  0.00     0.210 HD
ENDBRANCH   7  30
ENDBRANCH   6   7
BRANCH   6  32
HETATM   32  O   UNK N   1       1.382   0.105  -1.446  0.00  0.00    -0.390 OA
HETATM   33  H   UNK N   1       1.962   0.359  -2.180  0.00  0.00     0.210 HD
ENDBRANCH   6  32
ENDBRANCH   5   6
BRANCH   5  34
HETATM   34  O   UNK N   1       2.168  -2.930   0.351  0.00  0.00    -0.391 OA
HETATM   35  H   UNK N   1       1.742  -3.327   1.127  0.00  0.00     0.210 HD
ENDBRANCH   5  34
ENDBRANCH   4   5
ENDBRANCH   3   4
ENDBRANCH   1   3
BRANCH   1  36
HETATM   36  O   UNK N   1       4.958  -0.522   1.860  0.00  0.00    -0.307 OA
HETATM   37  H   UNK N   1       4.930  -0.742   2.804  0.00  0.00     0.222 HD
ENDBRANCH   1  36
BRANCH   1  38
HETATM   38  O   UNK N   1       5.834   0.729  -0.573  0.00  0.00    -0.195 OA
BRANCH  38  39
HETATM   39  P   UNK N   1       7.316  -0.145  -0.476  0.00  0.00     0.401 P 
HETATM   40  O   UNK N   1       8.424   0.935  -0.400  0.00  0.00    -0.631 OA
BRANCH  39  41
HETATM   41  O   UNK N   1       7.530  -1.043  -1.946  0.00  0.00    -0.307 OA
HETATM   42  H   UNK N   1       7.155  -1.398  -2.767  0.00  0.00     0.222 HD
ENDBRANCH  39  41
BRANCH  39  43
HETATM   43  O   UNK N   1       7.372  -1.096   0.993  0.00  0.00    -0.294 OA
BRANCH  43  44
HETATM   44  C   UNK N   1       8.370  -2.052   0.842  0.00  0.00     0.215 C 
BRANCH  44  45
HETATM   45  C   UNK N   1       7.883  -3.222  -0.003  0.00  0.00     0.180 C 
HETATM   46  O   UNK N   1       8.691  -3.326  -1.163  0.00  0.00    -0.353 OA
HETATM   47  C   UNK N   1       9.710  -4.237  -0.838  0.00  0.00     0.262 C 
HETATM   48  C   UNK N   1       9.031  -5.265   0.052  0.00  0.00     0.198 C 
HETATM   49  C   UNK N   1       7.982  -4.506   0.793  0.00  0.00     0.182 C 
BRANCH  47  50
HETATM   50  N   UNK N   1      10.884  -3.544  -0.262  0.00  0.00    -0.297 N 
HETATM   51  C   UNK N   1      11.928  -4.140   0.374  0.00  0.00     0.188 A 
HETATM   52  N   UNK N   1      12.890  -3.239   0.718  0.00  0.00    -0.346 N 
HETATM   53  C   UNK N   1      12.430  -2.065   0.254  0.00  0.00     0.122 A 
ATOM     54  HN  UNK N   1      13.762  -3.415   1.216  1.00  0.00     0.167 HD
HETATM   55  C   UNK N   1      11.232  -2.243  -0.336  0.00  0.00     0.142 A 
HETATM   56  C   UNK N   1      13.017  -0.809   0.287  0.00  0.00     0.131 A 
HETATM   57  N   UNK N   1      10.564  -1.224  -0.930  0.00  0.00    -0.336 N 
HETATM   58  C   UNK N   1      11.130   0.025  -0.901  0.00  0.00     0.183 A 
ATOM     59  HN  UNK N   1       9.665  -1.381  -1.386  1.00  0.00     0.168 HD
HETATM   60  N   UNK N   1      12.345   0.227  -0.295  0.00  0.00    -0.337 N 
ATOM     61  HN  UNK N   1      12.751   1.163  -0.280  1.00  0.00     0.168 HD
BRANCH  56  62
HETATM   62  N   UNK N   1      14.278  -0.604   0.880  0.00  0.00    -0.383 N 
HETATM   63  H   UNK N   1      14.843  -1.295   1.295  0.00  0.00     0.157 HD
HETATM   64  H   UNK N   1      14.627   0.317   0.880  0.00  0.00     0.157 HD
ENDBRANCH  56  62
ENDBRANCH  47  50
BRANCH  48  65
HETATM   65  O   UNK N   1       9.885  -5.967   0.901  0.00  0.00    -0.388 OA
HETATM   66  H   UNK N   1       9.760  -6.726   1.492  0.00  0.00     0.210 HD
ENDBRANCH  48  65
BRANCH  49  67
HETATM   67  O   UNK N   1       6.778  -5.207   0.698  0.00  0.00    -0.390 OA
HETATM   68  H   UNK N   1       5.938  -4.726   0.632  0.00  0.00     0.210 HD
ENDBRANCH  49  67
ENDBRANCH  44  45
ENDBRANCH  43  44
ENDBRANCH  39  43
ENDBRANCH  38  39
ENDBRANCH   1  38
TORSDOF 21
