REMARK  1 active torsions:
REMARK  status: ('A' for Active; 'I' for Inactive)
REMARK    1  A    between atoms: O_1  and  C_2 
ROOT
HETATM    1  C   UNK N   1       0.701   1.695   0.000  0.00  0.00     0.065 A 
HETATM    2  C   UNK N   1       1.910   0.994   0.000  0.00  0.00     0.036 A 
HETATM    3  C   UNK N   1       1.904  -0.403  -0.000  0.00  0.00     0.003 A 
HETATM    4  C   UNK N   1       0.690  -1.096  -0.000  0.00  0.00     0.000 A 
HETATM    5  C   UNK N   1      -0.519  -0.394   0.000  0.00  0.00     0.003 A 
HETATM    6  C   UNK N   1      -0.514   1.004   0.000  0.00  0.00     0.036 A 
ENDROOT
BRANCH   1   7
HETATM    7  O   UNK N   1       0.706   3.037  -0.000  0.00  0.00    -0.361 OA
HETATM    8  H   UNK N   1       1.520   3.503  -0.000  0.00  0.00     0.217 HD
ENDBRANCH   1   7
TORSDOF 1
