MODEL 1
REMARK VINA RESULT:      -5.3      0.000      0.000
REMARK  2 active torsions:
REMARK  status: ('A' for Active; 'I' for Inactive)
REMARK    1  A    between atoms: O_1  and  C_2 
REMARK    2  A    between atoms: C_2  and  C_4 
ROOT
HETATM    1  C   UNK N   1      34.411  17.167   9.075  0.00  0.00     0.188 A 
HETATM    2  N   UNK N   1      35.163  16.955  10.186  0.00  0.00    -0.289 N 
ATOM      3  HN  UNK N   1      35.942  17.579  10.397  1.00  0.00     0.172 HD
HETATM    4  C   UNK N   1      34.884  15.911  11.021  0.00  0.00     0.330 A 
HETATM    5  O   UNK N   1      35.563  15.728  12.014  0.00  0.00    -0.246 OA
HETATM    6  N   UNK N   1      33.841  15.073  10.740  0.00  0.00    -0.260 N 
HETATM    7  C   UNK N   1      33.084  15.287   9.622  0.00  0.00     0.330 A 
HETATM    8  O   UNK N   1      32.154  14.544   9.365  0.00  0.00    -0.246 OA
HETATM    9  N   UNK N   1      33.372  16.336   8.791  0.00  0.00    -0.289 N 
HETATM   10  H   UNK N   1      33.637  14.320  11.340  0.00  0.00     0.175 HD
HETATM   11  H   UNK N   1      32.827  16.490   7.987  0.00  0.00     0.172 HD
ENDROOT
BRANCH   1  12
HETATM   12  C   UNK N   1      34.720  18.295   8.182  0.00  0.00     0.212 C 
HETATM   13  O   UNK N   1      34.376  18.261   7.011  0.00  0.00    -0.644 OA
BRANCH  12  14
HETATM   14  O   UNK N   1      35.384  19.369   8.649  0.00  0.00    -0.771 OA
HETATM   15  H   UNK N   1      34.910  20.108   8.976  0.00  0.00     0.168 HD
ENDBRANCH  12  14
ENDBRANCH   1  12
TORSDOF 2
ENDMDL
MODEL 2
REMARK VINA RESULT:      -5.2      0.062      2.562
REMARK  2 active torsions:
REMARK  status: ('A' for Active; 'I' for Inactive)
REMARK    1  A    between atoms: O_1  and  C_2 
REMARK    2  A    between atoms: C_2  and  C_4 
ROOT
HETATM    1  C   UNK N   1      34.422  17.160   9.071  0.00  0.00     0.188 A 
HETATM    2  N   UNK N   1      33.381  16.333   8.796  0.00  0.00    -0.289 N 
ATOM      3  HN  UNK N   1      32.813  16.492   7.963  1.00  0.00     0.172 HD
HETATM    4  C   UNK N   1      33.090  15.288   9.627  0.00  0.00     0.330 A 
HETATM    5  O   UNK N   1      32.156  14.551   9.373  0.00  0.00    -0.246 OA
HETATM    6  N   UNK N   1      33.849  15.072  10.743  0.00  0.00    -0.260 N 
HETATM    7  C   UNK N   1      34.897  15.906  11.019  0.00  0.00     0.330 A 
HETATM    8  O   UNK N   1      35.578  15.720  12.011  0.00  0.00    -0.246 OA
HETATM    9  N   UNK N   1      35.180  16.950  10.180  0.00  0.00    -0.289 N 
HETATM   10  H   UNK N   1      33.643  14.320  11.343  0.00  0.00     0.175 HD
HETATM   11  H   UNK N   1      35.934  17.549  10.380  0.00  0.00     0.172 HD
ENDROOT
BRANCH   1  12
HETATM   12  C   UNK N   1      34.726  18.283   8.170  0.00  0.00     0.212 C 
HETATM   13  O   UNK N   1      35.295  19.274   8.598  0.00  0.00    -0.644 OA
BRANCH  12  14
HETATM   14  O   UNK N   1      34.380  18.223   6.870  0.00  0.00    -0.771 OA
HETATM   15  H   UNK N   1      34.931  18.613   6.220  0.00  0.00     0.168 HD
ENDBRANCH  12  14
ENDBRANCH   1  12
TORSDOF 2
ENDMDL
MODEL 3
REMARK VINA RESULT:      -5.2     15.074     16.336
REMARK  2 active torsions:
REMARK  status: ('A' for Active; 'I' for Inactive)
REMARK    1  A    between atoms: O_1  and  C_2 
REMARK    2  A    between atoms: C_2  and  C_4 
ROOT
HETATM    1  C   UNK N   1      20.330  18.451   1.687  0.00  0.00     0.188 A 
HETATM    2  N   UNK N   1      20.423  19.580   0.939  0.00  0.00    -0.289 N 
ATOM      3  HN  UNK N   1      20.288  19.532  -0.071  1.00  0.00     0.172 HD
HETATM    4  C   UNK N   1      20.694  20.782   1.531  0.00  0.00     0.330 A 
HETATM    5  O   UNK N   1      20.775  21.789   0.853  0.00  0.00    -0.246 OA
HETATM    6  N   UNK N   1      20.875  20.850   2.884  0.00  0.00    -0.260 N 
HETATM    7  C   UNK N   1      20.782  19.712   3.637  0.00  0.00     0.330 A 
HETATM    8  O   UNK N   1      20.942  19.765   4.842  0.00  0.00    -0.246 OA
HETATM    9  N   UNK N   1      20.509  18.514   3.034  0.00  0.00    -0.289 N 
HETATM   10  H   UNK N   1      21.071  21.713   3.314  0.00  0.00     0.175 HD
HETATM   11  H   UNK N   1      20.443  17.695   3.576  0.00  0.00     0.172 HD
ENDROOT
BRANCH   1  12
HETATM   12  C   UNK N   1      20.037  17.163   1.040  0.00  0.00     0.212 C 
HETATM   13  O   UNK N   1      20.240  17.019  -0.156  0.00  0.00    -0.644 OA
BRANCH  12  14
HETATM   14  O   UNK N   1      19.545  16.138   1.760  0.00  0.00    -0.771 OA
HETATM   15  H   UNK N   1      19.666  15.256   1.465  0.00  0.00     0.168 HD
ENDBRANCH  12  14
ENDBRANCH   1  12
TORSDOF 2
ENDMDL
MODEL 4
REMARK VINA RESULT:      -5.2     15.076     16.260
REMARK  2 active torsions:
REMARK  status: ('A' for Active; 'I' for Inactive)
REMARK    1  A    between atoms: O_1  and  C_2 
REMARK    2  A    between atoms: C_2  and  C_4 
ROOT
HETATM    1  C   UNK N   1      20.331  18.454   1.687  0.00  0.00     0.188 A 
HETATM    2  N   UNK N   1      20.509  18.520   3.031  0.00  0.00    -0.289 N 
ATOM      3  HN  UNK N   1      20.440  17.672   3.594  1.00  0.00     0.172 HD
HETATM    4  C   UNK N   1      20.782  19.715   3.635  0.00  0.00     0.330 A 
HETATM    5  O   UNK N   1      20.940  19.766   4.840  0.00  0.00    -0.246 OA
HETATM    6  N   UNK N   1      20.875  20.853   2.882  0.00  0.00    -0.260 N 
HETATM    7  C   UNK N   1      20.695  20.786   1.528  0.00  0.00     0.330 A 
HETATM    8  O   UNK N   1      20.776  21.795   0.853  0.00  0.00    -0.246 OA
HETATM    9  N   UNK N   1      20.422  19.583   0.934  0.00  0.00    -0.289 N 
HETATM   10  H   UNK N   1      21.071  21.716   3.314  0.00  0.00     0.175 HD
HETATM   11  H   UNK N   1      20.293  19.535  -0.040  0.00  0.00     0.172 HD
ENDROOT
BRANCH   1  12
HETATM   12  C   UNK N   1      20.038  17.161   1.047  0.00  0.00     0.212 C 
HETATM   13  O   UNK N   1      20.241  17.010  -0.147  0.00  0.00    -0.644 OA
BRANCH  12  14
HETATM   14  O   UNK N   1      19.546  16.140   1.773  0.00  0.00    -0.771 OA
HETATM   15  H   UNK N   1      20.130  15.529   2.179  0.00  0.00     0.168 HD
ENDBRANCH  12  14
ENDBRANCH   1  12
TORSDOF 2
ENDMDL
MODEL 5
REMARK VINA RESULT:      -5.2     15.651     16.222
REMARK  2 active torsions:
REMARK  status: ('A' for Active; 'I' for Inactive)
REMARK    1  A    between atoms: O_1  and  C_2 
REMARK    2  A    between atoms: C_2  and  C_4 
ROOT
HETATM    1  C   UNK N   1      20.429  19.348   1.952  0.00  0.00     0.188 A 
HETATM    2  N   UNK N   1      20.352  18.633   0.800  0.00  0.00    -0.289 N 
ATOM      3  HN  UNK N   1      20.556  19.084  -0.092  1.00  0.00     0.172 HD
HETATM    4  C   UNK N   1      20.004  17.311   0.829  0.00  0.00     0.330 A 
HETATM    5  O   UNK N   1      19.937  16.678  -0.208  0.00  0.00    -0.246 OA
HETATM    6  N   UNK N   1      19.730  16.704   2.023  0.00  0.00    -0.260 N 
HETATM    7  C   UNK N   1      19.808  17.425   3.182  0.00  0.00     0.330 A 
HETATM    8  O   UNK N   1      19.566  16.891   4.248  0.00  0.00    -0.246 OA
HETATM    9  N   UNK N   1      20.158  18.748   3.142  0.00  0.00    -0.289 N 
HETATM   10  H   UNK N   1      19.479  15.753   2.047  0.00  0.00     0.175 HD
HETATM   11  H   UNK N   1      20.214  19.266   3.976  0.00  0.00     0.172 HD
ENDROOT
BRANCH   1  12
HETATM   12  C   UNK N   1      20.806  20.770   1.910  0.00  0.00     0.212 C 
HETATM   13  O   UNK N   1      20.788  21.376   0.850  0.00  0.00    -0.644 OA
BRANCH  12  14
HETATM   14  O   UNK N   1      21.171  21.409   3.036  0.00  0.00    -0.771 OA
HETATM   15  H   UNK N   1      21.558  20.931   3.743  0.00  0.00     0.168 HD
ENDBRANCH  12  14
ENDBRANCH   1  12
TORSDOF 2
ENDMDL
MODEL 6
REMARK VINA RESULT:      -5.1     15.767     16.191
REMARK  2 active torsions:
REMARK  status: ('A' for Active; 'I' for Inactive)
REMARK    1  A    between atoms: O_1  and  C_2 
REMARK    2  A    between atoms: C_2  and  C_4 
ROOT
HETATM    1  C   UNK N   1      20.388  19.382   1.945  0.00  0.00     0.188 A 
HETATM    2  N   UNK N   1      20.001  18.823   3.120  0.00  0.00    -0.289 N 
ATOM      3  HN  UNK N   1      19.999  19.384   3.972  1.00  0.00     0.172 HD
HETATM    4  C   UNK N   1      19.613  17.514   3.169  0.00  0.00     0.330 A 
HETATM    5  O   UNK N   1      19.267  17.021   4.226  0.00  0.00    -0.246 OA
HETATM    6  N   UNK N   1      19.614  16.760   2.028  0.00  0.00    -0.260 N 
HETATM    7  C   UNK N   1      20.004  17.323   0.845  0.00  0.00     0.330 A 
HETATM    8  O   UNK N   1      20.008  16.658  -0.174  0.00  0.00    -0.246 OA
HETATM    9  N   UNK N   1      20.391  18.636   0.808  0.00  0.00    -0.289 N 
HETATM   10  H   UNK N   1      19.336  15.816   2.059  0.00  0.00     0.175 HD
HETATM   11  H   UNK N   1      20.672  19.041  -0.044  0.00  0.00     0.172 HD
ENDROOT
BRANCH   1  12
HETATM   12  C   UNK N   1      20.803  20.793   1.904  0.00  0.00     0.212 C 
HETATM   13  O   UNK N   1      20.807  21.400   0.844  0.00  0.00    -0.644 OA
BRANCH  12  14
HETATM   14  O   UNK N   1      21.182  21.423   3.032  0.00  0.00    -0.771 OA
HETATM   15  H   UNK N   1      22.091  21.501   3.243  0.00  0.00     0.168 HD
ENDBRANCH  12  14
ENDBRANCH   1  12
TORSDOF 2
ENDMDL
MODEL 7
REMARK VINA RESULT:      -4.9      1.418      4.275
REMARK  2 active torsions:
REMARK  status: ('A' for Active; 'I' for Inactive)
REMARK    1  A    between atoms: O_1  and  C_2 
REMARK    2  A    between atoms: C_2  and  C_4 
ROOT
HETATM    1  C   UNK N   1      34.312  16.317  10.006  0.00  0.00     0.188 A 
HETATM    2  N   UNK N   1      33.137  16.078   9.368  0.00  0.00    -0.289 N 
ATOM      3  HN  UNK N   1      32.575  15.266   9.626  1.00  0.00     0.172 HD
HETATM    4  C   UNK N   1      32.701  16.920   8.384  0.00  0.00     0.330 A 
HETATM    5  O   UNK N   1      31.647  16.700   7.817  0.00  0.00    -0.246 OA
HETATM    6  N   UNK N   1      33.451  18.009   8.037  0.00  0.00    -0.260 N 
HETATM    7  C   UNK N   1      34.635  18.248   8.679  0.00  0.00     0.330 A 
HETATM    8  O   UNK N   1      35.307  19.216   8.375  0.00  0.00    -0.246 OA
HETATM    9  N   UNK N   1      35.061  17.399   9.664  0.00  0.00    -0.289 N 
HETATM   10  H   UNK N   1      33.141  18.617   7.328  0.00  0.00     0.175 HD
HETATM   11  H   UNK N   1      35.913  17.571  10.126  0.00  0.00     0.172 HD
ENDROOT
BRANCH   1  12
HETATM   12  C   UNK N   1      34.771  15.404  11.065  0.00  0.00     0.212 C 
HETATM   13  O   UNK N   1      35.882  15.543  11.553  0.00  0.00    -0.644 OA
BRANCH  12  14
HETATM   14  O   UNK N   1      33.972  14.412  11.500  0.00  0.00    -0.771 OA
HETATM   15  H   UNK N   1      33.128  14.612  11.856  0.00  0.00     0.168 HD
ENDBRANCH  12  14
ENDBRANCH   1  12
TORSDOF 2
ENDMDL
MODEL 8
REMARK VINA RESULT:      -4.7     11.357     12.456
REMARK  2 active torsions:
REMARK  status: ('A' for Active; 'I' for Inactive)
REMARK    1  A    between atoms: O_1  and  C_2 
REMARK    2  A    between atoms: C_2  and  C_4 
ROOT
HETATM    1  C   UNK N   1      43.185  22.265   3.497  0.00  0.00     0.188 A 
HETATM    2  N   UNK N   1      42.713  23.378   2.877  0.00  0.00    -0.289 N 
ATOM      3  HN  UNK N   1      43.095  24.293   3.118  1.00  0.00     0.172 HD
HETATM    4  C   UNK N   1      41.731  23.279   1.932  0.00  0.00     0.330 A 
HETATM    5  O   UNK N   1      41.314  24.281   1.381  0.00  0.00    -0.246 OA
HETATM    6  N   UNK N   1      41.218  22.054   1.607  0.00  0.00    -0.260 N 
HETATM    7  C   UNK N   1      41.693  20.934   2.232  0.00  0.00     0.330 A 
HETATM    8  O   UNK N   1      41.241  19.841   1.948  0.00  0.00    -0.246 OA
HETATM    9  N   UNK N   1      42.677  21.045   3.177  0.00  0.00    -0.289 N 
HETATM   10  H   UNK N   1      40.510  21.979   0.928  0.00  0.00     0.175 HD
HETATM   11  H   UNK N   1      43.019  20.239   3.626  0.00  0.00     0.172 HD
ENDROOT
BRANCH   1  12
HETATM   12  C   UNK N   1      44.243  22.383   4.512  0.00  0.00     0.212 C 
HETATM   13  O   UNK N   1      43.958  22.687   5.660  0.00  0.00    -0.644 OA
BRANCH  12  14
HETATM   14  O   UNK N   1      45.528  22.157   4.183  0.00  0.00    -0.771 OA
HETATM   15  H   UNK N   1      45.764  22.011   3.288  0.00  0.00     0.168 HD
ENDBRANCH  12  14
ENDBRANCH   1  12
TORSDOF 2
ENDMDL
MODEL 9
REMARK VINA RESULT:      -4.7     11.369     12.505
REMARK  2 active torsions:
REMARK  status: ('A' for Active; 'I' for Inactive)
REMARK    1  A    between atoms: O_1  and  C_2 
REMARK    2  A    between atoms: C_2  and  C_4 
ROOT
HETATM    1  C   UNK N   1      43.188  22.269   3.495  0.00  0.00     0.188 A 
HETATM    2  N   UNK N   1      42.686  21.049   3.171  0.00  0.00    -0.289 N 
ATOM      3  HN  UNK N   1      43.043  20.214   3.635  1.00  0.00     0.172 HD
HETATM    4  C   UNK N   1      41.704  20.934   2.227  0.00  0.00     0.330 A 
HETATM    5  O   UNK N   1      41.259  19.838   1.943  0.00  0.00    -0.246 OA
HETATM    6  N   UNK N   1      41.223  22.052   1.604  0.00  0.00    -0.260 N 
HETATM    7  C   UNK N   1      41.730  23.279   1.930  0.00  0.00     0.330 A 
HETATM    8  O   UNK N   1      41.306  24.278   1.379  0.00  0.00    -0.246 OA
HETATM    9  N   UNK N   1      42.713  23.383   2.877  0.00  0.00    -0.289 N 
HETATM   10  H   UNK N   1      40.516  21.972   0.924  0.00  0.00     0.175 HD
HETATM   11  H   UNK N   1      43.077  24.267   3.111  0.00  0.00     0.172 HD
ENDROOT
BRANCH   1  12
HETATM   12  C   UNK N   1      44.245  22.381   4.512  0.00  0.00     0.212 C 
HETATM   13  O   UNK N   1      43.959  22.682   5.661  0.00  0.00    -0.644 OA
BRANCH  12  14
HETATM   14  O   UNK N   1      45.530  22.153   4.184  0.00  0.00    -0.771 OA
HETATM   15  H   UNK N   1      46.219  22.542   4.687  0.00  0.00     0.168 HD
ENDBRANCH  12  14
ENDBRANCH   1  12
TORSDOF 2
ENDMDL
