MODEL 1
REMARK VINA RESULT:      -9.3      0.000      0.000
REMARK  21 active torsions:
REMARK  status: ('A' for Active; 'I' for Inactive)
REMARK    1  A    between atoms: N_9  and  C_10 
REMARK    2  A    between atoms: C_10  and  C_11 
REMARK    3  A    between atoms: C_11  and  O_12 
REMARK    4  A    between atoms: C_11  and  C_13 
REMARK    5  A    between atoms: C_13  and  O_14 
REMARK    6  A    between atoms: C_13  and  C_15 
REMARK    7  A    between atoms: C_15  and  O_16 
REMARK    8  A    between atoms: C_15  and  C_17 
REMARK    9  A    between atoms: C_17  and  O_18 
REMARK   10  A    between atoms: P_19  and  O_18 
REMARK   11  A    between atoms: P_19  and  O_20 
REMARK   12  A    between atoms: P_19  and  O_22 
REMARK   13  A    between atoms: P_23  and  O_22 
REMARK   14  A    between atoms: P_23  and  O_24 
REMARK   15  A    between atoms: P_23  and  O_26 
REMARK   16  A    between atoms: O_26  and  C_27 
REMARK   17  A    between atoms: C_28  and  C_27 
REMARK   18  A    between atoms: C_30  and  N_35 
REMARK   19  A    between atoms: C_31  and  O_32 
REMARK   20  A    between atoms: C_33  and  O_34 
REMARK   21  A    between atoms: C_46  and  N_47 
ROOT
HETATM    1  P   UNK N   1      35.108  15.813   9.673  0.00  0.00     0.401 P 
HETATM    2  O   UNK N   1      33.797  15.040   9.922  0.00  0.00    -0.631 OA
ENDROOT
BRANCH   1   3
HETATM    3  O   UNK N   1      36.540  14.910  10.158  0.00  0.00    -0.294 OA
BRANCH   3   4
HETATM    4  C   UNK N   1      36.233  13.562  10.370  0.00  0.00     0.215 C 
BRANCH   4   5
HETATM    5  C   UNK N   1      36.857  13.002  11.656  0.00  0.00     0.173 C 
BRANCH   5   6
HETATM    6  C   UNK N   1      36.311  13.751  12.874  0.00  0.00     0.179 C 
BRANCH   6   7
HETATM    7  C   UNK N   1      36.232  12.910  14.104  0.00  0.00     0.167 C 
BRANCH   7   8
HETATM    8  C   UNK N   1      34.826  12.704  14.692  0.00  0.00     0.165 C 
BRANCH   8   9
HETATM    9  N   UNK N   1      34.960  11.698  15.743  0.00  0.00    -0.327 N 
HETATM   10  C   UNK N   1      35.145  10.379  15.415  0.00  0.00     0.063 A 
HETATM   11  C   UNK N   1      35.522   9.464  16.415  0.00  0.00     0.060 A 
HETATM   12  C   UNK N   1      35.067   9.945  14.079  0.00  0.00     0.039 A 
HETATM   13  C   UNK N   1      35.849   8.149  16.066  0.00  0.00     0.039 A 
HETATM   14  N   UNK N   1      35.662   9.892  17.699  0.00  0.00    -0.347 N 
HETATM   15  C   UNK N   1      35.801   7.737  14.725  0.00  0.00    -0.054 A 
HETATM   16  C   UNK N   1      36.213   6.347  14.378  0.00  0.00     0.049 C 
HETATM   17  C   UNK N   1      35.395   8.640  13.728  0.00  0.00    -0.054 A 
HETATM   18  C   UNK N   1      35.340   8.248  12.289  0.00  0.00     0.049 C 
HETATM   19  C   UNK N   1      35.462  11.198  18.026  0.00  0.00     0.146 A 
ATOM     20  HN  UNK N   1      35.920   9.225  18.426  1.00  0.00     0.166 HD
HETATM   21  C   UNK N   1      35.673  11.667  19.329  0.00  0.00     0.280 A 
HETATM   22  C   UNK N   1      35.103  12.123  17.031  0.00  0.00     0.145 A 
HETATM   23  N   UNK N   1      35.517  12.998  19.607  0.00  0.00    -0.273 N 
HETATM   24  O   UNK N   1      36.018  10.900  20.211  0.00  0.00    -0.265 OA
HETATM   25  C   UNK N   1      35.163  13.885  18.624  0.00  0.00     0.328 A 
HETATM   26  H   UNK N   1      35.661  13.322  20.526  0.00  0.00     0.173 HD
HETATM   27  N   UNK N   1      34.965  13.439  17.346  0.00  0.00    -0.292 N 
HETATM   28  O   UNK N   1      35.036  15.066  18.883  0.00  0.00    -0.247 OA
ATOM     29  HN  UNK N   1      34.710  14.105  16.617  1.00  0.00     0.172 HD
ENDBRANCH   8   9
ENDBRANCH   7   8
BRANCH   7  30
HETATM   30  O   UNK N   1      37.139  13.429  15.040  0.00  0.00    -0.391 OA
HETATM   31  H   UNK N   1      37.755  13.266  15.772  0.00  0.00     0.210 HD
ENDBRANCH   7  30
ENDBRANCH   6   7
BRANCH   6  32
HETATM   32  O   UNK N   1      35.004  14.176  12.611  0.00  0.00    -0.390 OA
HETATM   33  H   UNK N   1      34.119  13.839  12.404  0.00  0.00     0.210 HD
ENDBRANCH   6  32
ENDBRANCH   5   6
BRANCH   5  34
HETATM   34  O   UNK N   1      38.256  13.062  11.611  0.00  0.00    -0.391 OA
HETATM   35  H   UNK N   1      39.050  12.772  11.133  0.00  0.00     0.210 HD
ENDBRANCH   5  34
ENDBRANCH   4   5
ENDBRANCH   3   4
ENDBRANCH   1   3
BRANCH   1  36
HETATM   36  O   UNK N   1      34.948  17.219  10.675  0.00  0.00    -0.307 OA
HETATM   37  H   UNK N   1      34.981  18.101  11.077  0.00  0.00     0.222 HD
ENDBRANCH   1  36
BRANCH   1  38
HETATM   38  O   UNK N   1      35.030  16.208   7.988  0.00  0.00    -0.195 OA
BRANCH  38  39
HETATM   39  P   UNK N   1      34.073  17.639   7.886  0.00  0.00     0.401 P 
HETATM   40  O   UNK N   1      35.006  18.788   8.345  0.00  0.00    -0.631 OA
BRANCH  39  41
HETATM   41  O   UNK N   1      32.763  17.514   9.018  0.00  0.00    -0.307 OA
HETATM   42  H   UNK N   1      31.809  17.481   9.187  0.00  0.00     0.222 HD
ENDBRANCH  39  41
BRANCH  39  43
HETATM   43  O   UNK N   1      33.599  17.942   6.228  0.00  0.00    -0.294 OA
BRANCH  43  44
HETATM   44  C   UNK N   1      32.266  17.573   6.093  0.00  0.00     0.215 C 
BRANCH  44  45
HETATM   45  C   UNK N   1      32.138  16.245   5.358  0.00  0.00     0.180 C 
HETATM   46  O   UNK N   1      30.969  15.578   5.802  0.00  0.00    -0.353 OA
HETATM   47  C   UNK N   1      29.954  15.950   4.905  0.00  0.00     0.262 C 
HETATM   48  C   UNK N   1      30.651  16.041   3.558  0.00  0.00     0.198 C 
HETATM   49  C   UNK N   1      32.039  16.492   3.867  0.00  0.00     0.182 C 
BRANCH  47  50
HETATM   50  N   UNK N   1      29.254  17.171   5.365  0.00  0.00    -0.297 N 
HETATM   51  C   UNK N   1      28.733  18.139   4.565  0.00  0.00     0.188 A 
HETATM   52  N   UNK N   1      28.081  19.093   5.287  0.00  0.00    -0.346 N 
HETATM   53  C   UNK N   1      28.186  18.678   6.561  0.00  0.00     0.122 A 
ATOM     54  HN  UNK N   1      27.619  19.933   4.940  1.00  0.00     0.167 HD
HETATM   55  C   UNK N   1      28.884  17.527   6.612  0.00  0.00     0.142 A 
HETATM   56  C   UNK N   1      27.674  19.241   7.720  0.00  0.00     0.131 A 
HETATM   57  N   UNK N   1      29.099  16.867   7.776  0.00  0.00    -0.336 N 
HETATM   58  C   UNK N   1      28.602  17.414   8.932  0.00  0.00     0.183 A 
ATOM     59  HN  UNK N   1      29.616  15.988   7.793  1.00  0.00     0.168 HD
HETATM   60  N   UNK N   1      27.898  18.592   8.900  0.00  0.00    -0.337 N 
ATOM     61  HN  UNK N   1      27.537  18.987   9.769  1.00  0.00     0.168 HD
BRANCH  56  62
HETATM   62  N   UNK N   1      26.924  20.433   7.688  0.00  0.00    -0.383 N 
HETATM   63  H   UNK N   1      27.046  21.212   8.277  0.00  0.00     0.157 HD
HETATM   64  H   UNK N   1      26.209  20.492   7.013  0.00  0.00     0.157 HD
ENDBRANCH  56  62
ENDBRANCH  47  50
BRANCH  48  65
HETATM   65  O   UNK N   1      30.020  16.857   2.620  0.00  0.00    -0.388 OA
HETATM   66  H   UNK N   1      30.283  17.669   2.159  0.00  0.00     0.210 HD
ENDBRANCH  48  65
BRANCH  49  67
HETATM   67  O   UNK N   1      32.936  15.658   3.196  0.00  0.00    -0.390 OA
HETATM   68  H   UNK N   1      32.617  15.056   2.505  0.00  0.00     0.210 HD
ENDBRANCH  49  67
ENDBRANCH  44  45
ENDBRANCH  43  44
ENDBRANCH  39  43
ENDBRANCH  38  39
ENDBRANCH   1  38
TORSDOF 21
ENDMDL
MODEL 2
REMARK VINA RESULT:      -9.2      1.764      3.631
REMARK  21 active torsions:
REMARK  status: ('A' for Active; 'I' for Inactive)
REMARK    1  A    between atoms: N_9  and  C_10 
REMARK    2  A    between atoms: C_10  and  C_11 
REMARK    3  A    between atoms: C_11  and  O_12 
REMARK    4  A    between atoms: C_11  and  C_13 
REMARK    5  A    between atoms: C_13  and  O_14 
REMARK    6  A    between atoms: C_13  and  C_15 
REMARK    7  A    between atoms: C_15  and  O_16 
REMARK    8  A    between atoms: C_15  and  C_17 
REMARK    9  A    between atoms: C_17  and  O_18 
REMARK   10  A    between atoms: P_19  and  O_18 
REMARK   11  A    between atoms: P_19  and  O_20 
REMARK   12  A    between atoms: P_19  and  O_22 
REMARK   13  A    between atoms: P_23  and  O_22 
REMARK   14  A    between atoms: P_23  and  O_24 
REMARK   15  A    between atoms: P_23  and  O_26 
REMARK   16  A    between atoms: O_26  and  C_27 
REMARK   17  A    between atoms: C_28  and  C_27 
REMARK   18  A    between atoms: C_30  and  N_35 
REMARK   19  A    between atoms: C_31  and  O_32 
REMARK   20  A    between atoms: C_33  and  O_34 
REMARK   21  A    between atoms: C_46  and  N_47 
ROOT
HETATM    1  P   UNK N   1      35.092  15.822   9.655  0.00  0.00     0.401 P 
HETATM    2  O   UNK N   1      33.809  15.019   9.948  0.00  0.00    -0.631 OA
ENDROOT
BRANCH   1   3
HETATM    3  O   UNK N   1      36.561  14.949  10.082  0.00  0.00    -0.294 OA
BRANCH   3   4
HETATM    4  C   UNK N   1      36.574  13.677   9.501  0.00  0.00     0.215 C 
BRANCH   4   5
HETATM    5  C   UNK N   1      36.191  12.566  10.488  0.00  0.00     0.173 C 
BRANCH   5   6
HETATM    6  C   UNK N   1      37.257  12.442  11.579  0.00  0.00     0.179 C 
BRANCH   6   7
HETATM    7  C   UNK N   1      36.773  12.843  12.933  0.00  0.00     0.167 C 
BRANCH   7   8
HETATM    8  C   UNK N   1      35.407  12.278  13.357  0.00  0.00     0.165 C 
BRANCH   8   9
HETATM    9  N   UNK N   1      35.682  11.161  14.257  0.00  0.00    -0.327 N 
HETATM   10  C   UNK N   1      35.681  11.354  15.615  0.00  0.00     0.063 A 
HETATM   11  C   UNK N   1      35.694  10.238  16.473  0.00  0.00     0.060 A 
HETATM   12  C   UNK N   1      35.561  12.643  16.165  0.00  0.00     0.039 A 
HETATM   13  C   UNK N   1      35.553  10.420  17.852  0.00  0.00     0.039 A 
HETATM   14  N   UNK N   1      35.745   8.985  15.943  0.00  0.00    -0.347 N 
HETATM   15  C   UNK N   1      35.399  11.709  18.387  0.00  0.00    -0.054 A 
HETATM   16  C   UNK N   1      35.189  11.866  19.854  0.00  0.00     0.049 C 
HETATM   17  C   UNK N   1      35.416  12.827  17.536  0.00  0.00    -0.054 A 
HETATM   18  C   UNK N   1      35.245  14.214  18.060  0.00  0.00     0.049 C 
HETATM   19  C   UNK N   1      35.763   8.796  14.596  0.00  0.00     0.146 A 
ATOM     20  HN  UNK N   1      35.771   8.178  16.565  1.00  0.00     0.166 HD
HETATM   21  C   UNK N   1      35.742   7.512  14.037  0.00  0.00     0.280 A 
HETATM   22  C   UNK N   1      35.731   9.903  13.732  0.00  0.00     0.145 A 
HETATM   23  N   UNK N   1      35.702   7.361  12.676  0.00  0.00    -0.273 N 
HETATM   24  O   UNK N   1      35.734   6.527  14.755  0.00  0.00    -0.265 OA
HETATM   25  C   UNK N   1      35.675   8.454  11.849  0.00  0.00     0.328 A 
HETATM   26  H   UNK N   1      35.693   6.457  12.288  0.00  0.00     0.173 HD
HETATM   27  N   UNK N   1      35.684   9.712  12.385  0.00  0.00    -0.292 N 
HETATM   28  O   UNK N   1      35.631   8.306  10.644  0.00  0.00    -0.247 OA
ATOM     29  HN  UNK N   1      35.656  10.521  11.765  1.00  0.00     0.172 HD
ENDBRANCH   8   9
ENDBRANCH   7   8
BRANCH   7  30
HETATM   30  O   UNK N   1      36.828  14.243  13.013  0.00  0.00    -0.391 OA
HETATM   31  H   UNK N   1      37.126  15.031  13.494  0.00  0.00     0.210 HD
ENDBRANCH   7  30
ENDBRANCH   6   7
BRANCH   6  32
HETATM   32  O   UNK N   1      38.327  13.293  11.282  0.00  0.00    -0.390 OA
HETATM   33  H   UNK N   1      39.202  13.302  10.865  0.00  0.00     0.210 HD
ENDBRANCH   6  32
ENDBRANCH   5   6
BRANCH   5  34
HETATM   34  O   UNK N   1      35.998  11.344   9.829  0.00  0.00    -0.391 OA
HETATM   35  H   UNK N   1      35.469  10.873   9.166  0.00  0.00     0.210 HD
ENDBRANCH   5  34
ENDBRANCH   4   5
ENDBRANCH   3   4
ENDBRANCH   1   3
BRANCH   1  36
HETATM   36  O   UNK N   1      34.938  17.220  10.668  0.00  0.00    -0.307 OA
HETATM   37  H   UNK N   1      34.803  17.852  11.392  0.00  0.00     0.222 HD
ENDBRANCH   1  36
BRANCH   1  38
HETATM   38  O   UNK N   1      34.944  16.221   7.975  0.00  0.00    -0.195 OA
BRANCH  38  39
HETATM   39  P   UNK N   1      33.992  17.657   7.918  0.00  0.00     0.401 P 
HETATM   40  O   UNK N   1      34.942  18.796   8.362  0.00  0.00    -0.631 OA
BRANCH  39  41
HETATM   41  O   UNK N   1      32.715  17.525   9.086  0.00  0.00    -0.307 OA
HETATM   42  H   UNK N   1      32.389  17.687   9.985  0.00  0.00     0.222 HD
ENDBRANCH  39  41
BRANCH  39  43
HETATM   43  O   UNK N   1      33.471  17.982   6.278  0.00  0.00    -0.294 OA
BRANCH  43  44
HETATM   44  C   UNK N   1      32.142  17.587   6.168  0.00  0.00     0.215 C 
BRANCH  44  45
HETATM   45  C   UNK N   1      32.025  16.264   5.424  0.00  0.00     0.180 C 
HETATM   46  O   UNK N   1      30.844  15.599   5.842  0.00  0.00    -0.353 OA
HETATM   47  C   UNK N   1      29.848  15.979   4.927  0.00  0.00     0.262 C 
HETATM   48  C   UNK N   1      30.573  16.073   3.594  0.00  0.00     0.198 C 
HETATM   49  C   UNK N   1      31.956  16.517   3.933  0.00  0.00     0.182 C 
BRANCH  47  50
HETATM   50  N   UNK N   1      29.144  17.200   5.378  0.00  0.00    -0.297 N 
HETATM   51  C   UNK N   1      28.608  18.155   4.572  0.00  0.00     0.188 A 
HETATM   52  N   UNK N   1      27.956  19.112   5.288  0.00  0.00    -0.346 N 
HETATM   53  C   UNK N   1      28.077  18.714   6.566  0.00  0.00     0.122 A 
ATOM     54  HN  UNK N   1      27.485  19.944   4.935  1.00  0.00     0.167 HD
HETATM   55  C   UNK N   1      28.783  17.569   6.624  0.00  0.00     0.142 A 
HETATM   56  C   UNK N   1      27.571  19.287   7.723  0.00  0.00     0.131 A 
HETATM   57  N   UNK N   1      29.014  16.925   7.794  0.00  0.00    -0.336 N 
HETATM   58  C   UNK N   1      28.524  17.482   8.948  0.00  0.00     0.183 A 
ATOM     59  HN  UNK N   1      29.538  16.050   7.817  1.00  0.00     0.168 HD
HETATM   60  N   UNK N   1      27.811  18.655   8.908  0.00  0.00    -0.337 N 
ATOM     61  HN  UNK N   1      27.455  19.057   9.776  1.00  0.00     0.168 HD
BRANCH  56  62
HETATM   62  N   UNK N   1      26.812  20.473   7.683  0.00  0.00    -0.383 N 
HETATM   63  H   UNK N   1      26.660  21.038   6.891  0.00  0.00     0.157 HD
HETATM   64  H   UNK N   1      26.394  20.765   8.526  0.00  0.00     0.157 HD
ENDBRANCH  56  62
ENDBRANCH  47  50
BRANCH  48  65
HETATM   65  O   UNK N   1      29.963  16.895   2.647  0.00  0.00    -0.388 OA
HETATM   66  H   UNK N   1      29.672  16.755   1.733  0.00  0.00     0.210 HD
ENDBRANCH  48  65
BRANCH  49  67
HETATM   67  O   UNK N   1      32.863  15.683   3.276  0.00  0.00    -0.390 OA
HETATM   68  H   UNK N   1      33.398  15.051   3.782  0.00  0.00     0.210 HD
ENDBRANCH  49  67
ENDBRANCH  44  45
ENDBRANCH  43  44
ENDBRANCH  39  43
ENDBRANCH  38  39
ENDBRANCH   1  38
TORSDOF 21
ENDMDL
MODEL 3
REMARK VINA RESULT:      -9.1      3.531      5.759
REMARK  21 active torsions:
REMARK  status: ('A' for Active; 'I' for Inactive)
REMARK    1  A    between atoms: N_9  and  C_10 
REMARK    2  A    between atoms: C_10  and  C_11 
REMARK    3  A    between atoms: C_11  and  O_12 
REMARK    4  A    between atoms: C_11  and  C_13 
REMARK    5  A    between atoms: C_13  and  O_14 
REMARK    6  A    between atoms: C_13  and  C_15 
REMARK    7  A    between atoms: C_15  and  O_16 
REMARK    8  A    between atoms: C_15  and  C_17 
REMARK    9  A    between atoms: C_17  and  O_18 
REMARK   10  A    between atoms: P_19  and  O_18 
REMARK   11  A    between atoms: P_19  and  O_20 
REMARK   12  A    between atoms: P_19  and  O_22 
REMARK   13  A    between atoms: P_23  and  O_22 
REMARK   14  A    between atoms: P_23  and  O_24 
REMARK   15  A    between atoms: P_23  and  O_26 
REMARK   16  A    between atoms: O_26  and  C_27 
REMARK   17  A    between atoms: C_28  and  C_27 
REMARK   18  A    between atoms: C_30  and  N_35 
REMARK   19  A    between atoms: C_31  and  O_32 
REMARK   20  A    between atoms: C_33  and  O_34 
REMARK   21  A    between atoms: C_46  and  N_47 
ROOT
HETATM    1  P   UNK N   1      32.768  15.212   9.060  0.00  0.00     0.401 P 
HETATM    2  O   UNK N   1      31.992  14.093   8.334  0.00  0.00    -0.631 OA
ENDROOT
BRANCH   1   3
HETATM    3  O   UNK N   1      33.420  14.697  10.613  0.00  0.00    -0.294 OA
BRANCH   3   4
HETATM    4  C   UNK N   1      34.661  15.295  10.856  0.00  0.00     0.215 C 
BRANCH   4   5
HETATM    5  C   UNK N   1      35.330  14.782  12.139  0.00  0.00     0.173 C 
BRANCH   5   6
HETATM    6  C   UNK N   1      36.764  14.338  11.842  0.00  0.00     0.179 C 
BRANCH   6   7
HETATM    7  C   UNK N   1      37.029  14.110  10.391  0.00  0.00     0.167 C 
BRANCH   7   8
HETATM    8  C   UNK N   1      37.067  12.642   9.934  0.00  0.00     0.165 C 
BRANCH   8   9
HETATM    9  N   UNK N   1      35.818  12.399   9.216  0.00  0.00    -0.327 N 
HETATM   10  C   UNK N   1      35.709  12.734   7.891  0.00  0.00     0.063 A 
HETATM   11  C   UNK N   1      34.606  12.272   7.149  0.00  0.00     0.060 A 
HETATM   12  C   UNK N   1      36.731  13.443   7.234  0.00  0.00     0.039 A 
HETATM   13  C   UNK N   1      34.557  12.490   5.768  0.00  0.00     0.039 A 
HETATM   14  N   UNK N   1      33.645  11.530   7.765  0.00  0.00    -0.347 N 
HETATM   15  C   UNK N   1      35.600  13.167   5.118  0.00  0.00    -0.054 A 
HETATM   16  C   UNK N   1      35.548  13.331   3.638  0.00  0.00     0.049 C 
HETATM   17  C   UNK N   1      36.688  13.658   5.861  0.00  0.00    -0.054 A 
HETATM   18  C   UNK N   1      37.823  14.374   5.210  0.00  0.00     0.049 C 
HETATM   19  C   UNK N   1      33.747  11.213   9.085  0.00  0.00     0.146 A 
ATOM     20  HN  UNK N   1      32.839  11.209   7.231  1.00  0.00     0.166 HD
HETATM   21  C   UNK N   1      32.803  10.390   9.714  0.00  0.00     0.280 A 
HETATM   22  C   UNK N   1      34.853  11.654   9.829  0.00  0.00     0.145 A 
HETATM   23  N   UNK N   1      32.970  10.045  11.029  0.00  0.00    -0.273 N 
HETATM   24  O   UNK N   1      31.848   9.960   9.092  0.00  0.00    -0.265 OA
HETATM   25  C   UNK N   1      34.054  10.489  11.740  0.00  0.00     0.328 A 
HETATM   26  H   UNK N   1      32.301   9.471  11.468  0.00  0.00     0.173 HD
HETATM   27  N   UNK N   1      34.987  11.283  11.132  0.00  0.00    -0.292 N 
HETATM   28  O   UNK N   1      34.194  10.168  12.904  0.00  0.00    -0.247 OA
ATOM     29  HN  UNK N   1      35.796  11.603  11.663  1.00  0.00     0.172 HD
ENDBRANCH   8   9
ENDBRANCH   7   8
BRANCH   7  30
HETATM   30  O   UNK N   1      38.195  14.812  10.050  0.00  0.00    -0.391 OA
HETATM   31  H   UNK N   1      38.894  14.986   9.400  0.00  0.00     0.210 HD
ENDBRANCH   7  30
ENDBRANCH   6   7
BRANCH   6  32
HETATM   32  O   UNK N   1      37.014  13.117  12.478  0.00  0.00    -0.390 OA
HETATM   33  H   UNK N   1      37.274  12.741  13.333  0.00  0.00     0.210 HD
ENDBRANCH   6  32
ENDBRANCH   5   6
BRANCH   5  34
HETATM   34  O   UNK N   1      34.589  13.743  12.719  0.00  0.00    -0.391 OA
HETATM   35  H   UNK N   1      33.989  13.002  12.545  0.00  0.00     0.210 HD
ENDBRANCH   5  34
ENDBRANCH   4   5
ENDBRANCH   3   4
ENDBRANCH   1   3
BRANCH   1  36
HETATM   36  O   UNK N   1      31.569  16.438   9.317  0.00  0.00    -0.307 OA
HETATM   37  H   UNK N   1      31.076  17.250   9.511  0.00  0.00     0.222 HD
ENDBRANCH   1  36
BRANCH   1  38
HETATM   38  O   UNK N   1      33.954  15.701   7.896  0.00  0.00    -0.195 OA
BRANCH  38  39
HETATM   39  P   UNK N   1      33.563  17.328   7.484  0.00  0.00     0.401 P 
HETATM   40  O   UNK N   1      34.553  17.715   6.357  0.00  0.00    -0.631 OA
BRANCH  39  41
HETATM   41  O   UNK N   1      33.877  18.341   8.857  0.00  0.00    -0.307 OA
HETATM   42  H   UNK N   1      33.633  19.106   9.401  0.00  0.00     0.222 HD
ENDBRANCH  39  41
BRANCH  39  43
HETATM   43  O   UNK N   1      31.936  17.424   6.844  0.00  0.00    -0.294 OA
BRANCH  43  44
HETATM   44  C   UNK N   1      32.015  17.295   5.462  0.00  0.00     0.215 C 
BRANCH  44  45
HETATM   45  C   UNK N   1      31.777  15.852   5.033  0.00  0.00     0.180 C 
HETATM   46  O   UNK N   1      30.656  15.338   5.732  0.00  0.00    -0.353 OA
HETATM   47  C   UNK N   1      29.549  15.564   4.897  0.00  0.00     0.262 C 
HETATM   48  C   UNK N   1      30.084  15.353   3.490  0.00  0.00     0.198 C 
HETATM   49  C   UNK N   1      31.507  15.798   3.544  0.00  0.00     0.182 C 
BRANCH  47  50
HETATM   50  N   UNK N   1      28.931  16.881   5.172  0.00  0.00    -0.297 N 
HETATM   51  C   UNK N   1      28.427  17.734   4.241  0.00  0.00     0.188 A 
HETATM   52  N   UNK N   1      27.854  18.828   4.817  0.00  0.00    -0.346 N 
HETATM   53  C   UNK N   1      27.990  18.620   6.137  0.00  0.00     0.122 A 
ATOM     54  HN  UNK N   1      27.421  19.625   4.352  1.00  0.00     0.167 HD
HETATM   55  C   UNK N   1      28.630  17.455   6.355  0.00  0.00     0.142 A 
HETATM   56  C   UNK N   1      27.554  19.392   7.204  0.00  0.00     0.131 A 
HETATM   57  N   UNK N   1      28.859  16.982   7.604  0.00  0.00    -0.336 N 
HETATM   58  C   UNK N   1      28.438  17.737   8.669  0.00  0.00     0.183 A 
ATOM     59  HN  UNK N   1      29.332  16.090   7.749  1.00  0.00     0.168 HD
HETATM   60  N   UNK N   1      27.793  18.931   8.467  0.00  0.00    -0.337 N 
ATOM     61  HN  UNK N   1      27.488  19.482   9.270  1.00  0.00     0.168 HD
BRANCH  56  62
HETATM   62  N   UNK N   1      26.864  20.603   7.000  0.00  0.00    -0.383 N 
HETATM   63  H   UNK N   1      26.213  20.786   6.285  0.00  0.00     0.157 HD
HETATM   64  H   UNK N   1      27.050  21.335   7.632  0.00  0.00     0.157 HD
ENDBRANCH  56  62
ENDBRANCH  47  50
BRANCH  48  65
HETATM   65  O   UNK N   1      29.362  15.988   2.482  0.00  0.00    -0.388 OA
HETATM   66  H   UNK N   1      29.440  16.854   2.052  0.00  0.00     0.210 HD
ENDBRANCH  48  65
BRANCH  49  67
HETATM   67  O   UNK N   1      32.303  14.809   2.963  0.00  0.00    -0.390 OA
HETATM   68  H   UNK N   1      32.753  14.154   3.521  0.00  0.00     0.210 HD
ENDBRANCH  49  67
ENDBRANCH  44  45
ENDBRANCH  43  44
ENDBRANCH  39  43
ENDBRANCH  38  39
ENDBRANCH   1  38
TORSDOF 21
ENDMDL
MODEL 4
REMARK VINA RESULT:      -9.1      9.211     13.287
REMARK  21 active torsions:
REMARK  status: ('A' for Active; 'I' for Inactive)
REMARK    1  A    between atoms: N_9  and  C_10 
REMARK    2  A    between atoms: C_10  and  C_11 
REMARK    3  A    between atoms: C_11  and  O_12 
REMARK    4  A    between atoms: C_11  and  C_13 
REMARK    5  A    between atoms: C_13  and  O_14 
REMARK    6  A    between atoms: C_13  and  C_15 
REMARK    7  A    between atoms: C_15  and  O_16 
REMARK    8  A    between atoms: C_15  and  C_17 
REMARK    9  A    between atoms: C_17  and  O_18 
REMARK   10  A    between atoms: P_19  and  O_18 
REMARK   11  A    between atoms: P_19  and  O_20 
REMARK   12  A    between atoms: P_19  and  O_22 
REMARK   13  A    between atoms: P_23  and  O_22 
REMARK   14  A    between atoms: P_23  and  O_24 
REMARK   15  A    between atoms: P_23  and  O_26 
REMARK   16  A    between atoms: O_26  and  C_27 
REMARK   17  A    between atoms: C_28  and  C_27 
REMARK   18  A    between atoms: C_30  and  N_35 
REMARK   19  A    between atoms: C_31  and  O_32 
REMARK   20  A    between atoms: C_33  and  O_34 
REMARK   21  A    between atoms: C_46  and  N_47 
ROOT
HETATM    1  P   UNK N   1      22.169  13.982   3.334  0.00  0.00     0.401 P 
HETATM    2  O   UNK N   1      21.953  12.758   2.422  0.00  0.00    -0.631 OA
ENDROOT
BRANCH   1   3
HETATM    3  O   UNK N   1      23.590  14.925   2.893  0.00  0.00    -0.294 OA
BRANCH   3   4
HETATM    4  C   UNK N   1      24.751  14.152   2.988  0.00  0.00     0.215 C 
BRANCH   4   5
HETATM    5  C   UNK N   1      25.946  14.777   2.254  0.00  0.00     0.173 C 
BRANCH   5   6
HETATM    6  C   UNK N   1      26.615  15.830   3.140  0.00  0.00     0.179 C 
BRANCH   6   7
HETATM    7  C   UNK N   1      28.098  15.681   3.227  0.00  0.00     0.167 C 
BRANCH   7   8
HETATM    8  C   UNK N   1      28.904  16.988   3.316  0.00  0.00     0.165 C 
BRANCH   8   9
HETATM    9  N   UNK N   1      28.669  17.529   4.652  0.00  0.00    -0.327 N 
HETATM   10  C   UNK N   1      29.393  17.067   5.721  0.00  0.00     0.063 A 
HETATM   11  C   UNK N   1      29.342  17.761   6.944  0.00  0.00     0.060 A 
HETATM   12  C   UNK N   1      30.266  15.972   5.587  0.00  0.00     0.039 A 
HETATM   13  C   UNK N   1      30.182  17.379   7.995  0.00  0.00     0.039 A 
HETATM   14  N   UNK N   1      28.547  18.859   7.060  0.00  0.00    -0.347 N 
HETATM   15  C   UNK N   1      31.075  16.307   7.838  0.00  0.00    -0.054 A 
HETATM   16  C   UNK N   1      32.000  15.963   8.954  0.00  0.00     0.049 C 
HETATM   17  C   UNK N   1      31.105  15.592   6.628  0.00  0.00    -0.054 A 
HETATM   18  C   UNK N   1      32.046  14.453   6.414  0.00  0.00     0.049 C 
HETATM   19  C   UNK N   1      27.817  19.308   6.003  0.00  0.00     0.146 A 
ATOM     20  HN  UNK N   1      28.499  19.353   7.951  1.00  0.00     0.166 HD
HETATM   21  C   UNK N   1      27.052  20.479   6.087  0.00  0.00     0.280 A 
HETATM   22  C   UNK N   1      27.875  18.632   4.773  0.00  0.00     0.145 A 
HETATM   23  N   UNK N   1      26.375  20.930   4.985  0.00  0.00    -0.273 N 
HETATM   24  O   UNK N   1      27.004  21.111   7.128  0.00  0.00    -0.265 OA
HETATM   25  C   UNK N   1      26.441  20.256   3.794  0.00  0.00     0.328 A 
HETATM   26  H   UNK N   1      25.834  21.751   5.050  0.00  0.00     0.173 HD
HETATM   27  N   UNK N   1      27.194  19.117   3.699  0.00  0.00    -0.292 N 
HETATM   28  O   UNK N   1      25.843  20.672   2.822  0.00  0.00    -0.247 OA
ATOM     29  HN  UNK N   1      27.247  18.624   2.808  1.00  0.00     0.172 HD
ENDBRANCH   8   9
ENDBRANCH   7   8
BRANCH   7  30
HETATM   30  O   UNK N   1      28.512  14.861   2.167  0.00  0.00    -0.391 OA
HETATM   31  H   UNK N   1      28.627  13.966   1.811  0.00  0.00     0.210 HD
ENDBRANCH   7  30
ENDBRANCH   6   7
BRANCH   6  32
HETATM   32  O   UNK N   1      26.136  15.709   4.449  0.00  0.00    -0.390 OA
HETATM   33  H   UNK N   1      26.106  15.092   5.196  0.00  0.00     0.210 HD
ENDBRANCH   6  32
ENDBRANCH   5   6
BRANCH   5  34
HETATM   34  O   UNK N   1      25.558  15.324   1.023  0.00  0.00    -0.391 OA
HETATM   35  H   UNK N   1      24.813  15.481   0.423  0.00  0.00     0.210 HD
ENDBRANCH   5  34
ENDBRANCH   4   5
ENDBRANCH   3   4
ENDBRANCH   1   3
BRANCH   1  36
HETATM   36  O   UNK N   1      22.405  13.285   4.904  0.00  0.00    -0.307 OA
HETATM   37  H   UNK N   1      22.347  12.999   5.829  0.00  0.00     0.222 HD
ENDBRANCH   1  36
BRANCH   1  38
HETATM   38  O   UNK N   1      20.664  14.836   3.226  0.00  0.00    -0.195 OA
BRANCH  38  39
HETATM   39  P   UNK N   1      20.445  15.187   1.553  0.00  0.00     0.401 P 
HETATM   40  O   UNK N   1      19.450  14.118   1.037  0.00  0.00    -0.631 OA
BRANCH  39  41
HETATM   41  O   UNK N   1      21.959  14.964   0.734  0.00  0.00    -0.307 OA
HETATM   42  H   UNK N   1      22.726  15.349   0.282  0.00  0.00     0.222 HD
ENDBRANCH  39  41
BRANCH  39  43
HETATM   43  O   UNK N   1      19.713  16.765   1.349  0.00  0.00    -0.294 OA
BRANCH  43  44
HETATM   44  C   UNK N   1      20.707  17.720   1.530  0.00  0.00     0.215 C 
BRANCH  44  45
HETATM   45  C   UNK N   1      20.103  19.101   1.752  0.00  0.00     0.180 C 
HETATM   46  O   UNK N   1      19.775  19.250   3.123  0.00  0.00    -0.353 OA
HETATM   47  C   UNK N   1      20.893  19.856   3.720  0.00  0.00     0.262 C 
HETATM   48  C   UNK N   1      21.412  20.819   2.664  0.00  0.00     0.198 C 
HETATM   49  C   UNK N   1      21.103  20.167   1.358  0.00  0.00     0.182 C 
BRANCH  47  50
HETATM   50  N   UNK N   1      21.853  18.843   4.211  0.00  0.00    -0.297 N 
HETATM   51  C   UNK N   1      23.183  18.803   3.931  0.00  0.00     0.188 A 
HETATM   52  N   UNK N   1      23.810  17.794   4.599  0.00  0.00    -0.346 N 
HETATM   53  C   UNK N   1      22.837  17.221   5.327  0.00  0.00     0.122 A 
ATOM     54  HN  UNK N   1      24.794  17.533   4.555  1.00  0.00     0.167 HD
HETATM   55  C   UNK N   1      21.666  17.847   5.101  0.00  0.00     0.142 A 
HETATM   56  C   UNK N   1      22.910  16.169   6.228  0.00  0.00     0.131 A 
HETATM   57  N   UNK N   1      20.526  17.495   5.746  0.00  0.00    -0.336 N 
HETATM   58  C   UNK N   1      20.582  16.454   6.637  0.00  0.00     0.183 A 
ATOM     59  HN  UNK N   1      19.652  17.991   5.574  1.00  0.00     0.168 HD
HETATM   60  N   UNK N   1      21.764  15.797   6.871  0.00  0.00    -0.337 N 
ATOM     61  HN  UNK N   1      21.788  15.023   7.535  1.00  0.00     0.168 HD
BRANCH  56  62
HETATM   62  N   UNK N   1      24.128  15.514   6.495  0.00  0.00    -0.383 N 
HETATM   63  H   UNK N   1      24.979  15.947   6.734  0.00  0.00     0.157 HD
HETATM   64  H   UNK N   1      24.128  14.531   6.436  0.00  0.00     0.157 HD
ENDBRANCH  56  62
ENDBRANCH  47  50
BRANCH  48  65
HETATM   65  O   UNK N   1      22.757  21.161   2.787  0.00  0.00    -0.388 OA
HETATM   66  H   UNK N   1      23.449  21.385   2.145  0.00  0.00     0.210 HD
ENDBRANCH  48  65
BRANCH  49  67
HETATM   67  O   UNK N   1      20.481  21.106   0.531  0.00  0.00    -0.390 OA
HETATM   68  H   UNK N   1      20.963  21.898   0.246  0.00  0.00     0.210 HD
ENDBRANCH  49  67
ENDBRANCH  44  45
ENDBRANCH  43  44
ENDBRANCH  39  43
ENDBRANCH  38  39
ENDBRANCH   1  38
TORSDOF 21
ENDMDL
MODEL 5
REMARK VINA RESULT:      -9.1      9.427     13.426
REMARK  21 active torsions:
REMARK  status: ('A' for Active; 'I' for Inactive)
REMARK    1  A    between atoms: N_9  and  C_10 
REMARK    2  A    between atoms: C_10  and  C_11 
REMARK    3  A    between atoms: C_11  and  O_12 
REMARK    4  A    between atoms: C_11  and  C_13 
REMARK    5  A    between atoms: C_13  and  O_14 
REMARK    6  A    between atoms: C_13  and  C_15 
REMARK    7  A    between atoms: C_15  and  O_16 
REMARK    8  A    between atoms: C_15  and  C_17 
REMARK    9  A    between atoms: C_17  and  O_18 
REMARK   10  A    between atoms: P_19  and  O_18 
REMARK   11  A    between atoms: P_19  and  O_20 
REMARK   12  A    between atoms: P_19  and  O_22 
REMARK   13  A    between atoms: P_23  and  O_22 
REMARK   14  A    between atoms: P_23  and  O_24 
REMARK   15  A    between atoms: P_23  and  O_26 
REMARK   16  A    between atoms: O_26  and  C_27 
REMARK   17  A    between atoms: C_28  and  C_27 
REMARK   18  A    between atoms: C_30  and  N_35 
REMARK   19  A    between atoms: C_31  and  O_32 
REMARK   20  A    between atoms: C_33  and  O_34 
REMARK   21  A    between atoms: C_46  and  N_47 
ROOT
HETATM    1  P   UNK N   1      21.381  20.149   2.720  0.00  0.00     0.401 P 
HETATM    2  O   UNK N   1      20.183  20.032   3.684  0.00  0.00    -0.631 OA
ENDROOT
BRANCH   1   3
HETATM    3  O   UNK N   1      22.870  19.487   3.390  0.00  0.00    -0.294 OA
BRANCH   3   4
HETATM    4  C   UNK N   1      23.971  20.270   3.031  0.00  0.00     0.215 C 
BRANCH   4   5
HETATM    5  C   UNK N   1      25.313  19.579   3.312  0.00  0.00     0.173 C 
BRANCH   5   6
HETATM    6  C   UNK N   1      25.222  18.761   4.602  0.00  0.00     0.179 C 
BRANCH   6   7
HETATM    7  C   UNK N   1      26.536  18.580   5.287  0.00  0.00     0.167 C 
BRANCH   7   8
HETATM    8  C   UNK N   1      26.816  17.178   5.852  0.00  0.00     0.165 C 
BRANCH   8   9
HETATM    9  N   UNK N   1      28.119  16.773   5.328  0.00  0.00    -0.327 N 
HETATM   10  C   UNK N   1      29.256  16.997   6.060  0.00  0.00     0.063 A 
HETATM   11  C   UNK N   1      30.462  16.386   5.671  0.00  0.00     0.060 A 
HETATM   12  C   UNK N   1      29.216  17.744   7.252  0.00  0.00     0.039 A 
HETATM   13  C   UNK N   1      31.592  16.496   6.488  0.00  0.00     0.039 A 
HETATM   14  N   UNK N   1      30.491  15.610   4.553  0.00  0.00    -0.347 N 
HETATM   15  C   UNK N   1      31.531  17.214   7.692  0.00  0.00    -0.054 A 
HETATM   16  C   UNK N   1      32.734  17.262   8.571  0.00  0.00     0.049 C 
HETATM   17  C   UNK N   1      30.337  17.852   8.068  0.00  0.00    -0.054 A 
HETATM   18  C   UNK N   1      30.224  18.616   9.345  0.00  0.00     0.049 C 
HETATM   19  C   UNK N   1      29.365  15.401   3.818  0.00  0.00     0.146 A 
ATOM     20  HN  UNK N   1      31.368  15.180   4.263  1.00  0.00     0.166 HD
HETATM   21  C   UNK N   1      29.364  14.547   2.708  0.00  0.00     0.280 A 
HETATM   22  C   UNK N   1      28.152  15.993   4.209  0.00  0.00     0.145 A 
HETATM   23  N   UNK N   1      28.199  14.316   2.027  0.00  0.00    -0.273 N 
HETATM   24  O   UNK N   1      30.390  13.988   2.359  0.00  0.00    -0.265 OA
HETATM   25  C   UNK N   1      27.026  14.905   2.422  0.00  0.00     0.328 A 
HETATM   26  H   UNK N   1      28.204  13.719   1.244  0.00  0.00     0.173 HD
HETATM   27  N   UNK N   1      27.014  15.732   3.511  0.00  0.00    -0.292 N 
HETATM   28  O   UNK N   1      25.997  14.685   1.813  0.00  0.00    -0.247 OA
ATOM     29  HN  UNK N   1      26.137  16.161   3.805  1.00  0.00     0.172 HD
ENDBRANCH   8   9
ENDBRANCH   7   8
BRANCH   7  30
HETATM   30  O   UNK N   1      26.659  19.587   6.256  0.00  0.00    -0.391 OA
HETATM   31  H   UNK N   1      26.331  20.423   6.624  0.00  0.00     0.210 HD
ENDBRANCH   7  30
ENDBRANCH   6   7
BRANCH   6  32
HETATM   32  O   UNK N   1      24.760  17.474   4.305  0.00  0.00    -0.390 OA
HETATM   33  H   UNK N   1      24.581  16.881   3.559  0.00  0.00     0.210 HD
ENDBRANCH   6  32
ENDBRANCH   5   6
BRANCH   5  34
HETATM   34  O   UNK N   1      26.361  20.507   3.374  0.00  0.00    -0.391 OA
HETATM   35  H   UNK N   1      27.196  20.735   3.812  0.00  0.00     0.210 HD
ENDBRANCH   5  34
ENDBRANCH   4   5
ENDBRANCH   3   4
ENDBRANCH   1   3
BRANCH   1  36
HETATM   36  O   UNK N   1      21.561  21.859   2.498  0.00  0.00    -0.307 OA
HETATM   37  H   UNK N   1      21.634  22.765   2.159  0.00  0.00     0.222 HD
ENDBRANCH   1  36
BRANCH   1  38
HETATM   38  O   UNK N   1      20.818  19.366   1.280  0.00  0.00    -0.195 OA
BRANCH  38  39
HETATM   39  P   UNK N   1      19.966  17.966   1.811  0.00  0.00     0.401 P 
HETATM   40  O   UNK N   1      19.762  17.104   0.540  0.00  0.00    -0.631 OA
BRANCH  39  41
HETATM   41  O   UNK N   1      18.405  18.453   2.395  0.00  0.00    -0.307 OA
HETATM   42  H   UNK N   1      17.834  18.698   3.140  0.00  0.00     0.222 HD
ENDBRANCH  39  41
BRANCH  39  43
HETATM   43  O   UNK N   1      20.935  17.052   2.948  0.00  0.00    -0.294 OA
BRANCH  43  44
HETATM   44  C   UNK N   1      20.861  15.712   2.587  0.00  0.00     0.215 C 
BRANCH  44  45
HETATM   45  C   UNK N   1      22.237  15.164   2.232  0.00  0.00     0.180 C 
HETATM   46  O   UNK N   1      23.160  15.538   3.241  0.00  0.00    -0.353 OA
HETATM   47  C   UNK N   1      23.184  14.468   4.151  0.00  0.00     0.262 C 
HETATM   48  C   UNK N   1      23.035  13.228   3.284  0.00  0.00     0.198 C 
HETATM   49  C   UNK N   1      22.181  13.654   2.139  0.00  0.00     0.182 C 
BRANCH  47  50
HETATM   50  N   UNK N   1      22.173  14.648   5.216  0.00  0.00    -0.297 N 
HETATM   51  C   UNK N   1      21.543  13.652   5.895  0.00  0.00     0.188 A 
HETATM   52  N   UNK N   1      20.727  14.142   6.869  0.00  0.00    -0.346 N 
HETATM   53  C   UNK N   1      20.884  15.474   6.798  0.00  0.00     0.122 A 
ATOM     54  HN  UNK N   1      20.130  13.617   7.507  1.00  0.00     0.167 HD
HETATM   55  C   UNK N   1      21.751  15.782   5.813  0.00  0.00     0.142 A 
HETATM   56  C   UNK N   1      20.325  16.474   7.580  0.00  0.00     0.131 A 
HETATM   57  N   UNK N   1      22.124  17.059   5.556  0.00  0.00    -0.336 N 
HETATM   58  C   UNK N   1      21.575  18.060   6.318  0.00  0.00     0.183 A 
ATOM     59  HN  UNK N   1      22.794  17.272   4.817  1.00  0.00     0.168 HD
HETATM   60  N   UNK N   1      20.683  17.766   7.318  0.00  0.00    -0.337 N 
ATOM     61  HN  UNK N   1      20.282  18.522   7.874  1.00  0.00     0.168 HD
BRANCH  56  62
HETATM   62  N   UNK N   1      19.434  16.174   8.628  0.00  0.00    -0.383 N 
HETATM   63  H   UNK N   1      19.495  16.503   9.553  0.00  0.00     0.157 HD
HETATM   64  H   UNK N   1      18.678  15.579   8.414  0.00  0.00     0.157 HD
ENDBRANCH  56  62
ENDBRANCH  47  50
BRANCH  48  65
HETATM   65  O   UNK N   1      22.532  12.106   3.940  0.00  0.00    -0.388 OA
HETATM   66  H   UNK N   1      22.825  11.599   4.714  0.00  0.00     0.210 HD
ENDBRANCH  48  65
BRANCH  49  67
HETATM   67  O   UNK N   1      22.789  13.238   0.953  0.00  0.00    -0.390 OA
HETATM   68  H   UNK N   1      23.721  12.968   0.952  0.00  0.00     0.210 HD
ENDBRANCH  49  67
ENDBRANCH  44  45
ENDBRANCH  43  44
ENDBRANCH  39  43
ENDBRANCH  38  39
ENDBRANCH   1  38
TORSDOF 21
ENDMDL
MODEL 6
REMARK VINA RESULT:      -9.0      2.401      4.261
REMARK  21 active torsions:
REMARK  status: ('A' for Active; 'I' for Inactive)
REMARK    1  A    between atoms: N_9  and  C_10 
REMARK    2  A    between atoms: C_10  and  C_11 
REMARK    3  A    between atoms: C_11  and  O_12 
REMARK    4  A    between atoms: C_11  and  C_13 
REMARK    5  A    between atoms: C_13  and  O_14 
REMARK    6  A    between atoms: C_13  and  C_15 
REMARK    7  A    between atoms: C_15  and  O_16 
REMARK    8  A    between atoms: C_15  and  C_17 
REMARK    9  A    between atoms: C_17  and  O_18 
REMARK   10  A    between atoms: P_19  and  O_18 
REMARK   11  A    between atoms: P_19  and  O_20 
REMARK   12  A    between atoms: P_19  and  O_22 
REMARK   13  A    between atoms: P_23  and  O_22 
REMARK   14  A    between atoms: P_23  and  O_24 
REMARK   15  A    between atoms: P_23  and  O_26 
REMARK   16  A    between atoms: O_26  and  C_27 
REMARK   17  A    between atoms: C_28  and  C_27 
REMARK   18  A    between atoms: C_30  and  N_35 
REMARK   19  A    between atoms: C_31  and  O_32 
REMARK   20  A    between atoms: C_33  and  O_34 
REMARK   21  A    between atoms: C_46  and  N_47 
ROOT
HETATM    1  P   UNK N   1      34.275  17.817   8.074  0.00  0.00     0.401 P 
HETATM    2  O   UNK N   1      35.125  19.065   8.391  0.00  0.00    -0.631 OA
ENDROOT
BRANCH   1   3
HETATM    3  O   UNK N   1      34.775  16.396   8.986  0.00  0.00    -0.294 OA
BRANCH   3   4
HETATM    4  C   UNK N   1      35.171  16.746  10.280  0.00  0.00     0.215 C 
BRANCH   4   5
HETATM    5  C   UNK N   1      34.898  15.639  11.308  0.00  0.00     0.173 C 
BRANCH   5   6
HETATM    6  C   UNK N   1      35.954  14.538  11.187  0.00  0.00     0.179 C 
BRANCH   6   7
HETATM    7  C   UNK N   1      36.264  13.863  12.482  0.00  0.00     0.167 C 
BRANCH   7   8
HETATM    8  C   UNK N   1      35.112  13.070  13.123  0.00  0.00     0.165 C 
BRANCH   8   9
HETATM    9  N   UNK N   1      35.715  11.894  13.745  0.00  0.00    -0.327 N 
HETATM   10  C   UNK N   1      35.792  11.800  15.111  0.00  0.00     0.063 A 
HETATM   11  C   UNK N   1      36.137  10.571  15.702  0.00  0.00     0.060 A 
HETATM   12  C   UNK N   1      35.431  12.883  15.935  0.00  0.00     0.039 A 
HETATM   13  C   UNK N   1      36.083  10.429  17.092  0.00  0.00     0.039 A 
HETATM   14  N   UNK N   1      36.425   9.503  14.910  0.00  0.00    -0.347 N 
HETATM   15  C   UNK N   1      35.687  11.505  17.902  0.00  0.00    -0.054 A 
HETATM   16  C   UNK N   1      35.580  11.305  19.375  0.00  0.00     0.049 C 
HETATM   17  C   UNK N   1      35.372  12.744  17.317  0.00  0.00    -0.054 A 
HETATM   18  C   UNK N   1      34.935  13.911  18.138  0.00  0.00     0.049 C 
HETATM   19  C   UNK N   1      36.365   9.602  13.554  0.00  0.00     0.146 A 
ATOM     20  HN  UNK N   1      36.690   8.617  15.338  1.00  0.00     0.166 HD
HETATM   21  C   UNK N   1      36.587   8.492  12.729  0.00  0.00     0.280 A 
HETATM   22  C   UNK N   1      36.003  10.820  12.955  0.00  0.00     0.145 A 
HETATM   23  N   UNK N   1      36.461   8.616  11.371  0.00  0.00    -0.273 N 
HETATM   24  O   UNK N   1      36.869   7.410  13.213  0.00  0.00    -0.265 OA
HETATM   25  C   UNK N   1      36.110   9.814  10.804  0.00  0.00     0.328 A 
HETATM   26  H   UNK N   1      36.623   7.835  10.794  0.00  0.00     0.173 HD
HETATM   27  N   UNK N   1      35.880  10.901  11.602  0.00  0.00    -0.292 N 
HETATM   28  O   UNK N   1      35.993   9.909   9.599  0.00  0.00    -0.247 OA
ATOM     29  HN  UNK N   1      35.611  11.788  11.176  1.00  0.00     0.172 HD
ENDBRANCH   8   9
ENDBRANCH   7   8
BRANCH   7  30
HETATM   30  O   UNK N   1      36.807  14.823  13.349  0.00  0.00    -0.391 OA
HETATM   31  H   UNK N   1      36.821  15.743  13.658  0.00  0.00     0.210 HD
ENDBRANCH   7  30
ENDBRANCH   6   7
BRANCH   6  32
HETATM   32  O   UNK N   1      37.158  15.096  10.743  0.00  0.00    -0.390 OA
HETATM   33  H   UNK N   1      38.083  15.220  11.005  0.00  0.00     0.210 HD
ENDBRANCH   6  32
ENDBRANCH   5   6
BRANCH   5  34
HETATM   34  O   UNK N   1      33.605  15.117  11.165  0.00  0.00    -0.391 OA
HETATM   35  H   UNK N   1      32.689  15.320  10.918  0.00  0.00     0.210 HD
ENDBRANCH   5  34
ENDBRANCH   4   5
ENDBRANCH   3   4
ENDBRANCH   1   3
BRANCH   1  36
HETATM   36  O   UNK N   1      34.562  17.547   6.385  0.00  0.00    -0.307 OA
HETATM   37  H   UNK N   1      34.678  17.614   5.424  0.00  0.00     0.222 HD
ENDBRANCH   1  36
BRANCH   1  38
HETATM   38  O   UNK N   1      32.654  18.346   8.378  0.00  0.00    -0.195 OA
BRANCH  38  39
HETATM   39  P   UNK N   1      31.650  16.980   8.068  0.00  0.00     0.401 P 
HETATM   40  O   UNK N   1      30.242  17.562   7.787  0.00  0.00    -0.631 OA
BRANCH  39  41
HETATM   41  O   UNK N   1      31.563  16.015   9.508  0.00  0.00    -0.307 OA
HETATM   42  H   UNK N   1      31.401  15.956  10.463  0.00  0.00     0.222 HD
ENDBRANCH  39  41
BRANCH  39  43
HETATM   43  O   UNK N   1      32.192  16.134   6.635  0.00  0.00    -0.294 OA
BRANCH  43  44
HETATM   44  C   UNK N   1      31.231  15.180   6.317  0.00  0.00     0.215 C 
BRANCH  44  45
HETATM   45  C   UNK N   1      31.532  14.528   4.973  0.00  0.00     0.180 C 
HETATM   46  O   UNK N   1      30.329  14.411   4.233  0.00  0.00    -0.353 OA
HETATM   47  C   UNK N   1      30.256  15.566   3.437  0.00  0.00     0.262 C 
HETATM   48  C   UNK N   1      31.696  15.847   3.042  0.00  0.00     0.198 C 
HETATM   49  C   UNK N   1      32.515  15.380   4.198  0.00  0.00     0.182 C 
BRANCH  47  50
HETATM   50  N   UNK N   1      29.544  16.657   4.140  0.00  0.00    -0.297 N 
HETATM   51  C   UNK N   1      30.006  17.923   4.319  0.00  0.00     0.188 A 
HETATM   52  N   UNK N   1      29.084  18.715   4.935  0.00  0.00    -0.346 N 
HETATM   53  C   UNK N   1      28.020  17.913   5.111  0.00  0.00     0.122 A 
ATOM     54  HN  UNK N   1      29.179  19.694   5.203  1.00  0.00     0.167 HD
HETATM   55  C   UNK N   1      28.289  16.682   4.634  0.00  0.00     0.142 A 
HETATM   56  C   UNK N   1      26.776  18.199   5.653  0.00  0.00     0.131 A 
HETATM   57  N   UNK N   1      27.368  15.688   4.646  0.00  0.00    -0.336 N 
HETATM   58  C   UNK N   1      26.135  15.955   5.184  0.00  0.00     0.183 A 
ATOM     59  HN  UNK N   1      27.585  14.767   4.265  1.00  0.00     0.168 HD
HETATM   60  N   UNK N   1      25.846  17.200   5.684  0.00  0.00    -0.337 N 
ATOM     61  HN  UNK N   1      24.925  17.382   6.083  1.00  0.00     0.168 HD
BRANCH  56  62
HETATM   62  N   UNK N   1      26.466  19.484   6.139  0.00  0.00    -0.383 N 
HETATM   63  H   UNK N   1      26.525  19.780   7.076  0.00  0.00     0.157 HD
HETATM   64  H   UNK N   1      26.161  20.149   5.479  0.00  0.00     0.157 HD
ENDBRANCH  56  62
ENDBRANCH  47  50
BRANCH  48  65
HETATM   65  O   UNK N   1      31.966  17.169   2.693  0.00  0.00    -0.388 OA
HETATM   66  H   UNK N   1      32.782  17.692   2.647  0.00  0.00     0.210 HD
ENDBRANCH  48  65
BRANCH  49  67
HETATM   67  O   UNK N   1      33.548  14.575   3.714  0.00  0.00    -0.390 OA
HETATM   68  H   UNK N   1      33.348  13.713   3.315  0.00  0.00     0.210 HD
ENDBRANCH  49  67
ENDBRANCH  44  45
ENDBRANCH  43  44
ENDBRANCH  39  43
ENDBRANCH  38  39
ENDBRANCH   1  38
TORSDOF 21
ENDMDL
MODEL 7
REMARK VINA RESULT:      -8.9      3.070      5.143
REMARK  21 active torsions:
REMARK  status: ('A' for Active; 'I' for Inactive)
REMARK    1  A    between atoms: N_9  and  C_10 
REMARK    2  A    between atoms: C_10  and  C_11 
REMARK    3  A    between atoms: C_11  and  O_12 
REMARK    4  A    between atoms: C_11  and  C_13 
REMARK    5  A    between atoms: C_13  and  O_14 
REMARK    6  A    between atoms: C_13  and  C_15 
REMARK    7  A    between atoms: C_15  and  O_16 
REMARK    8  A    between atoms: C_15  and  C_17 
REMARK    9  A    between atoms: C_17  and  O_18 
REMARK   10  A    between atoms: P_19  and  O_18 
REMARK   11  A    between atoms: P_19  and  O_20 
REMARK   12  A    between atoms: P_19  and  O_22 
REMARK   13  A    between atoms: P_23  and  O_22 
REMARK   14  A    between atoms: P_23  and  O_24 
REMARK   15  A    between atoms: P_23  and  O_26 
REMARK   16  A    between atoms: O_26  and  C_27 
REMARK   17  A    between atoms: C_28  and  C_27 
REMARK   18  A    between atoms: C_30  and  N_35 
REMARK   19  A    between atoms: C_31  and  O_32 
REMARK   20  A    between atoms: C_33  and  O_34 
REMARK   21  A    between atoms: C_46  and  N_47 
ROOT
HETATM    1  P   UNK N   1      32.877  14.982   9.059  0.00  0.00     0.401 P 
HETATM    2  O   UNK N   1      32.643  13.474   8.837  0.00  0.00    -0.631 OA
ENDROOT
BRANCH   1   3
HETATM    3  O   UNK N   1      33.510  15.350  10.662  0.00  0.00    -0.294 OA
BRANCH   3   4
HETATM    4  C   UNK N   1      34.523  14.453  11.016  0.00  0.00     0.215 C 
BRANCH   4   5
HETATM    5  C   UNK N   1      35.911  15.108  11.060  0.00  0.00     0.173 C 
BRANCH   5   6
HETATM    6  C   UNK N   1      36.849  14.418  10.067  0.00  0.00     0.179 C 
BRANCH   6   7
HETATM    7  C   UNK N   1      36.216  13.275   9.345  0.00  0.00     0.167 C 
BRANCH   7   8
HETATM    8  C   UNK N   1      36.748  11.876   9.698  0.00  0.00     0.165 C 
BRANCH   8   9
HETATM    9  N   UNK N   1      35.605  11.110  10.188  0.00  0.00    -0.327 N 
HETATM   10  C   UNK N   1      35.413  10.943  11.536  0.00  0.00     0.063 A 
HETATM   11  C   UNK N   1      34.190  10.428  12.003  0.00  0.00     0.060 A 
HETATM   12  C   UNK N   1      36.378  11.374  12.465  0.00  0.00     0.039 A 
HETATM   13  C   UNK N   1      33.933  10.385  13.377  0.00  0.00     0.039 A 
HETATM   14  N   UNK N   1      33.228  10.070  11.110  0.00  0.00    -0.347 N 
HETATM   15  C   UNK N   1      34.889  10.851  14.293  0.00  0.00    -0.054 A 
HETATM   16  C   UNK N   1      34.563  10.848  15.748  0.00  0.00     0.049 C 
HETATM   17  C   UNK N   1      36.125  11.336  13.832  0.00  0.00    -0.054 A 
HETATM   18  C   UNK N   1      37.165  11.851  14.769  0.00  0.00     0.049 C 
HETATM   19  C   UNK N   1      33.425  10.220   9.772  0.00  0.00     0.146 A 
ATOM     20  HN  UNK N   1      32.348   9.682  11.448  1.00  0.00     0.166 HD
HETATM   21  C   UNK N   1      32.417   9.924   8.845  0.00  0.00     0.280 A 
HETATM   22  C   UNK N   1      34.636  10.751   9.297  0.00  0.00     0.145 A 
HETATM   23  N   UNK N   1      32.632  10.143   7.511  0.00  0.00    -0.273 N 
HETATM   24  O   UNK N   1      31.341   9.495   9.222  0.00  0.00    -0.265 OA
HETATM   25  C   UNK N   1      33.822  10.658   7.066  0.00  0.00     0.328 A 
HETATM   26  H   UNK N   1      31.923   9.928   6.863  0.00  0.00     0.173 HD
HETATM   27  N   UNK N   1      34.809  10.961   7.964  0.00  0.00    -0.292 N 
HETATM   28  O   UNK N   1      33.997  10.855   5.880  0.00  0.00    -0.247 OA
ATOM     29  HN  UNK N   1      35.689  11.352   7.628  1.00  0.00     0.172 HD
ENDBRANCH   8   9
ENDBRANCH   7   8
BRANCH   7  30
HETATM   30  O   UNK N   1      36.280  13.546   7.970  0.00  0.00    -0.391 OA
HETATM   31  H   UNK N   1      35.844  13.896   7.176  0.00  0.00     0.210 HD
ENDBRANCH   7  30
ENDBRANCH   6   7
BRANCH   6  32
HETATM   32  O   UNK N   1      37.943  13.883  10.756  0.00  0.00    -0.390 OA
HETATM   33  H   UNK N   1      38.850  14.093  11.028  0.00  0.00     0.210 HD
ENDBRANCH   6  32
ENDBRANCH   5   6
BRANCH   5  34
HETATM   34  O   UNK N   1      36.443  15.087  12.356  0.00  0.00    -0.391 OA
HETATM   35  H   UNK N   1      36.269  14.862  13.284  0.00  0.00     0.210 HD
ENDBRANCH   5  34
ENDBRANCH   4   5
ENDBRANCH   3   4
ENDBRANCH   1   3
BRANCH   1  36
HETATM   36  O   UNK N   1      31.292  15.668   8.896  0.00  0.00    -0.307 OA
HETATM   37  H   UNK N   1      30.379  15.888   8.656  0.00  0.00     0.222 HD
ENDBRANCH   1  36
BRANCH   1  38
HETATM   38  O   UNK N   1      33.913  15.429   7.745  0.00  0.00    -0.195 OA
BRANCH  38  39
HETATM   39  P   UNK N   1      33.694  17.124   7.531  0.00  0.00     0.401 P 
HETATM   40  O   UNK N   1      34.648  17.517   6.374  0.00  0.00    -0.631 OA
BRANCH  39  41
HETATM   41  O   UNK N   1      34.219  17.940   8.971  0.00  0.00    -0.307 OA
HETATM   42  H   UNK N   1      34.677  17.909   9.825  0.00  0.00     0.222 HD
ENDBRANCH  39  41
BRANCH  39  43
HETATM   43  O   UNK N   1      32.052  17.473   7.033  0.00  0.00    -0.294 OA
BRANCH  43  44
HETATM   44  C   UNK N   1      31.996  17.364   5.649  0.00  0.00     0.215 C 
BRANCH  44  45
HETATM   45  C   UNK N   1      31.784  15.917   5.222  0.00  0.00     0.180 C 
HETATM   46  O   UNK N   1      30.660  15.390   5.907  0.00  0.00    -0.353 OA
HETATM   47  C   UNK N   1      29.562  15.599   5.056  0.00  0.00     0.262 C 
HETATM   48  C   UNK N   1      30.120  15.389   3.657  0.00  0.00     0.198 C 
HETATM   49  C   UNK N   1      31.536  15.854   3.730  0.00  0.00     0.182 C 
BRANCH  47  50
HETATM   50  N   UNK N   1      28.922  16.907   5.317  0.00  0.00    -0.297 N 
HETATM   51  C   UNK N   1      28.393  17.737   4.379  0.00  0.00     0.188 A 
HETATM   52  N   UNK N   1      27.806  18.829   4.944  0.00  0.00    -0.346 N 
HETATM   53  C   UNK N   1      27.959  18.644   6.266  0.00  0.00     0.122 A 
ATOM     54  HN  UNK N   1      27.353  19.610   4.472  1.00  0.00     0.167 HD
HETATM   55  C   UNK N   1      28.623  17.494   6.494  0.00  0.00     0.142 A 
HETATM   56  C   UNK N   1      27.520  19.424   7.326  0.00  0.00     0.131 A 
HETATM   57  N   UNK N   1      28.874  17.045   7.748  0.00  0.00    -0.336 N 
HETATM   58  C   UNK N   1      28.450  17.808   8.806  0.00  0.00     0.183 A 
ATOM     59  HN  UNK N   1      29.364  16.164   7.902  1.00  0.00     0.168 HD
HETATM   60  N   UNK N   1      27.781  18.987   8.593  0.00  0.00    -0.337 N 
ATOM     61  HN  UNK N   1      27.474  19.544   9.391  1.00  0.00     0.168 HD
BRANCH  56  62
HETATM   62  N   UNK N   1      26.805  20.618   7.111  0.00  0.00    -0.383 N 
HETATM   63  H   UNK N   1      25.974  20.886   7.564  0.00  0.00     0.157 HD
HETATM   64  H   UNK N   1      27.172  21.244   6.444  0.00  0.00     0.157 HD
ENDBRANCH  56  62
ENDBRANCH  47  50
BRANCH  48  65
HETATM   65  O   UNK N   1      29.403  16.011   2.636  0.00  0.00    -0.388 OA
HETATM   66  H   UNK N   1      29.149  15.740   1.740  0.00  0.00     0.210 HD
ENDBRANCH  48  65
BRANCH  49  67
HETATM   67  O   UNK N   1      32.353  14.874   3.163  0.00  0.00    -0.390 OA
HETATM   68  H   UNK N   1      31.967  14.183   2.601  0.00  0.00     0.210 HD
ENDBRANCH  49  67
ENDBRANCH  44  45
ENDBRANCH  43  44
ENDBRANCH  39  43
ENDBRANCH  38  39
ENDBRANCH   1  38
TORSDOF 21
ENDMDL
MODEL 8
REMARK VINA RESULT:      -8.8      3.058      5.859
REMARK  21 active torsions:
REMARK  status: ('A' for Active; 'I' for Inactive)
REMARK    1  A    between atoms: N_9  and  C_10 
REMARK    2  A    between atoms: C_10  and  C_11 
REMARK    3  A    between atoms: C_11  and  O_12 
REMARK    4  A    between atoms: C_11  and  C_13 
REMARK    5  A    between atoms: C_13  and  O_14 
REMARK    6  A    between atoms: C_13  and  C_15 
REMARK    7  A    between atoms: C_15  and  O_16 
REMARK    8  A    between atoms: C_15  and  C_17 
REMARK    9  A    between atoms: C_17  and  O_18 
REMARK   10  A    between atoms: P_19  and  O_18 
REMARK   11  A    between atoms: P_19  and  O_20 
REMARK   12  A    between atoms: P_19  and  O_22 
REMARK   13  A    between atoms: P_23  and  O_22 
REMARK   14  A    between atoms: P_23  and  O_24 
REMARK   15  A    between atoms: P_23  and  O_26 
REMARK   16  A    between atoms: O_26  and  C_27 
REMARK   17  A    between atoms: C_28  and  C_27 
REMARK   18  A    between atoms: C_30  and  N_35 
REMARK   19  A    between atoms: C_31  and  O_32 
REMARK   20  A    between atoms: C_33  and  O_34 
REMARK   21  A    between atoms: C_46  and  N_47 
ROOT
HETATM    1  P   UNK N   1      33.060  10.191   8.533  0.00  0.00     0.401 P 
HETATM    2  O   UNK N   1      32.045   9.682   7.489  0.00  0.00    -0.631 OA
ENDROOT
BRANCH   1   3
HETATM    3  O   UNK N   1      34.110   8.917   9.148  0.00  0.00    -0.294 OA
BRANCH   3   4
HETATM    4  C   UNK N   1      33.800   8.611  10.477  0.00  0.00     0.215 C 
BRANCH   4   5
HETATM    5  C   UNK N   1      34.602   9.446  11.484  0.00  0.00     0.173 C 
BRANCH   5   6
HETATM    6  C   UNK N   1      35.670   8.578  12.154  0.00  0.00     0.179 C 
BRANCH   6   7
HETATM    7  C   UNK N   1      35.930   8.945  13.578  0.00  0.00     0.167 C 
BRANCH   7   8
HETATM    8  C   UNK N   1      37.092   9.922  13.821  0.00  0.00     0.165 C 
BRANCH   8   9
HETATM    9  N   UNK N   1      36.494  11.244  13.992  0.00  0.00    -0.327 N 
HETATM   10  C   UNK N   1      36.022  11.633  15.219  0.00  0.00     0.063 A 
HETATM   11  C   UNK N   1      35.683  12.982  15.434  0.00  0.00     0.060 A 
HETATM   12  C   UNK N   1      35.970  10.730  16.297  0.00  0.00     0.039 A 
HETATM   13  C   UNK N   1      35.334  13.414  16.718  0.00  0.00     0.039 A 
HETATM   14  N   UNK N   1      35.793  13.873  14.412  0.00  0.00    -0.347 N 
HETATM   15  C   UNK N   1      35.320  12.512  17.792  0.00  0.00    -0.054 A 
HETATM   16  C   UNK N   1      35.004  13.015  19.159  0.00  0.00     0.049 C 
HETATM   17  C   UNK N   1      35.628  11.158  17.575  0.00  0.00    -0.054 A 
HETATM   18  C   UNK N   1      35.635  10.166  18.690  0.00  0.00     0.049 C 
HETATM   19  C   UNK N   1      36.246  13.482  13.190  0.00  0.00     0.146 A 
ATOM     20  HN  UNK N   1      35.532  14.847  14.564  1.00  0.00     0.166 HD
HETATM   21  C   UNK N   1      36.433  14.402  12.150  0.00  0.00     0.280 A 
HETATM   22  C   UNK N   1      36.604  12.141  12.970  0.00  0.00     0.145 A 
HETATM   23  N   UNK N   1      36.945  13.981  10.951  0.00  0.00    -0.273 N 
HETATM   24  O   UNK N   1      36.166  15.580  12.313  0.00  0.00    -0.265 OA
HETATM   25  C   UNK N   1      37.286  12.668  10.755  0.00  0.00     0.328 A 
HETATM   26  H   UNK N   1      37.070  14.630  10.222  0.00  0.00     0.173 HD
HETATM   27  N   UNK N   1      37.117  11.764  11.768  0.00  0.00    -0.292 N 
HETATM   28  O   UNK N   1      37.747  12.309   9.690  0.00  0.00    -0.247 OA
ATOM     29  HN  UNK N   1      37.380  10.790  11.619  1.00  0.00     0.172 HD
ENDBRANCH   8   9
ENDBRANCH   7   8
BRANCH   7  30
HETATM   30  O   UNK N   1      36.060   7.757  14.312  0.00  0.00    -0.391 OA
HETATM   31  H   UNK N   1      35.676   7.134  14.949  0.00  0.00     0.210 HD
ENDBRANCH   7  30
ENDBRANCH   6   7
BRANCH   6  32
HETATM   32  O   UNK N   1      36.887   8.739  11.483  0.00  0.00    -0.390 OA
HETATM   33  H   UNK N   1      37.456   9.417  11.088  0.00  0.00     0.210 HD
ENDBRANCH   6  32
ENDBRANCH   5   6
BRANCH   5  34
HETATM   34  O   UNK N   1      33.763  10.040  12.437  0.00  0.00    -0.391 OA
HETATM   35  H   UNK N   1      32.843  10.238  12.672  0.00  0.00     0.210 HD
ENDBRANCH   5  34
ENDBRANCH   4   5
ENDBRANCH   3   4
ENDBRANCH   1   3
BRANCH   1  36
HETATM   36  O   UNK N   1      32.060  10.782   9.820  0.00  0.00    -0.307 OA
HETATM   37  H   UNK N   1      31.691  11.111  10.654  0.00  0.00     0.222 HD
ENDBRANCH   1  36
BRANCH   1  38
HETATM   38  O   UNK N   1      33.878  11.476   7.707  0.00  0.00    -0.195 OA
BRANCH  38  39
HETATM   39  P   UNK N   1      33.917  12.795   8.815  0.00  0.00     0.401 P 
HETATM   40  O   UNK N   1      34.342  12.178  10.171  0.00  0.00    -0.631 OA
BRANCH  39  41
HETATM   41  O   UNK N   1      32.309  13.427   8.984  0.00  0.00    -0.307 OA
HETATM   42  H   UNK N   1      31.661  13.926   9.505  0.00  0.00     0.222 HD
ENDBRANCH  39  41
BRANCH  39  43
HETATM   43  O   UNK N   1      35.130  13.963   8.336  0.00  0.00    -0.294 OA
BRANCH  43  44
HETATM   44  C   UNK N   1      34.515  14.902   7.517  0.00  0.00     0.215 C 
BRANCH  44  45
HETATM   45  C   UNK N   1      34.806  16.319   7.995  0.00  0.00     0.180 C 
HETATM   46  O   UNK N   1      34.580  17.225   6.929  0.00  0.00    -0.353 OA
HETATM   47  C   UNK N   1      33.251  17.659   7.072  0.00  0.00     0.262 C 
HETATM   48  C   UNK N   1      33.039  17.746   8.574  0.00  0.00     0.198 C 
HETATM   49  C   UNK N   1      33.892  16.668   9.151  0.00  0.00     0.182 C 
BRANCH  47  50
HETATM   50  N   UNK N   1      32.319  16.781   6.328  0.00  0.00    -0.297 N 
HETATM   51  C   UNK N   1      31.057  16.452   6.712  0.00  0.00     0.188 A 
HETATM   52  N   UNK N   1      30.426  15.693   5.774  0.00  0.00    -0.346 N 
HETATM   53  C   UNK N   1      31.321  15.579   4.778  0.00  0.00     0.122 A 
ATOM     54  HN  UNK N   1      29.486  15.299   5.817  1.00  0.00     0.167 HD
HETATM   55  C   UNK N   1      32.454  16.232   5.104  0.00  0.00     0.142 A 
HETATM   56  C   UNK N   1      31.203  14.946   3.550  0.00  0.00     0.131 A 
HETATM   57  N   UNK N   1      33.507  16.313   4.254  0.00  0.00    -0.336 N 
HETATM   58  C   UNK N   1      33.406  15.687   3.038  0.00  0.00     0.183 A 
ATOM     59  HN  UNK N   1      34.350  16.825   4.512  1.00  0.00     0.168 HD
HETATM   60  N   UNK N   1      32.264  15.009   2.693  0.00  0.00    -0.337 N 
ATOM     61  HN  UNK N   1      32.207  14.547   1.785  1.00  0.00     0.168 HD
BRANCH  56  62
HETATM   62  N   UNK N   1      30.020  14.276   3.181  0.00  0.00    -0.383 N 
HETATM   63  H   UNK N   1      29.108  14.643   3.224  0.00  0.00     0.157 HD
HETATM   64  H   UNK N   1      30.115  13.354   2.848  0.00  0.00     0.157 HD
ENDBRANCH  56  62
ENDBRANCH  47  50
BRANCH  48  65
HETATM   65  O   UNK N   1      31.711  17.659   8.989  0.00  0.00    -0.388 OA
HETATM   66  H   UNK N   1      31.291  17.412   9.828  0.00  0.00     0.210 HD
ENDBRANCH  48  65
BRANCH  49  67
HETATM   67  O   UNK N   1      34.647  17.210  10.194  0.00  0.00    -0.390 OA
HETATM   68  H   UNK N   1      35.534  16.867  10.384  0.00  0.00     0.210 HD
ENDBRANCH  49  67
ENDBRANCH  44  45
ENDBRANCH  43  44
ENDBRANCH  39  43
ENDBRANCH  38  39
ENDBRANCH   1  38
TORSDOF 21
ENDMDL
MODEL 9
REMARK VINA RESULT:      -8.7      4.122      5.800
REMARK  21 active torsions:
REMARK  status: ('A' for Active; 'I' for Inactive)
REMARK    1  A    between atoms: N_9  and  C_10 
REMARK    2  A    between atoms: C_10  and  C_11 
REMARK    3  A    between atoms: C_11  and  O_12 
REMARK    4  A    between atoms: C_11  and  C_13 
REMARK    5  A    between atoms: C_13  and  O_14 
REMARK    6  A    between atoms: C_13  and  C_15 
REMARK    7  A    between atoms: C_15  and  O_16 
REMARK    8  A    between atoms: C_15  and  C_17 
REMARK    9  A    between atoms: C_17  and  O_18 
REMARK   10  A    between atoms: P_19  and  O_18 
REMARK   11  A    between atoms: P_19  and  O_20 
REMARK   12  A    between atoms: P_19  and  O_22 
REMARK   13  A    between atoms: P_23  and  O_22 
REMARK   14  A    between atoms: P_23  and  O_24 
REMARK   15  A    between atoms: P_23  and  O_26 
REMARK   16  A    between atoms: O_26  and  C_27 
REMARK   17  A    between atoms: C_28  and  C_27 
REMARK   18  A    between atoms: C_30  and  N_35 
REMARK   19  A    between atoms: C_31  and  O_32 
REMARK   20  A    between atoms: C_33  and  O_34 
REMARK   21  A    between atoms: C_46  and  N_47 
ROOT
HETATM    1  P   UNK N   1      34.082  17.943   7.837  0.00  0.00     0.401 P 
HETATM    2  O   UNK N   1      32.606  18.311   8.090  0.00  0.00    -0.631 OA
ENDROOT
BRANCH   1   3
HETATM    3  O   UNK N   1      34.578  16.476   8.677  0.00  0.00    -0.294 OA
BRANCH   3   4
HETATM    4  C   UNK N   1      35.053  16.772   9.959  0.00  0.00     0.215 C 
BRANCH   4   5
HETATM    5  C   UNK N   1      35.875  15.627  10.570  0.00  0.00     0.173 C 
BRANCH   5   6
HETATM    6  C   UNK N   1      35.126  15.019  11.757  0.00  0.00     0.179 C 
BRANCH   6   7
HETATM    7  C   UNK N   1      35.773  13.790  12.304  0.00  0.00     0.167 C 
BRANCH   7   8
HETATM    8  C   UNK N   1      34.844  12.805  13.034  0.00  0.00     0.165 C 
BRANCH   8   9
HETATM    9  N   UNK N   1      35.686  11.701  13.489  0.00  0.00    -0.327 N 
HETATM   10  C   UNK N   1      35.889  11.496  14.830  0.00  0.00     0.063 A 
HETATM   11  C   UNK N   1      36.484  10.298  15.264  0.00  0.00     0.060 A 
HETATM   12  C   UNK N   1      35.418  12.416  15.784  0.00  0.00     0.039 A 
HETATM   13  C   UNK N   1      36.568  10.019  16.632  0.00  0.00     0.039 A 
HETATM   14  N   UNK N   1      36.883   9.375  14.347  0.00  0.00    -0.347 N 
HETATM   15  C   UNK N   1      36.063  10.929  17.574  0.00  0.00    -0.054 A 
HETATM   16  C   UNK N   1      36.112  10.577  19.022  0.00  0.00     0.049 C 
HETATM   17  C   UNK N   1      35.496  12.141  17.145  0.00  0.00    -0.054 A 
HETATM   18  C   UNK N   1      34.937  13.132  18.111  0.00  0.00     0.049 C 
HETATM   19  C   UNK N   1      36.696   9.587  13.016  0.00  0.00     0.146 A 
ATOM     20  HN  UNK N   1      37.328   8.514  14.661  1.00  0.00     0.166 HD
HETATM   21  C   UNK N   1      37.035   8.615  12.065  0.00  0.00     0.280 A 
HETATM   22  C   UNK N   1      36.086  10.773  12.573  0.00  0.00     0.145 A 
HETATM   23  N   UNK N   1      36.779   8.841  10.739  0.00  0.00    -0.273 N 
HETATM   24  O   UNK N   1      37.535   7.560  12.414  0.00  0.00    -0.265 OA
HETATM   25  C   UNK N   1      36.186  10.006  10.326  0.00  0.00     0.328 A 
HETATM   26  H   UNK N   1      37.024   8.158  10.074  0.00  0.00     0.173 HD
HETATM   27  N   UNK N   1      35.841  10.957  11.247  0.00  0.00    -0.292 N 
HETATM   28  O   UNK N   1      35.957  10.190   9.147  0.00  0.00    -0.247 OA
ATOM     29  HN  UNK N   1      35.393  11.817  10.935  1.00  0.00     0.172 HD
ENDBRANCH   8   9
ENDBRANCH   7   8
BRANCH   7  30
HETATM   30  O   UNK N   1      36.863  14.191  13.092  0.00  0.00    -0.391 OA
HETATM   31  H   UNK N   1      37.661  14.735  13.181  0.00  0.00     0.210 HD
ENDBRANCH   7  30
ENDBRANCH   6   7
BRANCH   6  32
HETATM   32  O   UNK N   1      33.844  14.633  11.350  0.00  0.00    -0.390 OA
HETATM   33  H   UNK N   1      33.052  14.968  10.903  0.00  0.00     0.210 HD
ENDBRANCH   6  32
ENDBRANCH   5   6
BRANCH   5  34
HETATM   34  O   UNK N   1      37.152  16.062  10.947  0.00  0.00    -0.391 OA
HETATM   35  H   UNK N   1      37.976  15.814  11.394  0.00  0.00     0.210 HD
ENDBRANCH   5  34
ENDBRANCH   4   5
ENDBRANCH   3   4
ENDBRANCH   1   3
BRANCH   1  36
HETATM   36  O   UNK N   1      34.956  19.296   8.477  0.00  0.00    -0.307 OA
HETATM   37  H   UNK N   1      35.481  19.916   9.007  0.00  0.00     0.222 HD
ENDBRANCH   1  36
BRANCH   1  38
HETATM   38  O   UNK N   1      34.187  17.864   6.109  0.00  0.00    -0.195 OA
BRANCH  38  39
HETATM   39  P   UNK N   1      33.289  16.467   5.648  0.00  0.00     0.401 P 
HETATM   40  O   UNK N   1      32.164  16.991   4.722  0.00  0.00    -0.631 OA
BRANCH  39  41
HETATM   41  O   UNK N   1      32.556  15.784   7.065  0.00  0.00    -0.307 OA
HETATM   42  H   UNK N   1      32.070  15.912   7.895  0.00  0.00     0.222 HD
ENDBRANCH  39  41
BRANCH  39  43
HETATM   43  O   UNK N   1      34.295  15.369   4.727  0.00  0.00    -0.294 OA
BRANCH  43  44
HETATM   44  C   UNK N   1      33.495  14.773   3.758  0.00  0.00     0.215 C 
BRANCH  44  45
HETATM   45  C   UNK N   1      34.339  14.013   2.744  0.00  0.00     0.180 C 
HETATM   46  O   UNK N   1      35.321  13.255   3.430  0.00  0.00    -0.353 OA
HETATM   47  C   UNK N   1      34.757  11.983   3.622  0.00  0.00     0.262 C 
HETATM   48  C   UNK N   1      33.944  11.734   2.362  0.00  0.00     0.198 C 
HETATM   49  C   UNK N   1      33.459  13.080   1.939  0.00  0.00     0.182 C 
BRANCH  47  50
HETATM   50  N   UNK N   1      34.019  11.913   4.903  0.00  0.00    -0.297 N 
HETATM   51  C   UNK N   1      32.867  11.225   5.122  0.00  0.00     0.188 A 
HETATM   52  N   UNK N   1      32.479  11.291   6.426  0.00  0.00    -0.346 N 
HETATM   53  C   UNK N   1      33.439  12.018   7.023  0.00  0.00     0.122 A 
ATOM     54  HN  UNK N   1      31.649  10.882   6.853  1.00  0.00     0.167 HD
HETATM   55  C   UNK N   1      34.363  12.389   6.117  0.00  0.00     0.142 A 
HETATM   56  C   UNK N   1      33.582  12.369   8.357  0.00  0.00     0.131 A 
HETATM   57  N   UNK N   1      35.467  13.096   6.463  0.00  0.00    -0.336 N 
HETATM   58  C   UNK N   1      35.620  13.455   7.778  0.00  0.00     0.183 A 
ATOM     59  HN  UNK N   1      36.165  13.355   5.766  1.00  0.00     0.168 HD
HETATM   60  N   UNK N   1      34.682  13.094   8.714  0.00  0.00    -0.337 N 
ATOM     61  HN  UNK N   1      34.809  13.371   9.688  1.00  0.00     0.168 HD
BRANCH  56  62
HETATM   62  N   UNK N   1      32.638  11.974   9.325  0.00  0.00    -0.383 N 
HETATM   63  H   UNK N   1      32.286  11.063   9.454  0.00  0.00     0.157 HD
HETATM   64  H   UNK N   1      32.297  12.673   9.929  0.00  0.00     0.157 HD
ENDBRANCH  56  62
ENDBRANCH  47  50
BRANCH  48  65
HETATM   65  O   UNK N   1      32.910  10.810   2.500  0.00  0.00    -0.388 OA
HETATM   66  H   UNK N   1      32.659  10.192   3.204  0.00  0.00     0.210 HD
ENDBRANCH  48  65
BRANCH  49  67
HETATM   67  O   UNK N   1      33.730  13.241   0.579  0.00  0.00    -0.390 OA
HETATM   68  H   UNK N   1      34.605  13.545   0.289  0.00  0.00     0.210 HD
ENDBRANCH  49  67
ENDBRANCH  44  45
ENDBRANCH  43  44
ENDBRANCH  39  43
ENDBRANCH  38  39
ENDBRANCH   1  38
TORSDOF 21
ENDMDL
