MODEL 1
REMARK VINA RESULT:      -8.5      0.000      0.000
REMARK  8 active torsions:
REMARK  status: ('A' for Active; 'I' for Inactive)
REMARK    1  A    between atoms: O_5  and  C_10 
REMARK    2  A    between atoms: O_6  and  C_11 
REMARK    3  A    between atoms: N_7  and  C_14 
REMARK    4  A    between atoms: N_7  and  C_15 
REMARK    5  A    between atoms: C_8  and  C_10 
REMARK    6  A    between atoms: C_9  and  C_11 
REMARK    7  A    between atoms: C_10  and  C_14 
REMARK    8  A    between atoms: C_11  and  C_15 
ROOT
HETATM    1  N   UNK N   1      35.298  17.436  10.407  0.00  0.00    -0.416 N 
HETATM    2  H   UNK N   1      35.711  18.358  10.545  0.00  0.00     0.153 HD
ENDROOT
BRANCH   1   3
HETATM    3  C   UNK N   1      34.453  17.007   9.312  0.00  0.00     0.148 C 
BRANCH   3   4
HETATM    4  C   UNK N   1      34.709  17.869   8.090  0.00  0.00     0.164 C 
BRANCH   4   5
HETATM    5  O   UNK N   1      34.943  19.177   8.516  0.00  0.00    -0.391 OA
HETATM    6  H   UNK N   1      34.906  19.926   7.900  0.00  0.00     0.210 HD
ENDBRANCH   4   5
BRANCH   4   7
HETATM    7  C   UNK N   1      33.467  17.824   7.217  0.00  0.00     0.159 C 
HETATM    8  O   UNK N   1      33.713  17.215   6.002  0.00  0.00    -0.343 OA
HETATM    9  C   UNK N   1      32.705  17.034   5.118  0.00  0.00     0.075 A 
HETATM   10  C   UNK N   1      31.365  17.057   5.560  0.00  0.00    -0.022 A 
HETATM   11  C   UNK N   1      32.990  16.845   3.765  0.00  0.00     0.040 A 
HETATM   12  C   UNK N   1      31.045  17.230   7.023  0.00  0.00     0.044 C 
HETATM   13  C   UNK N   1      30.326  16.926   4.635  0.00  0.00     0.052 A 
HETATM   14  C   UNK N   1      32.291  17.142   7.914  0.00  0.00     0.040 C 
HETATM   15  C   UNK N   1      30.617  16.760   3.278  0.00  0.00     0.117 A 
HETATM   16  F   UNK N   1      29.608  16.647   2.381  0.00  0.00    -0.206 F 
HETATM   17  C   UNK N   1      31.946  16.711   2.844  0.00  0.00     0.045 A 
ENDBRANCH   4   7
ENDBRANCH   3   4
ENDBRANCH   1   3
BRANCH   1  18
HETATM   18  C   UNK N   1      35.431  16.275  11.266  0.00  0.00     0.148 C 
BRANCH  18  19
HETATM   19  C   UNK N   1      36.248  15.179  10.603  0.00  0.00     0.164 C 
BRANCH  19  20
HETATM   20  O   UNK N   1      37.549  15.661  10.449  0.00  0.00    -0.391 OA
HETATM   21  H   UNK N   1      37.763  16.260   9.716  0.00  0.00     0.210 HD
ENDBRANCH  19  20
BRANCH  19  22
HETATM   22  C   UNK N   1      36.264  13.910  11.456  0.00  0.00     0.159 C 
HETATM   23  O   UNK N   1      36.113  14.230  12.793  0.00  0.00    -0.343 OA
HETATM   24  C   UNK N   1      36.274  13.307  13.764  0.00  0.00     0.075 A 
HETATM   25  C   UNK N   1      36.957  12.104  13.498  0.00  0.00    -0.022 A 
HETATM   26  C   UNK N   1      35.762  13.549  15.042  0.00  0.00     0.040 A 
HETATM   27  C   UNK N   1      37.536  11.846  12.133  0.00  0.00     0.044 C 
HETATM   28  C   UNK N   1      37.102  11.149  14.509  0.00  0.00     0.052 A 
HETATM   29  C   UNK N   1      37.549  13.104  11.254  0.00  0.00     0.040 C 
HETATM   30  C   UNK N   1      36.578  11.393  15.783  0.00  0.00     0.117 A 
HETATM   31  F   UNK N   1      36.722  10.470  16.762  0.00  0.00    -0.206 F 
HETATM   32  C   UNK N   1      35.912  12.593  16.049  0.00  0.00     0.045 A 
ENDBRANCH  19  22
ENDBRANCH  18  19
ENDBRANCH   1  18
TORSDOF 8
ENDMDL
MODEL 2
REMARK VINA RESULT:      -8.4      1.154     10.485
REMARK  8 active torsions:
REMARK  status: ('A' for Active; 'I' for Inactive)
REMARK    1  A    between atoms: O_5  and  C_10 
REMARK    2  A    between atoms: O_6  and  C_11 
REMARK    3  A    between atoms: N_7  and  C_14 
REMARK    4  A    between atoms: N_7  and  C_15 
REMARK    5  A    between atoms: C_8  and  C_10 
REMARK    6  A    between atoms: C_9  and  C_11 
REMARK    7  A    between atoms: C_10  and  C_14 
REMARK    8  A    between atoms: C_11  and  C_15 
ROOT
HETATM    1  N   UNK N   1      34.929  17.142  10.692  0.00  0.00    -0.416 N 
HETATM    2  H   UNK N   1      34.494  17.918  11.190  0.00  0.00     0.153 HD
ENDROOT
BRANCH   1   3
HETATM    3  C   UNK N   1      35.675  16.039  11.264  0.00  0.00     0.148 C 
BRANCH   3   4
HETATM    4  C   UNK N   1      34.921  14.738  11.055  0.00  0.00     0.164 C 
BRANCH   4   5
HETATM    5  O   UNK N   1      33.579  14.952  11.371  0.00  0.00    -0.391 OA
HETATM    6  H   UNK N   1      33.315  15.534  12.100  0.00  0.00     0.210 HD
ENDBRANCH   4   5
BRANCH   4   7
HETATM    7  C   UNK N   1      35.514  13.698  11.990  0.00  0.00     0.159 C 
HETATM    8  O   UNK N   1      34.982  13.786  13.261  0.00  0.00    -0.343 OA
HETATM    9  C   UNK N   1      35.353  12.898  14.212  0.00  0.00     0.075 A 
HETATM   10  C   UNK N   1      35.921  11.661  13.843  0.00  0.00    -0.022 A 
HETATM   11  C   UNK N   1      35.191  13.216  15.563  0.00  0.00     0.040 A 
HETATM   12  C   UNK N   1      36.072  11.293  12.389  0.00  0.00     0.044 C 
HETATM   13  C   UNK N   1      36.353  10.772  14.831  0.00  0.00     0.052 A 
HETATM   14  C   UNK N   1      35.356  12.277  11.454  0.00  0.00     0.040 C 
HETATM   15  C   UNK N   1      36.210  11.106  16.180  0.00  0.00     0.117 A 
HETATM   16  F   UNK N   1      36.642  10.248  17.136  0.00  0.00    -0.206 F 
HETATM   17  C   UNK N   1      35.623  12.321  16.546  0.00  0.00     0.045 A 
ENDBRANCH   4   7
ENDBRANCH   3   4
ENDBRANCH   1   3
BRANCH   1  18
HETATM   18  C   UNK N   1      34.934  16.906   9.262  0.00  0.00     0.148 C 
BRANCH  18  19
HETATM   19  C   UNK N   1      34.106  17.942   8.521  0.00  0.00     0.164 C 
BRANCH  19  20
HETATM   20  O   UNK N   1      34.987  18.723   7.771  0.00  0.00    -0.391 OA
HETATM   21  H   UNK N   1      35.890  18.411   7.600  0.00  0.00     0.210 HD
ENDBRANCH  19  20
BRANCH  19  22
HETATM   22  C   UNK N   1      33.088  17.275   7.595  0.00  0.00     0.159 C 
HETATM   23  O   UNK N   1      33.334  17.627   6.280  0.00  0.00    -0.343 OA
HETATM   24  C   UNK N   1      32.469  17.316   5.292  0.00  0.00     0.075 A 
HETATM   25  C   UNK N   1      31.137  16.967   5.592  0.00  0.00    -0.022 A 
HETATM   26  C   UNK N   1      32.898  17.342   3.962  0.00  0.00     0.040 A 
HETATM   27  C   UNK N   1      30.657  16.963   7.020  0.00  0.00     0.044 C 
HETATM   28  C   UNK N   1      30.256  16.631   4.560  0.00  0.00     0.052 A 
HETATM   29  C   UNK N   1      31.651  17.640   7.974  0.00  0.00     0.040 C 
HETATM   30  C   UNK N   1      30.696  16.650   3.232  0.00  0.00     0.117 A 
HETATM   31  F   UNK N   1      29.842  16.327   2.232  0.00  0.00    -0.206 F 
HETATM   32  C   UNK N   1      32.014  17.007   2.934  0.00  0.00     0.045 A 
ENDBRANCH  19  22
ENDBRANCH  18  19
ENDBRANCH   1  18
TORSDOF 8
ENDMDL
MODEL 3
REMARK VINA RESULT:      -8.4      2.092      2.997
REMARK  8 active torsions:
REMARK  status: ('A' for Active; 'I' for Inactive)
REMARK    1  A    between atoms: O_5  and  C_10 
REMARK    2  A    between atoms: O_6  and  C_11 
REMARK    3  A    between atoms: N_7  and  C_14 
REMARK    4  A    between atoms: N_7  and  C_15 
REMARK    5  A    between atoms: C_8  and  C_10 
REMARK    6  A    between atoms: C_9  and  C_11 
REMARK    7  A    between atoms: C_10  and  C_14 
REMARK    8  A    between atoms: C_11  and  C_15 
ROOT
HETATM    1  N   UNK N   1      34.936  15.600   9.280  0.00  0.00    -0.416 N 
HETATM    2  H   UNK N   1      34.424  15.099   8.555  0.00  0.00     0.153 HD
ENDROOT
BRANCH   1   3
HETATM    3  C   UNK N   1      35.017  17.035   9.466  0.00  0.00     0.148 C 
BRANCH   3   4
HETATM    4  C   UNK N   1      34.693  17.747   8.165  0.00  0.00     0.164 C 
BRANCH   4   5
HETATM    5  O   UNK N   1      34.712  19.122   8.400  0.00  0.00    -0.391 OA
HETATM    6  H   UNK N   1      33.922  19.595   8.708  0.00  0.00     0.210 HD
ENDBRANCH   4   5
BRANCH   4   7
HETATM    7  C   UNK N   1      33.303  17.315   7.729  0.00  0.00     0.159 C 
HETATM    8  O   UNK N   1      32.315  17.973   8.434  0.00  0.00    -0.343 OA
HETATM    9  C   UNK N   1      31.013  17.755   8.137  0.00  0.00     0.075 A 
HETATM   10  C   UNK N   1      30.654  17.221   6.881  0.00  0.00    -0.022 A 
HETATM   11  C   UNK N   1      30.026  18.042   9.082  0.00  0.00     0.040 A 
HETATM   12  C   UNK N   1      31.707  16.936   5.842  0.00  0.00     0.044 C 
HETATM   13  C   UNK N   1      29.312  16.946   6.602  0.00  0.00     0.052 A 
HETATM   14  C   UNK N   1      33.083  17.494   6.228  0.00  0.00     0.040 C 
HETATM   15  C   UNK N   1      28.331  17.212   7.560  0.00  0.00     0.117 A 
HETATM   16  F   UNK N   1      27.033  16.932   7.292  0.00  0.00    -0.206 F 
HETATM   17  C   UNK N   1      28.685  17.767   8.794  0.00  0.00     0.045 A 
ENDBRANCH   4   7
ENDBRANCH   3   4
ENDBRANCH   1   3
BRANCH   1  18
HETATM   18  C   UNK N   1      35.740  15.031  10.343  0.00  0.00     0.148 C 
BRANCH  18  19
HETATM   19  C   UNK N   1      35.009  15.060  11.675  0.00  0.00     0.164 C 
BRANCH  19  20
HETATM   20  O   UNK N   1      33.671  14.754  11.425  0.00  0.00    -0.391 OA
HETATM   21  H   UNK N   1      33.323  13.875  11.645  0.00  0.00     0.210 HD
ENDBRANCH  19  20
BRANCH  19  22
HETATM   22  C   UNK N   1      35.600  14.042  12.650  0.00  0.00     0.159 C 
HETATM   23  O   UNK N   1      34.610  13.199  13.121  0.00  0.00    -0.343 OA
HETATM   24  C   UNK N   1      34.840  12.332  14.130  0.00  0.00     0.075 A 
HETATM   25  C   UNK N   1      35.951  12.504  14.980  0.00  0.00    -0.022 A 
HETATM   26  C   UNK N   1      33.968  11.258  14.332  0.00  0.00     0.040 A 
HETATM   27  C   UNK N   1      36.879  13.673  14.787  0.00  0.00     0.044 C 
HETATM   28  C   UNK N   1      36.186  11.588  16.010  0.00  0.00     0.052 A 
HETATM   29  C   UNK N   1      36.309  14.722  13.824  0.00  0.00     0.040 C 
HETATM   30  C   UNK N   1      35.315  10.510  16.200  0.00  0.00     0.117 A 
HETATM   31  F   UNK N   1      35.542   9.625  17.199  0.00  0.00    -0.206 F 
HETATM   32  C   UNK N   1      34.207  10.347  15.363  0.00  0.00     0.045 A 
ENDBRANCH  19  22
ENDBRANCH  18  19
ENDBRANCH   1  18
TORSDOF 8
ENDMDL
MODEL 4
REMARK VINA RESULT:      -8.3      2.167     10.128
REMARK  8 active torsions:
REMARK  status: ('A' for Active; 'I' for Inactive)
REMARK    1  A    between atoms: O_5  and  C_10 
REMARK    2  A    between atoms: O_6  and  C_11 
REMARK    3  A    between atoms: N_7  and  C_14 
REMARK    4  A    between atoms: N_7  and  C_15 
REMARK    5  A    between atoms: C_8  and  C_10 
REMARK    6  A    between atoms: C_9  and  C_11 
REMARK    7  A    between atoms: C_10  and  C_14 
REMARK    8  A    between atoms: C_11  and  C_15 
ROOT
HETATM    1  N   UNK N   1      36.458  15.333  11.618  0.00  0.00    -0.416 N 
HETATM    2  H   UNK N   1      37.165  15.651  12.280  0.00  0.00     0.153 HD
ENDROOT
BRANCH   1   3
HETATM    3  C   UNK N   1      36.315  14.006  11.055  0.00  0.00     0.148 C 
BRANCH   3   4
HETATM    4  C   UNK N   1      37.207  13.028  11.798  0.00  0.00     0.164 C 
BRANCH   4   5
HETATM    5  O   UNK N   1      37.214  11.821  11.098  0.00  0.00    -0.391 OA
HETATM    6  H   UNK N   1      37.563  11.759  10.195  0.00  0.00     0.210 HD
ENDBRANCH   4   5
BRANCH   4   7
HETATM    7  C   UNK N   1      36.619  12.819  13.183  0.00  0.00     0.159 C 
HETATM    8  O   UNK N   1      36.820  13.916  13.998  0.00  0.00    -0.343 OA
HETATM    9  C   UNK N   1      36.312  13.929  15.252  0.00  0.00     0.075 A 
HETATM   10  C   UNK N   1      35.249  13.066  15.594  0.00  0.00    -0.022 A 
HETATM   11  C   UNK N   1      36.854  14.784  16.214  0.00  0.00     0.040 A 
HETATM   12  C   UNK N   1      34.636  12.161  14.557  0.00  0.00     0.044 C 
HETATM   13  C   UNK N   1      34.766  13.045  16.905  0.00  0.00     0.052 A 
HETATM   14  C   UNK N   1      35.134  12.466  13.138  0.00  0.00     0.040 C 
HETATM   15  C   UNK N   1      35.328  13.885  17.870  0.00  0.00     0.117 A 
HETATM   16  F   UNK N   1      34.867  13.853  19.143  0.00  0.00    -0.206 F 
HETATM   17  C   UNK N   1      36.363  14.760  17.523  0.00  0.00     0.045 A 
ENDBRANCH   4   7
ENDBRANCH   3   4
ENDBRANCH   1   3
BRANCH   1  18
HETATM   18  C   UNK N   1      35.381  16.112  11.039  0.00  0.00     0.148 C 
BRANCH  18  19
HETATM   19  C   UNK N   1      34.350  15.225  10.360  0.00  0.00     0.164 C 
BRANCH  19  20
HETATM   20  O   UNK N   1      33.333  14.984  11.284  0.00  0.00    -0.391 OA
HETATM   21  H   UNK N   1      32.908  14.112  11.324  0.00  0.00     0.210 HD
ENDBRANCH  19  20
BRANCH  19  22
HETATM   22  C   UNK N   1      33.772  15.904   9.118  0.00  0.00     0.159 C 
HETATM   23  O   UNK N   1      34.059  15.160   7.988  0.00  0.00    -0.343 OA
HETATM   24  C   UNK N   1      33.816  15.634   6.748  0.00  0.00     0.075 A 
HETATM   25  C   UNK N   1      33.623  17.014   6.537  0.00  0.00    -0.022 A 
HETATM   26  C   UNK N   1      33.759  14.750   5.667  0.00  0.00     0.040 A 
HETATM   27  C   UNK N   1      33.710  17.977   7.691  0.00  0.00     0.044 C 
HETATM   28  C   UNK N   1      33.356  17.490   5.250  0.00  0.00     0.052 A 
HETATM   29  C   UNK N   1      34.301  17.330   8.951  0.00  0.00     0.040 C 
HETATM   30  C   UNK N   1      33.290  16.598   4.174  0.00  0.00     0.117 A 
HETATM   31  F   UNK N   1      33.034  17.059   2.927  0.00  0.00    -0.206 F 
HETATM   32  C   UNK N   1      33.494  15.230   4.383  0.00  0.00     0.045 A 
ENDBRANCH  19  22
ENDBRANCH  18  19
ENDBRANCH   1  18
TORSDOF 8
ENDMDL
MODEL 5
REMARK VINA RESULT:      -8.1      2.200      3.506
REMARK  8 active torsions:
REMARK  status: ('A' for Active; 'I' for Inactive)
REMARK    1  A    between atoms: O_5  and  C_10 
REMARK    2  A    between atoms: O_6  and  C_11 
REMARK    3  A    between atoms: N_7  and  C_14 
REMARK    4  A    between atoms: N_7  and  C_15 
REMARK    5  A    between atoms: C_8  and  C_10 
REMARK    6  A    between atoms: C_9  and  C_11 
REMARK    7  A    between atoms: C_10  and  C_14 
REMARK    8  A    between atoms: C_11  and  C_15 
ROOT
HETATM    1  N   UNK N   1      36.466  14.491  12.838  0.00  0.00    -0.416 N 
HETATM    2  H   UNK N   1      37.070  15.031  13.457  0.00  0.00     0.153 HD
ENDROOT
BRANCH   1   3
HETATM    3  C   UNK N   1      35.362  14.984  12.039  0.00  0.00     0.148 C 
BRANCH   3   4
HETATM    4  C   UNK N   1      35.842  15.316  10.638  0.00  0.00     0.164 C 
BRANCH   4   5
HETATM    5  O   UNK N   1      36.789  16.338  10.728  0.00  0.00    -0.391 OA
HETATM    6  H   UNK N   1      37.658  16.191  11.135  0.00  0.00     0.210 HD
ENDBRANCH   4   5
BRANCH   4   7
HETATM    7  C   UNK N   1      34.645  15.790   9.833  0.00  0.00     0.159 C 
HETATM    8  O   UNK N   1      34.963  15.991   8.505  0.00  0.00    -0.343 OA
HETATM    9  C   UNK N   1      34.003  16.359   7.627  0.00  0.00     0.075 A 
HETATM   10  C   UNK N   1      32.643  16.132   7.929  0.00  0.00    -0.022 A 
HETATM   11  C   UNK N   1      34.356  16.982   6.428  0.00  0.00     0.040 A 
HETATM   12  C   UNK N   1      32.250  15.433   9.205  0.00  0.00     0.044 C 
HETATM   13  C   UNK N   1      31.653  16.565   7.043  0.00  0.00     0.052 A 
HETATM   14  C   UNK N   1      33.454  14.839   9.947  0.00  0.00     0.040 C 
HETATM   15  C   UNK N   1      32.012  17.210   5.856  0.00  0.00     0.117 A 
HETATM   16  F   UNK N   1      31.050  17.640   5.005  0.00  0.00    -0.206 F 
HETATM   17  C   UNK N   1      33.360  17.410   5.544  0.00  0.00     0.045 A 
ENDBRANCH   4   7
ENDBRANCH   3   4
ENDBRANCH   1   3
BRANCH   1  18
HETATM   18  C   UNK N   1      36.527  13.068  12.570  0.00  0.00     0.148 C 
BRANCH  18  19
HETATM   19  C   UNK N   1      35.147  12.432  12.609  0.00  0.00     0.164 C 
BRANCH  19  20
HETATM   20  O   UNK N   1      35.147  11.377  11.696  0.00  0.00    -0.391 OA
HETATM   21  H   UNK N   1      35.362  11.540  10.763  0.00  0.00     0.210 HD
ENDBRANCH  19  20
BRANCH  19  22
HETATM   22  C   UNK N   1      34.823  11.906  14.008  0.00  0.00     0.159 C 
HETATM   23  O   UNK N   1      35.230  12.814  14.968  0.00  0.00    -0.343 OA
HETATM   24  C   UNK N   1      35.220  12.507  16.282  0.00  0.00     0.075 A 
HETATM   25  C   UNK N   1      35.162  11.163  16.700  0.00  0.00    -0.022 A 
HETATM   26  C   UNK N   1      35.272  13.530  17.233  0.00  0.00     0.040 A 
HETATM   27  C   UNK N   1      35.134  10.053  15.683  0.00  0.00     0.044 C 
HETATM   28  C   UNK N   1      35.136  10.859  18.064  0.00  0.00     0.052 A 
HETATM   29  C   UNK N   1      35.471  10.545  14.269  0.00  0.00     0.040 C 
HETATM   30  C   UNK N   1      35.177  11.889  19.011  0.00  0.00     0.117 A 
HETATM   31  F   UNK N   1      35.155  11.595  20.332  0.00  0.00    -0.206 F 
HETATM   32  C   UNK N   1      35.247  13.222  18.595  0.00  0.00     0.045 A 
ENDBRANCH  19  22
ENDBRANCH  18  19
ENDBRANCH   1  18
TORSDOF 8
ENDMDL
MODEL 6
REMARK VINA RESULT:      -8.0      1.967     10.549
REMARK  8 active torsions:
REMARK  status: ('A' for Active; 'I' for Inactive)
REMARK    1  A    between atoms: O_5  and  C_10 
REMARK    2  A    between atoms: O_6  and  C_11 
REMARK    3  A    between atoms: N_7  and  C_14 
REMARK    4  A    between atoms: N_7  and  C_15 
REMARK    5  A    between atoms: C_8  and  C_10 
REMARK    6  A    between atoms: C_9  and  C_11 
REMARK    7  A    between atoms: C_10  and  C_14 
REMARK    8  A    between atoms: C_11  and  C_15 
ROOT
HETATM    1  N   UNK N   1      33.940  14.645  10.923  0.00  0.00    -0.416 N 
HETATM    2  H   UNK N   1      32.926  14.540  10.913  0.00  0.00     0.153 HD
ENDROOT
BRANCH   1   3
HETATM    3  C   UNK N   1      34.868  14.117  11.903  0.00  0.00     0.148 C 
BRANCH   3   4
HETATM    4  C   UNK N   1      35.108  12.640  11.648  0.00  0.00     0.164 C 
BRANCH   4   5
HETATM    5  O   UNK N   1      34.017  12.132  10.942  0.00  0.00    -0.391 OA
HETATM    6  H   UNK N   1      33.661  11.249  11.125  0.00  0.00     0.210 HD
ENDBRANCH   4   5
BRANCH   4   7
HETATM    7  C   UNK N   1      35.222  11.946  12.995  0.00  0.00     0.159 C 
HETATM    8  O   UNK N   1      34.999  12.816  14.043  0.00  0.00    -0.343 OA
HETATM    9  C   UNK N   1      35.003  12.358  15.316  0.00  0.00     0.075 A 
HETATM   10  C   UNK N   1      34.805  10.985  15.574  0.00  0.00    -0.022 A 
HETATM   11  C   UNK N   1      35.224  13.242  16.374  0.00  0.00     0.040 A 
HETATM   12  C   UNK N   1      34.536  10.026  14.443  0.00  0.00     0.044 C 
HETATM   13  C   UNK N   1      34.866  10.509  16.886  0.00  0.00     0.052 A 
HETATM   14  C   UNK N   1      34.289  10.741  13.109  0.00  0.00     0.040 C 
HETATM   15  C   UNK N   1      35.111  11.394  17.939  0.00  0.00     0.117 A 
HETATM   16  F   UNK N   1      35.183  10.928  19.209  0.00  0.00    -0.206 F 
HETATM   17  C   UNK N   1      35.281  12.759  17.686  0.00  0.00     0.045 A 
ENDBRANCH   4   7
ENDBRANCH   3   4
ENDBRANCH   1   3
BRANCH   1  18
HETATM   18  C   UNK N   1      34.761  15.352   9.961  0.00  0.00     0.148 C 
BRANCH  18  19
HETATM   19  C   UNK N   1      34.463  16.842   9.958  0.00  0.00     0.164 C 
BRANCH  19  20
HETATM   20  O   UNK N   1      35.670  17.511  10.164  0.00  0.00    -0.391 OA
HETATM   21  H   UNK N   1      36.412  17.056  10.593  0.00  0.00     0.210 HD
ENDBRANCH  19  20
BRANCH  19  22
HETATM   22  C   UNK N   1      33.849  17.279   8.628  0.00  0.00     0.159 C 
HETATM   23  O   UNK N   1      32.494  17.000   8.610  0.00  0.00    -0.343 OA
HETATM   24  C   UNK N   1      31.761  17.123   7.484  0.00  0.00     0.075 A 
HETATM   25  C   UNK N   1      32.390  17.170   6.224  0.00  0.00    -0.022 A 
HETATM   26  C   UNK N   1      30.368  17.203   7.570  0.00  0.00     0.040 A 
HETATM   27  C   UNK N   1      33.888  17.057   6.120  0.00  0.00     0.044 C 
HETATM   28  C   UNK N   1      31.620  17.314   5.067  0.00  0.00     0.052 A 
HETATM   29  C   UNK N   1      34.535  16.606   7.436  0.00  0.00     0.040 C 
HETATM   30  C   UNK N   1      30.226  17.404   5.161  0.00  0.00     0.117 A 
HETATM   31  F   UNK N   1      29.480  17.540   4.040  0.00  0.00    -0.206 F 
HETATM   32  C   UNK N   1      29.602  17.345   6.411  0.00  0.00     0.045 A 
ENDBRANCH  19  22
ENDBRANCH  18  19
ENDBRANCH   1  18
TORSDOF 8
ENDMDL
MODEL 7
REMARK VINA RESULT:      -8.0      2.239      3.317
REMARK  8 active torsions:
REMARK  status: ('A' for Active; 'I' for Inactive)
REMARK    1  A    between atoms: O_5  and  C_10 
REMARK    2  A    between atoms: O_6  and  C_11 
REMARK    3  A    between atoms: N_7  and  C_14 
REMARK    4  A    between atoms: N_7  and  C_15 
REMARK    5  A    between atoms: C_8  and  C_10 
REMARK    6  A    between atoms: C_9  and  C_11 
REMARK    7  A    between atoms: C_10  and  C_14 
REMARK    8  A    between atoms: C_11  and  C_15 
ROOT
HETATM    1  N   UNK N   1      35.735  14.793  10.673  0.00  0.00    -0.416 N 
HETATM    2  H   UNK N   1      36.689  15.098  10.480  0.00  0.00     0.153 HD
ENDROOT
BRANCH   1   3
HETATM    3  C   UNK N   1      34.595  14.860   9.781  0.00  0.00     0.148 C 
BRANCH   3   4
HETATM    4  C   UNK N   1      34.498  16.242   9.163  0.00  0.00     0.164 C 
BRANCH   4   5
HETATM    5  O   UNK N   1      34.562  17.187  10.188  0.00  0.00    -0.391 OA
HETATM    6  H   UNK N   1      35.087  17.999  10.098  0.00  0.00     0.210 HD
ENDBRANCH   4   5
BRANCH   4   7
HETATM    7  C   UNK N   1      33.161  16.343   8.449  0.00  0.00     0.159 C 
HETATM    8  O   UNK N   1      32.406  17.400   8.916  0.00  0.00    -0.343 OA
HETATM    9  C   UNK N   1      31.208  17.677   8.353  0.00  0.00     0.075 A 
HETATM   10  C   UNK N   1      30.908  17.201   7.059  0.00  0.00    -0.022 A 
HETATM   11  C   UNK N   1      30.259  18.417   9.062  0.00  0.00     0.040 A 
HETATM   12  C   UNK N   1      31.934  16.428   6.272  0.00  0.00     0.044 C 
HETATM   13  C   UNK N   1      29.647  17.443   6.505  0.00  0.00     0.052 A 
HETATM   14  C   UNK N   1      33.318  16.443   6.932  0.00  0.00     0.040 C 
HETATM   15  C   UNK N   1      28.693  18.164   7.229  0.00  0.00     0.117 A 
HETATM   16  F   UNK N   1      27.468  18.384   6.696  0.00  0.00    -0.206 F 
HETATM   17  C   UNK N   1      29.001  18.658   8.501  0.00  0.00     0.045 A 
ENDBRANCH   4   7
ENDBRANCH   3   4
ENDBRANCH   1   3
BRANCH   1  18
HETATM   18  C   UNK N   1      35.230  14.201  11.896  0.00  0.00     0.148 C 
BRANCH  18  19
HETATM   19  C   UNK N   1      36.326  14.047  12.937  0.00  0.00     0.164 C 
BRANCH  19  20
HETATM   20  O   UNK N   1      36.584  15.312  13.464  0.00  0.00    -0.391 OA
HETATM   21  H   UNK N   1      36.209  16.102  13.042  0.00  0.00     0.210 HD
ENDBRANCH  19  20
BRANCH  19  22
HETATM   22  C   UNK N   1      35.893  13.098  14.055  0.00  0.00     0.159 C 
HETATM   23  O   UNK N   1      35.872  13.764  15.267  0.00  0.00    -0.343 OA
HETATM   24  C   UNK N   1      35.699  13.106  16.433  0.00  0.00     0.075 A 
HETATM   25  C   UNK N   1      35.908  11.715  16.505  0.00  0.00    -0.022 A 
HETATM   26  C   UNK N   1      35.313  13.812  17.576  0.00  0.00     0.040 A 
HETATM   27  C   UNK N   1      36.352  10.950  15.286  0.00  0.00     0.044 C 
HETATM   28  C   UNK N   1      35.710  11.044  17.715  0.00  0.00     0.052 A 
HETATM   29  C   UNK N   1      36.807  11.874  14.148  0.00  0.00     0.040 C 
HETATM   30  C   UNK N   1      35.312  11.755  18.853  0.00  0.00     0.117 A 
HETATM   31  F   UNK N   1      35.123  11.106  20.025  0.00  0.00    -0.206 F 
HETATM   32  C   UNK N   1      35.117  13.138  18.783  0.00  0.00     0.045 A 
ENDBRANCH  19  22
ENDBRANCH  18  19
ENDBRANCH   1  18
TORSDOF 8
ENDMDL
MODEL 8
REMARK VINA RESULT:      -7.8     18.786     20.468
REMARK  8 active torsions:
REMARK  status: ('A' for Active; 'I' for Inactive)
REMARK    1  A    between atoms: O_5  and  C_10 
REMARK    2  A    between atoms: O_6  and  C_11 
REMARK    3  A    between atoms: N_7  and  C_14 
REMARK    4  A    between atoms: N_7  and  C_15 
REMARK    5  A    between atoms: C_8  and  C_10 
REMARK    6  A    between atoms: C_9  and  C_11 
REMARK    7  A    between atoms: C_10  and  C_14 
REMARK    8  A    between atoms: C_11  and  C_15 
ROOT
HETATM    1  N   UNK N   1      29.373  28.194  -3.359  0.00  0.00    -0.416 N 
HETATM    2  H   UNK N   1      28.869  27.547  -2.753  0.00  0.00     0.153 HD
ENDROOT
BRANCH   1   3
HETATM    3  C   UNK N   1      28.949  29.513  -3.781  0.00  0.00     0.148 C 
BRANCH   3   4
HETATM    4  C   UNK N   1      27.456  29.675  -3.560  0.00  0.00     0.164 C 
BRANCH   4   5
HETATM    5  O   UNK N   1      27.128  29.095  -2.334  0.00  0.00    -0.391 OA
HETATM    6  H   UNK N   1      27.805  28.907  -1.664  0.00  0.00     0.210 HD
ENDBRANCH   4   5
BRANCH   4   7
HETATM    7  C   UNK N   1      26.736  28.951  -4.684  0.00  0.00     0.159 C 
HETATM    8  O   UNK N   1      27.619  28.389  -5.585  0.00  0.00    -0.343 OA
HETATM    9  C   UNK N   1      27.153  27.655  -6.621  0.00  0.00     0.075 A 
HETATM   10  C   UNK N   1      25.856  27.101  -6.569  0.00  0.00    -0.022 A 
HETATM   11  C   UNK N   1      27.950  27.462  -7.752  0.00  0.00     0.040 A 
HETATM   12  C   UNK N   1      24.999  27.276  -5.343  0.00  0.00     0.044 C 
HETATM   13  C   UNK N   1      25.361  26.391  -7.666  0.00  0.00     0.052 A 
HETATM   14  C   UNK N   1      25.770  27.886  -4.165  0.00  0.00     0.040 C 
HETATM   15  C   UNK N   1      26.153  26.221  -8.804  0.00  0.00     0.117 A 
HETATM   16  F   UNK N   1      25.665  25.544  -9.871  0.00  0.00    -0.206 F 
HETATM   17  C   UNK N   1      27.448  26.748  -8.844  0.00  0.00     0.045 A 
ENDBRANCH   4   7
ENDBRANCH   3   4
ENDBRANCH   1   3
BRANCH   1  18
HETATM   18  C   UNK N   1      30.666  27.990  -3.981  0.00  0.00     0.148 C 
BRANCH  18  19
HETATM   19  C   UNK N   1      30.966  26.514  -4.179  0.00  0.00     0.164 C 
BRANCH  19  20
HETATM   20  O   UNK N   1      30.846  25.892  -2.935  0.00  0.00    -0.391 OA
HETATM   21  H   UNK N   1      31.593  25.896  -2.315  0.00  0.00     0.210 HD
ENDBRANCH  19  20
BRANCH  19  22
HETATM   22  C   UNK N   1      29.989  25.882  -5.170  0.00  0.00     0.159 C 
HETATM   23  O   UNK N   1      28.913  25.330  -4.498  0.00  0.00    -0.343 OA
HETATM   24  C   UNK N   1      28.005  24.557  -5.130  0.00  0.00     0.075 A 
HETATM   25  C   UNK N   1      28.306  23.978  -6.378  0.00  0.00    -0.022 A 
HETATM   26  C   UNK N   1      26.759  24.328  -4.538  0.00  0.00     0.040 A 
HETATM   27  C   UNK N   1      29.656  24.195  -7.010  0.00  0.00     0.044 C 
HETATM   28  C   UNK N   1      27.350  23.192  -7.029  0.00  0.00     0.052 A 
HETATM   29  C   UNK N   1      30.666  24.816  -6.035  0.00  0.00     0.040 C 
HETATM   30  C   UNK N   1      26.101  22.976  -6.436  0.00  0.00     0.117 A 
HETATM   31  F   UNK N   1      25.177  22.213  -7.065  0.00  0.00    -0.206 F 
HETATM   32  C   UNK N   1      25.808  23.541  -5.191  0.00  0.00     0.045 A 
ENDBRANCH  19  22
ENDBRANCH  18  19
ENDBRANCH   1  18
TORSDOF 8
ENDMDL
MODEL 9
REMARK VINA RESULT:      -7.8      2.714     11.165
REMARK  8 active torsions:
REMARK  status: ('A' for Active; 'I' for Inactive)
REMARK    1  A    between atoms: O_5  and  C_10 
REMARK    2  A    between atoms: O_6  and  C_11 
REMARK    3  A    between atoms: N_7  and  C_14 
REMARK    4  A    between atoms: N_7  and  C_15 
REMARK    5  A    between atoms: C_8  and  C_10 
REMARK    6  A    between atoms: C_9  and  C_11 
REMARK    7  A    between atoms: C_10  and  C_14 
REMARK    8  A    between atoms: C_11  and  C_15 
ROOT
HETATM    1  N   UNK N   1      36.753  14.330  12.680  0.00  0.00    -0.416 N 
HETATM    2  H   UNK N   1      37.549  14.968  12.702  0.00  0.00     0.153 HD
ENDROOT
BRANCH   1   3
HETATM    3  C   UNK N   1      36.540  13.163  13.512  0.00  0.00     0.148 C 
BRANCH   3   4
HETATM    4  C   UNK N   1      36.369  13.582  14.961  0.00  0.00     0.164 C 
BRANCH   4   5
HETATM    5  O   UNK N   1      37.573  14.131  15.404  0.00  0.00    -0.391 OA
HETATM    6  H   UNK N   1      37.623  14.651  16.222  0.00  0.00     0.210 HD
ENDBRANCH   4   5
BRANCH   4   7
HETATM    7  C   UNK N   1      36.038  12.340  15.771  0.00  0.00     0.159 C 
HETATM    8  O   UNK N   1      35.674  12.651  17.066  0.00  0.00    -0.343 OA
HETATM    9  C   UNK N   1      35.289  11.671  17.915  0.00  0.00     0.075 A 
HETATM   10  C   UNK N   1      34.846  10.431  17.409  0.00  0.00    -0.022 A 
HETATM   11  C   UNK N   1      35.349  11.881  19.294  0.00  0.00     0.040 A 
HETATM   12  C   UNK N   1      34.748  10.203  15.922  0.00  0.00     0.044 C 
HETATM   13  C   UNK N   1      34.503   9.403  18.292  0.00  0.00     0.052 A 
HETATM   14  C   UNK N   1      34.952  11.490  15.113  0.00  0.00     0.040 C 
HETATM   15  C   UNK N   1      34.587   9.611  19.671  0.00  0.00     0.117 A 
HETATM   16  F   UNK N   1      34.267   8.609  20.524  0.00  0.00    -0.206 F 
HETATM   17  C   UNK N   1      35.001  10.849  20.172  0.00  0.00     0.045 A 
ENDBRANCH   4   7
ENDBRANCH   3   4
ENDBRANCH   1   3
BRANCH   1  18
HETATM   18  C   UNK N   1      35.595  14.397  11.811  0.00  0.00     0.148 C 
BRANCH  18  19
HETATM   19  C   UNK N   1      35.641  15.620  10.911  0.00  0.00     0.164 C 
BRANCH  19  20
HETATM   20  O   UNK N   1      36.969  16.044  10.849  0.00  0.00    -0.391 OA
HETATM   21  H   UNK N   1      37.497  15.876  10.052  0.00  0.00     0.210 HD
ENDBRANCH  19  20
BRANCH  19  22
HETATM   22  C   UNK N   1      35.137  15.289   9.506  0.00  0.00     0.159 C 
HETATM   23  O   UNK N   1      34.740  16.442   8.854  0.00  0.00    -0.343 OA
HETATM   24  C   UNK N   1      34.089  16.399   7.672  0.00  0.00     0.075 A 
HETATM   25  C   UNK N   1      33.466  15.211   7.244  0.00  0.00    -0.022 A 
HETATM   26  C   UNK N   1      34.034  17.543   6.870  0.00  0.00     0.040 A 
HETATM   27  C   UNK N   1      33.496  13.982   8.114  0.00  0.00     0.044 C 
HETATM   28  C   UNK N   1      32.810  15.175   6.010  0.00  0.00     0.052 A 
HETATM   29  C   UNK N   1      33.984  14.283   9.537  0.00  0.00     0.040 C 
HETATM   30  C   UNK N   1      32.767  16.321   5.207  0.00  0.00     0.117 A 
HETATM   31  F   UNK N   1      32.130  16.287   4.014  0.00  0.00    -0.206 F 
HETATM   32  C   UNK N   1      33.376  17.503   5.639  0.00  0.00     0.045 A 
ENDBRANCH  19  22
ENDBRANCH  18  19
ENDBRANCH   1  18
TORSDOF 8
ENDMDL
