MODEL 1
REMARK VINA RESULT:      -6.7      0.000      0.000
REMARK  13 active torsions:
REMARK  status: ('A' for Active; 'I' for Inactive)
REMARK    1  A    between atoms: C_4  and  N_5 
REMARK    2  A    between atoms: N_12  and  C_13 
REMARK    3  A    between atoms: C_13  and  C_14 
REMARK    4  A    between atoms: C_14  and  C_15 
REMARK    5  A    between atoms: C_15  and  C_16 
REMARK    6  A    between atoms: C_16  and  C_17 
REMARK    7  A    between atoms: C_17  and  C_18 
REMARK    8  A    between atoms: C_18  and  C_19 
REMARK    9  A    between atoms: C_19  and  C_20 
REMARK   10  A    between atoms: C_20  and  C_21 
REMARK   11  A    between atoms: C_21  and  C_22 
REMARK   12  A    between atoms: C_22  and  N_23 
REMARK   13  A    between atoms: C_27  and  N_28 
ROOT
HETATM    1  C   UNK N   1      26.681  15.198   6.189  0.00  0.00     0.000 C 
ENDROOT
BRANCH   1   2
HETATM    2  C   UNK N   1      25.366  15.945   6.055  0.00  0.00     0.000 C 
BRANCH   2   3
HETATM    3  C   UNK N   1      24.252  15.165   6.735  0.00  0.00     0.002 C 
BRANCH   3   4
HETATM    4  C   UNK N   1      22.901  15.447   6.090  0.00  0.00     0.020 C 
BRANCH   4   5
HETATM    5  C   UNK N   1      23.023  15.522   4.575  0.00  0.00     0.129 C 
BRANCH   5   6
HETATM    6  N   UNK N   1      21.950  16.345   4.012  0.00  0.00    -0.350 N 
HETATM    7  C   UNK N   1      22.187  17.655   3.670  0.00  0.00     0.047 A 
HETATM    8  C   UNK N   1      23.458  18.235   3.851  0.00  0.00     0.030 A 
HETATM    9  C   UNK N   1      21.144  18.447   3.130  0.00  0.00     0.017 A 
HETATM   10  C   UNK N   1      23.688  19.566   3.504  0.00  0.00     0.002 A 
HETATM   11  C   UNK N   1      22.655  20.340   2.970  0.00  0.00     0.001 A 
HETATM   12  C   UNK N   1      21.388  19.784   2.784  0.00  0.00     0.016 A 
HETATM   13  C   UNK N   1      19.877  17.879   2.953  0.00  0.00     0.040 A 
HETATM   14  C   UNK N   1      19.661  16.555   3.312  0.00  0.00     0.054 A 
HETATM   15  C   UNK N   1      20.703  15.795   3.844  0.00  0.00     0.010 A 
HETATM   16  C   UNK N   1      20.423  14.374   4.213  0.00  0.00     0.068 C 
BRANCH  13  17
HETATM   17  N   UNK N   1      18.811  18.636   2.417  0.00  0.00    -0.398 N 
HETATM   18  H   UNK N   1      18.404  18.379   1.560  0.00  0.00     0.156 HD
HETATM   19  H   UNK N   1      18.475  19.422   2.905  0.00  0.00     0.156 HD
ENDBRANCH  13  17
ENDBRANCH   5   6
ENDBRANCH   4   5
ENDBRANCH   3   4
ENDBRANCH   2   3
ENDBRANCH   1   2
BRANCH   1  20
HETATM   20  C   UNK N   1      27.108  14.635   4.845  0.00  0.00     0.000 C 
BRANCH  20  21
HETATM   21  C   UNK N   1      26.758  15.583   3.714  0.00  0.00     0.000 C 
BRANCH  21  22
HETATM   22  C   UNK N   1      27.973  15.942   2.858  0.00  0.00     0.002 C 
BRANCH  22  23
HETATM   23  C   UNK N   1      29.283  15.679   3.597  0.00  0.00     0.020 C 
BRANCH  23  24
HETATM   24  C   UNK N   1      29.918  16.998   4.027  0.00  0.00     0.129 C 
BRANCH  24  25
HETATM   25  N   UNK N   1      29.404  17.508   5.305  0.00  0.00    -0.350 N 
HETATM   26  C   UNK N   1      29.806  16.894   6.465  0.00  0.00     0.010 A 
HETATM   27  C   UNK N   1      30.781  15.759   6.446  0.00  0.00     0.068 C 
HETATM   28  C   UNK N   1      29.296  17.297   7.698  0.00  0.00     0.054 A 
HETATM   29  C   UNK N   1      28.374  18.335   7.767  0.00  0.00     0.040 A 
HETATM   30  C   UNK N   1      27.969  18.977   6.593  0.00  0.00     0.017 A 
HETATM   31  C   UNK N   1      28.494  18.546   5.349  0.00  0.00     0.047 A 
HETATM   32  C   UNK N   1      27.046  20.033   6.635  0.00  0.00     0.016 A 
HETATM   33  C   UNK N   1      28.064  19.192   4.174  0.00  0.00     0.030 A 
HETATM   34  C   UNK N   1      27.152  20.247   4.230  0.00  0.00     0.002 A 
HETATM   35  C   UNK N   1      26.644  20.668   5.459  0.00  0.00     0.001 A 
BRANCH  29  36
HETATM   36  N   UNK N   1      27.855  18.721   9.022  0.00  0.00    -0.398 N 
HETATM   37  H   UNK N   1      27.914  19.661   9.310  0.00  0.00     0.156 HD
HETATM   38  H   UNK N   1      27.435  18.052   9.608  0.00  0.00     0.156 HD
ENDBRANCH  29  36
ENDBRANCH  24  25
ENDBRANCH  23  24
ENDBRANCH  22  23
ENDBRANCH  21  22
ENDBRANCH  20  21
ENDBRANCH   1  20
TORSDOF 13
ENDMDL
MODEL 2
REMARK VINA RESULT:      -6.5     11.286     14.326
REMARK  13 active torsions:
REMARK  status: ('A' for Active; 'I' for Inactive)
REMARK    1  A    between atoms: C_4  and  N_5 
REMARK    2  A    between atoms: N_12  and  C_13 
REMARK    3  A    between atoms: C_13  and  C_14 
REMARK    4  A    between atoms: C_14  and  C_15 
REMARK    5  A    between atoms: C_15  and  C_16 
REMARK    6  A    between atoms: C_16  and  C_17 
REMARK    7  A    between atoms: C_17  and  C_18 
REMARK    8  A    between atoms: C_18  and  C_19 
REMARK    9  A    between atoms: C_19  and  C_20 
REMARK   10  A    between atoms: C_20  and  C_21 
REMARK   11  A    between atoms: C_21  and  C_22 
REMARK   12  A    between atoms: C_22  and  N_23 
REMARK   13  A    between atoms: C_27  and  N_28 
ROOT
HETATM    1  C   UNK N   1      26.575  25.802  -3.757  0.00  0.00     0.000 C 
ENDROOT
BRANCH   1   2
HETATM    2  C   UNK N   1      26.160  27.078  -3.046  0.00  0.00     0.000 C 
BRANCH   2   3
HETATM    3  C   UNK N   1      25.680  28.106  -4.058  0.00  0.00     0.002 C 
BRANCH   3   4
HETATM    4  C   UNK N   1      26.393  29.439  -3.879  0.00  0.00     0.020 C 
BRANCH   4   5
HETATM    5  C   UNK N   1      27.337  29.716  -5.042  0.00  0.00     0.129 C 
BRANCH   5   6
HETATM    6  N   UNK N   1      28.467  28.784  -5.020  0.00  0.00    -0.350 N 
HETATM    7  C   UNK N   1      29.364  28.805  -3.978  0.00  0.00     0.047 A 
HETATM    8  C   UNK N   1      29.220  29.717  -2.914  0.00  0.00     0.030 A 
HETATM    9  C   UNK N   1      30.457  27.905  -3.965  0.00  0.00     0.017 A 
HETATM   10  C   UNK N   1      30.137  29.733  -1.863  0.00  0.00     0.002 A 
HETATM   11  C   UNK N   1      31.211  28.840  -1.856  0.00  0.00     0.001 A 
HETATM   12  C   UNK N   1      31.371  27.930  -2.903  0.00  0.00     0.016 A 
HETATM   13  C   UNK N   1      30.609  26.999  -5.023  0.00  0.00     0.040 A 
HETATM   14  C   UNK N   1      29.692  27.003  -6.066  0.00  0.00     0.054 A 
HETATM   15  C   UNK N   1      28.625  27.900  -6.058  0.00  0.00     0.010 A 
HETATM   16  C   UNK N   1      27.664  27.863  -7.202  0.00  0.00     0.068 C 
BRANCH  13  17
HETATM   17  N   UNK N   1      31.685  26.085  -5.046  0.00  0.00    -0.398 N 
HETATM   18  H   UNK N   1      32.519  26.290  -4.565  0.00  0.00     0.156 HD
HETATM   19  H   UNK N   1      31.600  25.241  -5.544  0.00  0.00     0.156 HD
ENDBRANCH  13  17
ENDBRANCH   5   6
ENDBRANCH   4   5
ENDBRANCH   3   4
ENDBRANCH   2   3
ENDBRANCH   1   2
BRANCH   1  20
HETATM   20  C   UNK N   1      25.792  25.638  -5.047  0.00  0.00     0.000 C 
BRANCH  20  21
HETATM   21  C   UNK N   1      25.597  24.175  -5.392  0.00  0.00     0.000 C 
BRANCH  21  22
HETATM   22  C   UNK N   1      26.043  23.848  -6.818  0.00  0.00     0.002 C 
BRANCH  22  23
HETATM   23  C   UNK N   1      26.945  22.616  -6.860  0.00  0.00     0.020 C 
BRANCH  23  24
HETATM   24  C   UNK N   1      28.400  23.035  -7.046  0.00  0.00     0.129 C 
BRANCH  24  25
HETATM   25  N   UNK N   1      29.354  22.183  -6.323  0.00  0.00    -0.350 N 
HETATM   26  C   UNK N   1      29.844  21.066  -6.954  0.00  0.00     0.010 A 
HETATM   27  C   UNK N   1      29.458  20.736  -8.361  0.00  0.00     0.068 C 
HETATM   28  C   UNK N   1      30.700  20.190  -6.287  0.00  0.00     0.054 A 
HETATM   29  C   UNK N   1      31.073  20.443  -4.973  0.00  0.00     0.040 A 
HETATM   30  C   UNK N   1      30.591  21.586  -4.326  0.00  0.00     0.017 A 
HETATM   31  C   UNK N   1      29.716  22.459  -5.019  0.00  0.00     0.047 A 
HETATM   32  C   UNK N   1      30.959  21.870  -3.002  0.00  0.00     0.016 A 
HETATM   33  C   UNK N   1      29.227  23.597  -4.349  0.00  0.00     0.030 A 
HETATM   34  C   UNK N   1      29.608  23.873  -3.036  0.00  0.00     0.002 A 
HETATM   35  C   UNK N   1      30.473  23.011  -2.363  0.00  0.00     0.001 A 
BRANCH  29  36
HETATM   36  N   UNK N   1      31.928  19.539  -4.307  0.00  0.00    -0.398 N 
HETATM   37  H   UNK N   1      32.690  19.877  -3.782  0.00  0.00     0.156 HD
HETATM   38  H   UNK N   1      31.763  18.571  -4.366  0.00  0.00     0.156 HD
ENDBRANCH  29  36
ENDBRANCH  24  25
ENDBRANCH  23  24
ENDBRANCH  22  23
ENDBRANCH  21  22
ENDBRANCH  20  21
ENDBRANCH   1  20
TORSDOF 13
ENDMDL
MODEL 3
REMARK VINA RESULT:      -6.5     11.824     14.926
REMARK  13 active torsions:
REMARK  status: ('A' for Active; 'I' for Inactive)
REMARK    1  A    between atoms: C_4  and  N_5 
REMARK    2  A    between atoms: N_12  and  C_13 
REMARK    3  A    between atoms: C_13  and  C_14 
REMARK    4  A    between atoms: C_14  and  C_15 
REMARK    5  A    between atoms: C_15  and  C_16 
REMARK    6  A    between atoms: C_16  and  C_17 
REMARK    7  A    between atoms: C_17  and  C_18 
REMARK    8  A    between atoms: C_18  and  C_19 
REMARK    9  A    between atoms: C_19  and  C_20 
REMARK   10  A    between atoms: C_20  and  C_21 
REMARK   11  A    between atoms: C_21  and  C_22 
REMARK   12  A    between atoms: C_22  and  N_23 
REMARK   13  A    between atoms: C_27  and  N_28 
ROOT
HETATM    1  C   UNK N   1      30.047  21.627  -6.861  0.00  0.00     0.000 C 
ENDROOT
BRANCH   1   2
HETATM    2  C   UNK N   1      30.342  20.209  -6.403  0.00  0.00     0.000 C 
BRANCH   2   3
HETATM    3  C   UNK N   1      31.459  20.216  -5.371  0.00  0.00     0.002 C 
BRANCH   3   4
HETATM    4  C   UNK N   1      30.957  20.678  -4.010  0.00  0.00     0.020 C 
BRANCH   4   5
HETATM    5  C   UNK N   1      31.875  21.739  -3.419  0.00  0.00     0.129 C 
BRANCH   5   6
HETATM    6  N   UNK N   1      31.669  23.027  -4.086  0.00  0.00    -0.350 N 
HETATM    7  C   UNK N   1      30.477  23.696  -3.952  0.00  0.00     0.047 A 
HETATM    8  C   UNK N   1      29.429  23.164  -3.176  0.00  0.00     0.030 A 
HETATM    9  C   UNK N   1      30.283  24.939  -4.604  0.00  0.00     0.017 A 
HETATM   10  C   UNK N   1      28.220  23.849  -3.048  0.00  0.00     0.002 A 
HETATM   11  C   UNK N   1      28.038  25.075  -3.692  0.00  0.00     0.001 A 
HETATM   12  C   UNK N   1      29.064  25.618  -4.467  0.00  0.00     0.016 A 
HETATM   13  C   UNK N   1      31.319  25.471  -5.382  0.00  0.00     0.040 A 
HETATM   14  C   UNK N   1      32.513  24.772  -5.506  0.00  0.00     0.054 A 
HETATM   15  C   UNK N   1      32.679  23.549  -4.857  0.00  0.00     0.010 A 
HETATM   16  C   UNK N   1      33.983  22.836  -5.020  0.00  0.00     0.068 C 
BRANCH  13  17
HETATM   17  N   UNK N   1      31.165  26.707  -6.046  0.00  0.00    -0.398 N 
HETATM   18  H   UNK N   1      31.954  27.194  -6.375  0.00  0.00     0.156 HD
HETATM   19  H   UNK N   1      30.265  27.083  -6.181  0.00  0.00     0.156 HD
ENDBRANCH  13  17
ENDBRANCH   5   6
ENDBRANCH   4   5
ENDBRANCH   3   4
ENDBRANCH   2   3
ENDBRANCH   1   2
BRANCH   1  20
HETATM   20  C   UNK N   1      28.612  21.738  -7.344  0.00  0.00     0.000 C 
BRANCH  20  21
HETATM   21  C   UNK N   1      28.012  23.084  -6.986  0.00  0.00     0.000 C 
BRANCH  21  22
HETATM   22  C   UNK N   1      26.493  23.019  -6.822  0.00  0.00     0.002 C 
BRANCH  22  23
HETATM   23  C   UNK N   1      25.935  24.302  -6.209  0.00  0.00     0.020 C 
BRANCH  23  24
HETATM   24  C   UNK N   1      25.619  25.315  -7.306  0.00  0.00     0.129 C 
BRANCH  24  25
HETATM   25  N   UNK N   1      26.495  26.494  -7.285  0.00  0.00    -0.350 N 
HETATM   26  C   UNK N   1      27.395  26.660  -8.309  0.00  0.00     0.010 A 
HETATM   27  C   UNK N   1      27.464  25.692  -9.447  0.00  0.00     0.068 C 
HETATM   28  C   UNK N   1      28.293  27.727  -8.301  0.00  0.00     0.054 A 
HETATM   29  C   UNK N   1      28.281  28.643  -7.257  0.00  0.00     0.040 A 
HETATM   30  C   UNK N   1      27.357  28.492  -6.217  0.00  0.00     0.017 A 
HETATM   31  C   UNK N   1      26.459  27.396  -6.239  0.00  0.00     0.047 A 
HETATM   32  C   UNK N   1      27.318  29.407  -5.154  0.00  0.00     0.016 A 
HETATM   33  C   UNK N   1      25.546  27.249  -5.178  0.00  0.00     0.030 A 
HETATM   34  C   UNK N   1      25.511  28.170  -4.131  0.00  0.00     0.002 A 
HETATM   35  C   UNK N   1      26.395  29.249  -4.119  0.00  0.00     0.001 A 
BRANCH  29  36
HETATM   36  N   UNK N   1      29.206  29.708  -7.256  0.00  0.00    -0.398 N 
HETATM   37  H   UNK N   1      30.094  29.589  -7.665  0.00  0.00     0.156 HD
HETATM   38  H   UNK N   1      28.965  30.570  -6.848  0.00  0.00     0.156 HD
ENDBRANCH  29  36
ENDBRANCH  24  25
ENDBRANCH  23  24
ENDBRANCH  22  23
ENDBRANCH  21  22
ENDBRANCH  20  21
ENDBRANCH   1  20
TORSDOF 13
ENDMDL
MODEL 4
REMARK VINA RESULT:      -6.3      1.649      7.337
REMARK  13 active torsions:
REMARK  status: ('A' for Active; 'I' for Inactive)
REMARK    1  A    between atoms: C_4  and  N_5 
REMARK    2  A    between atoms: N_12  and  C_13 
REMARK    3  A    between atoms: C_13  and  C_14 
REMARK    4  A    between atoms: C_14  and  C_15 
REMARK    5  A    between atoms: C_15  and  C_16 
REMARK    6  A    between atoms: C_16  and  C_17 
REMARK    7  A    between atoms: C_17  and  C_18 
REMARK    8  A    between atoms: C_18  and  C_19 
REMARK    9  A    between atoms: C_19  and  C_20 
REMARK   10  A    between atoms: C_20  and  C_21 
REMARK   11  A    between atoms: C_21  and  C_22 
REMARK   12  A    between atoms: C_22  and  N_23 
REMARK   13  A    between atoms: C_27  and  N_28 
ROOT
HETATM    1  C   UNK N   1      27.759  13.467   4.227  0.00  0.00     0.000 C 
ENDROOT
BRANCH   1   2
HETATM    2  C   UNK N   1      27.814  13.753   2.737  0.00  0.00     0.000 C 
BRANCH   2   3
HETATM    3  C   UNK N   1      28.676  14.977   2.472  0.00  0.00     0.002 C 
BRANCH   3   4
HETATM    4  C   UNK N   1      28.125  16.210   3.177  0.00  0.00     0.020 C 
BRANCH   4   5
HETATM    5  C   UNK N   1      29.247  17.041   3.782  0.00  0.00     0.129 C 
BRANCH   5   6
HETATM    6  N   UNK N   1      28.890  17.485   5.131  0.00  0.00    -0.350 N 
HETATM    7  C   UNK N   1      28.151  18.630   5.313  0.00  0.00     0.047 A 
HETATM    8  C   UNK N   1      27.723  19.400   4.214  0.00  0.00     0.030 A 
HETATM    9  C   UNK N   1      27.812  19.055   6.621  0.00  0.00     0.017 A 
HETATM   10  C   UNK N   1      26.977  20.563   4.408  0.00  0.00     0.002 A 
HETATM   11  C   UNK N   1      26.644  20.974   5.701  0.00  0.00     0.001 A 
HETATM   12  C   UNK N   1      27.060  20.224   6.803  0.00  0.00     0.016 A 
HETATM   13  C   UNK N   1      28.238  18.297   7.718  0.00  0.00     0.040 A 
HETATM   14  C   UNK N   1      28.989  17.147   7.507  0.00  0.00     0.054 A 
HETATM   15  C   UNK N   1      29.312  16.749   6.211  0.00  0.00     0.010 A 
HETATM   16  C   UNK N   1      30.119  15.503   6.036  0.00  0.00     0.068 C 
BRANCH  13  17
HETATM   17  N   UNK N   1      27.920  18.687   9.037  0.00  0.00    -0.398 N 
HETATM   18  H   UNK N   1      26.990  18.897   9.280  0.00  0.00     0.156 HD
HETATM   19  H   UNK N   1      28.631  18.749   9.715  0.00  0.00     0.156 HD
ENDBRANCH  13  17
ENDBRANCH   5   6
ENDBRANCH   4   5
ENDBRANCH   3   4
ENDBRANCH   2   3
ENDBRANCH   1   2
BRANCH   1  20
HETATM   20  C   UNK N   1      26.377  12.975   4.620  0.00  0.00     0.000 C 
BRANCH  20  21
HETATM   21  C   UNK N   1      25.949  13.543   5.959  0.00  0.00     0.000 C 
BRANCH  21  22
HETATM   22  C   UNK N   1      26.013  15.071   5.991  0.00  0.00     0.002 C 
BRANCH  22  23
HETATM   23  C   UNK N   1      24.620  15.693   6.069  0.00  0.00     0.020 C 
BRANCH  23  24
HETATM   24  C   UNK N   1      24.425  16.691   4.931  0.00  0.00     0.129 C 
BRANCH  24  25
HETATM   25  N   UNK N   1      23.197  16.467   4.158  0.00  0.00    -0.350 N 
HETATM   26  C   UNK N   1      22.033  17.053   4.592  0.00  0.00     0.010 A 
HETATM   27  C   UNK N   1      22.011  17.938   5.797  0.00  0.00     0.068 C 
HETATM   28  C   UNK N   1      20.828  16.817   3.931  0.00  0.00     0.054 A 
HETATM   29  C   UNK N   1      20.793  15.988   2.816  0.00  0.00     0.040 A 
HETATM   30  C   UNK N   1      21.975  15.398   2.357  0.00  0.00     0.017 A 
HETATM   31  C   UNK N   1      23.188  15.644   3.048  0.00  0.00     0.047 A 
HETATM   32  C   UNK N   1      21.969  14.564   1.229  0.00  0.00     0.016 A 
HETATM   33  C   UNK N   1      24.367  15.031   2.583  0.00  0.00     0.030 A 
HETATM   34  C   UNK N   1      24.349  14.210   1.455  0.00  0.00     0.002 A 
HETATM   35  C   UNK N   1      23.152  13.977   0.778  0.00  0.00     0.001 A 
BRANCH  29  36
HETATM   36  N   UNK N   1      19.563  15.748   2.168  0.00  0.00    -0.398 N 
HETATM   37  H   UNK N   1      19.259  16.350   1.450  0.00  0.00     0.156 HD
HETATM   38  H   UNK N   1      19.008  14.979   2.432  0.00  0.00     0.156 HD
ENDBRANCH  29  36
ENDBRANCH  24  25
ENDBRANCH  23  24
ENDBRANCH  22  23
ENDBRANCH  21  22
ENDBRANCH  20  21
ENDBRANCH   1  20
TORSDOF 13
ENDMDL
MODEL 5
REMARK VINA RESULT:      -6.3      2.202      7.303
REMARK  13 active torsions:
REMARK  status: ('A' for Active; 'I' for Inactive)
REMARK    1  A    between atoms: C_4  and  N_5 
REMARK    2  A    between atoms: N_12  and  C_13 
REMARK    3  A    between atoms: C_13  and  C_14 
REMARK    4  A    between atoms: C_14  and  C_15 
REMARK    5  A    between atoms: C_15  and  C_16 
REMARK    6  A    between atoms: C_16  and  C_17 
REMARK    7  A    between atoms: C_17  and  C_18 
REMARK    8  A    between atoms: C_18  and  C_19 
REMARK    9  A    between atoms: C_19  and  C_20 
REMARK   10  A    between atoms: C_20  and  C_21 
REMARK   11  A    between atoms: C_21  and  C_22 
REMARK   12  A    between atoms: C_22  and  N_23 
REMARK   13  A    between atoms: C_27  and  N_28 
ROOT
HETATM    1  C   UNK N   1      24.810  13.821   1.593  0.00  0.00     0.000 C 
ENDROOT
BRANCH   1   2
HETATM    2  C   UNK N   1      25.258  15.048   2.368  0.00  0.00     0.000 C 
BRANCH   2   3
HETATM    3  C   UNK N   1      24.115  15.568   3.226  0.00  0.00     0.002 C 
BRANCH   3   4
HETATM    4  C   UNK N   1      24.402  16.971   3.744  0.00  0.00     0.020 C 
BRANCH   4   5
HETATM    5  C   UNK N   1      25.780  17.446   3.304  0.00  0.00     0.129 C 
BRANCH   5   6
HETATM    6  N   UNK N   1      26.246  18.539   4.161  0.00  0.00    -0.350 N 
HETATM    7  C   UNK N   1      26.962  18.269   5.303  0.00  0.00     0.047 A 
HETATM    8  C   UNK N   1      27.262  16.944   5.676  0.00  0.00     0.030 A 
HETATM    9  C   UNK N   1      27.405  19.330   6.130  0.00  0.00     0.017 A 
HETATM   10  C   UNK N   1      27.986  16.679   6.838  0.00  0.00     0.002 A 
HETATM   11  C   UNK N   1      28.422  17.731   7.647  0.00  0.00     0.001 A 
HETATM   12  C   UNK N   1      28.133  19.051   7.295  0.00  0.00     0.016 A 
HETATM   13  C   UNK N   1      27.105  20.649   5.769  0.00  0.00     0.040 A 
HETATM   14  C   UNK N   1      26.375  20.895   4.613  0.00  0.00     0.054 A 
HETATM   15  C   UNK N   1      25.947  19.833   3.816  0.00  0.00     0.010 A 
HETATM   16  C   UNK N   1      25.167  20.150   2.581  0.00  0.00     0.068 C 
BRANCH  13  17
HETATM   17  N   UNK N   1      27.530  21.734   6.566  0.00  0.00    -0.398 N 
HETATM   18  H   UNK N   1      28.218  22.353   6.233  0.00  0.00     0.156 HD
HETATM   19  H   UNK N   1      27.137  21.870   7.458  0.00  0.00     0.156 HD
ENDBRANCH  13  17
ENDBRANCH   5   6
ENDBRANCH   4   5
ENDBRANCH   3   4
ENDBRANCH   2   3
ENDBRANCH   1   2
BRANCH   1  20
HETATM   20  C   UNK N   1      23.660  14.174   0.666  0.00  0.00     0.000 C 
BRANCH  20  21
HETATM   21  C   UNK N   1      22.717  13.000   0.487  0.00  0.00     0.000 C 
BRANCH  21  22
HETATM   22  C   UNK N   1      21.257  13.383   0.737  0.00  0.00     0.002 C 
BRANCH  22  23
HETATM   23  C   UNK N   1      21.087  14.893   0.889  0.00  0.00     0.020 C 
BRANCH  23  24
HETATM   24  C   UNK N   1      19.946  15.199   1.857  0.00  0.00     0.129 C 
BRANCH  24  25
HETATM   25  N   UNK N   1      20.368  15.963   3.038  0.00  0.00    -0.350 N 
HETATM   26  C   UNK N   1      20.537  15.293   4.225  0.00  0.00     0.010 A 
HETATM   27  C   UNK N   1      20.343  13.813   4.317  0.00  0.00     0.068 C 
HETATM   28  C   UNK N   1      20.873  15.983   5.390  0.00  0.00     0.054 A 
HETATM   29  C   UNK N   1      21.048  17.361   5.360  0.00  0.00     0.040 A 
HETATM   30  C   UNK N   1      20.892  18.050   4.153  0.00  0.00     0.017 A 
HETATM   31  C   UNK N   1      20.543  17.332   2.982  0.00  0.00     0.047 A 
HETATM   32  C   UNK N   1      21.071  19.441   4.093  0.00  0.00     0.016 A 
HETATM   33  C   UNK N   1      20.375  18.042   1.778  0.00  0.00     0.030 A 
HETATM   34  C   UNK N   1      20.564  19.423   1.730  0.00  0.00     0.002 A 
HETATM   35  C   UNK N   1      20.912  20.122   2.886  0.00  0.00     0.001 A 
BRANCH  29  36
HETATM   36  N   UNK N   1      21.372  18.046   6.551  0.00  0.00    -0.398 N 
HETATM   37  H   UNK N   1      22.312  18.120   6.834  0.00  0.00     0.156 HD
HETATM   38  H   UNK N   1      20.660  18.448   7.097  0.00  0.00     0.156 HD
ENDBRANCH  29  36
ENDBRANCH  24  25
ENDBRANCH  23  24
ENDBRANCH  22  23
ENDBRANCH  21  22
ENDBRANCH  20  21
ENDBRANCH   1  20
TORSDOF 13
ENDMDL
MODEL 6
REMARK VINA RESULT:      -6.3     11.800     14.994
REMARK  13 active torsions:
REMARK  status: ('A' for Active; 'I' for Inactive)
REMARK    1  A    between atoms: C_4  and  N_5 
REMARK    2  A    between atoms: N_12  and  C_13 
REMARK    3  A    between atoms: C_13  and  C_14 
REMARK    4  A    between atoms: C_14  and  C_15 
REMARK    5  A    between atoms: C_15  and  C_16 
REMARK    6  A    between atoms: C_16  and  C_17 
REMARK    7  A    between atoms: C_17  and  C_18 
REMARK    8  A    between atoms: C_18  and  C_19 
REMARK    9  A    between atoms: C_19  and  C_20 
REMARK   10  A    between atoms: C_20  and  C_21 
REMARK   11  A    between atoms: C_21  and  C_22 
REMARK   12  A    between atoms: C_22  and  N_23 
REMARK   13  A    between atoms: C_27  and  N_28 
ROOT
HETATM    1  C   UNK N   1      25.973  28.436  -3.799  0.00  0.00     0.000 C 
ENDROOT
BRANCH   1   2
HETATM    2  C   UNK N   1      27.228  29.031  -4.413  0.00  0.00     0.000 C 
BRANCH   2   3
HETATM    3  C   UNK N   1      28.436  28.702  -3.550  0.00  0.00     0.002 C 
BRANCH   3   4
HETATM    4  C   UNK N   1      29.245  27.553  -4.138  0.00  0.00     0.020 C 
BRANCH   4   5
HETATM    5  C   UNK N   1      30.170  28.044  -5.243  0.00  0.00     0.129 C 
BRANCH   5   6
HETATM    6  N   UNK N   1      30.296  27.033  -6.295  0.00  0.00    -0.350 N 
HETATM    7  C   UNK N   1      31.193  26.000  -6.163  0.00  0.00     0.047 A 
HETATM    8  C   UNK N   1      32.008  25.889  -5.020  0.00  0.00     0.030 A 
HETATM    9  C   UNK N   1      31.313  25.029  -7.187  0.00  0.00     0.017 A 
HETATM   10  C   UNK N   1      32.918  24.839  -4.896  0.00  0.00     0.002 A 
HETATM   11  C   UNK N   1      33.029  23.884  -5.908  0.00  0.00     0.001 A 
HETATM   12  C   UNK N   1      32.230  23.978  -7.049  0.00  0.00     0.016 A 
HETATM   13  C   UNK N   1      30.509  25.136  -8.328  0.00  0.00     0.040 A 
HETATM   14  C   UNK N   1      29.614  26.193  -8.440  0.00  0.00     0.054 A 
HETATM   15  C   UNK N   1      29.516  27.139  -7.420  0.00  0.00     0.010 A 
HETATM   16  C   UNK N   1      28.537  28.256  -7.587  0.00  0.00     0.068 C 
BRANCH  13  17
HETATM   17  N   UNK N   1      30.598  24.188  -9.370  0.00  0.00    -0.398 N 
HETATM   18  H   UNK N   1      31.400  23.626  -9.460  0.00  0.00     0.156 HD
HETATM   19  H   UNK N   1      29.854  24.088 -10.007  0.00  0.00     0.156 HD
ENDBRANCH  13  17
ENDBRANCH   5   6
ENDBRANCH   4   5
ENDBRANCH   3   4
ENDBRANCH   2   3
ENDBRANCH   1   2
BRANCH   1  20
HETATM   20  C   UNK N   1      25.156  27.718  -4.859  0.00  0.00     0.000 C 
BRANCH  20  21
HETATM   21  C   UNK N   1      25.949  26.594  -5.498  0.00  0.00     0.000 C 
BRANCH  21  22
HETATM   22  C   UNK N   1      25.347  25.218  -5.208  0.00  0.00     0.002 C 
BRANCH  22  23
HETATM   23  C   UNK N   1      26.406  24.227  -4.729  0.00  0.00     0.020 C 
BRANCH  23  24
HETATM   24  C   UNK N   1      27.751  24.539  -5.379  0.00  0.00     0.129 C 
BRANCH  24  25
HETATM   25  N   UNK N   1      28.560  23.344  -5.655  0.00  0.00    -0.350 N 
HETATM   26  C   UNK N   1      28.358  22.675  -6.837  0.00  0.00     0.010 A 
HETATM   27  C   UNK N   1      27.371  23.165  -7.848  0.00  0.00     0.068 C 
HETATM   28  C   UNK N   1      29.054  21.499  -7.117  0.00  0.00     0.054 A 
HETATM   29  C   UNK N   1      29.968  20.994  -6.201  0.00  0.00     0.040 A 
HETATM   30  C   UNK N   1      30.192  21.676  -5.000  0.00  0.00     0.017 A 
HETATM   31  C   UNK N   1      29.469  22.865  -4.732  0.00  0.00     0.047 A 
HETATM   32  C   UNK N   1      31.116  21.191  -4.062  0.00  0.00     0.016 A 
HETATM   33  C   UNK N   1      29.694  23.531  -3.512  0.00  0.00     0.030 A 
HETATM   34  C   UNK N   1      30.622  23.044  -2.591  0.00  0.00     0.002 A 
HETATM   35  C   UNK N   1      31.332  21.876  -2.866  0.00  0.00     0.001 A 
BRANCH  29  36
HETATM   36  N   UNK N   1      30.653  19.794  -6.493  0.00  0.00    -0.398 N 
HETATM   37  H   UNK N   1      31.494  19.582  -6.026  0.00  0.00     0.156 HD
HETATM   38  H   UNK N   1      30.290  19.170  -7.161  0.00  0.00     0.156 HD
ENDBRANCH  29  36
ENDBRANCH  24  25
ENDBRANCH  23  24
ENDBRANCH  22  23
ENDBRANCH  21  22
ENDBRANCH  20  21
ENDBRANCH   1  20
TORSDOF 13
ENDMDL
MODEL 7
REMARK VINA RESULT:      -6.2      1.697      2.713
REMARK  13 active torsions:
REMARK  status: ('A' for Active; 'I' for Inactive)
REMARK    1  A    between atoms: C_4  and  N_5 
REMARK    2  A    between atoms: N_12  and  C_13 
REMARK    3  A    between atoms: C_13  and  C_14 
REMARK    4  A    between atoms: C_14  and  C_15 
REMARK    5  A    between atoms: C_15  and  C_16 
REMARK    6  A    between atoms: C_16  and  C_17 
REMARK    7  A    between atoms: C_17  and  C_18 
REMARK    8  A    between atoms: C_18  and  C_19 
REMARK    9  A    between atoms: C_19  and  C_20 
REMARK   10  A    between atoms: C_20  and  C_21 
REMARK   11  A    between atoms: C_21  and  C_22 
REMARK   12  A    between atoms: C_22  and  N_23 
REMARK   13  A    between atoms: C_27  and  N_28 
ROOT
HETATM    1  C   UNK N   1      26.417  14.212   6.079  0.00  0.00     0.000 C 
ENDROOT
BRANCH   1   2
HETATM    2  C   UNK N   1      25.305  15.241   6.193  0.00  0.00     0.000 C 
BRANCH   2   3
HETATM    3  C   UNK N   1      23.954  14.573   5.989  0.00  0.00     0.002 C 
BRANCH   3   4
HETATM    4  C   UNK N   1      23.038  15.422   5.118  0.00  0.00     0.020 C 
BRANCH   4   5
HETATM    5  C   UNK N   1      22.687  16.733   5.808  0.00  0.00     0.129 C 
BRANCH   5   6
HETATM    6  N   UNK N   1      22.354  17.761   4.820  0.00  0.00    -0.350 N 
HETATM    7  C   UNK N   1      23.322  18.621   4.358  0.00  0.00     0.047 A 
HETATM    8  C   UNK N   1      24.649  18.536   4.821  0.00  0.00     0.030 A 
HETATM    9  C   UNK N   1      22.991  19.616   3.406  0.00  0.00     0.017 A 
HETATM   10  C   UNK N   1      25.624  19.415   4.349  0.00  0.00     0.002 A 
HETATM   11  C   UNK N   1      25.291  20.391   3.409  0.00  0.00     0.001 A 
HETATM   12  C   UNK N   1      23.980  20.493   2.939  0.00  0.00     0.016 A 
HETATM   13  C   UNK N   1      21.672  19.709   2.946  0.00  0.00     0.040 A 
HETATM   14  C   UNK N   1      20.711  18.832   3.433  0.00  0.00     0.054 A 
HETATM   15  C   UNK N   1      21.060  17.862   4.372  0.00  0.00     0.010 A 
HETATM   16  C   UNK N   1      19.991  16.941   4.863  0.00  0.00     0.068 C 
BRANCH  13  17
HETATM   17  N   UNK N   1      21.303  20.687   1.996  0.00  0.00    -0.398 N 
HETATM   18  H   UNK N   1      20.424  20.644   1.558  0.00  0.00     0.156 HD
HETATM   19  H   UNK N   1      21.928  21.414   1.773  0.00  0.00     0.156 HD
ENDBRANCH  13  17
ENDBRANCH   5   6
ENDBRANCH   4   5
ENDBRANCH   3   4
ENDBRANCH   2   3
ENDBRANCH   1   2
BRANCH   1  20
HETATM   20  C   UNK N   1      27.482  14.692   5.110  0.00  0.00     0.000 C 
BRANCH  20  21
HETATM   21  C   UNK N   1      26.917  15.693   4.120  0.00  0.00     0.000 C 
BRANCH  21  22
HETATM   22  C   UNK N   1      27.993  16.274   3.201  0.00  0.00     0.002 C 
BRANCH  22  23
HETATM   23  C   UNK N   1      29.385  16.168   3.822  0.00  0.00     0.020 C 
BRANCH  23  24
HETATM   24  C   UNK N   1      29.822  17.524   4.368  0.00  0.00     0.129 C 
BRANCH  24  25
HETATM   25  N   UNK N   1      30.563  17.436   5.634  0.00  0.00    -0.350 N 
HETATM   26  C   UNK N   1      31.927  17.295   5.585  0.00  0.00     0.010 A 
HETATM   27  C   UNK N   1      32.661  17.274   4.282  0.00  0.00     0.068 C 
HETATM   28  C   UNK N   1      32.669  17.140   6.756  0.00  0.00     0.054 A 
HETATM   29  C   UNK N   1      32.032  17.135   7.991  0.00  0.00     0.040 A 
HETATM   30  C   UNK N   1      30.644  17.293   8.052  0.00  0.00     0.017 A 
HETATM   31  C   UNK N   1      29.908  17.440   6.850  0.00  0.00     0.047 A 
HETATM   32  C   UNK N   1      29.976  17.300   9.286  0.00  0.00     0.016 A 
HETATM   33  C   UNK N   1      28.509  17.583   6.927  0.00  0.00     0.030 A 
HETATM   34  C   UNK N   1      27.858  17.597   8.161  0.00  0.00     0.002 A 
HETATM   35  C   UNK N   1      28.591  17.456   9.339  0.00  0.00     0.001 A 
BRANCH  29  36
HETATM   36  N   UNK N   1      32.795  16.963   9.165  0.00  0.00    -0.398 N 
HETATM   37  H   UNK N   1      33.772  17.085   9.139  0.00  0.00     0.156 HD
HETATM   38  H   UNK N   1      32.352  16.720  10.010  0.00  0.00     0.156 HD
ENDBRANCH  29  36
ENDBRANCH  24  25
ENDBRANCH  23  24
ENDBRANCH  22  23
ENDBRANCH  21  22
ENDBRANCH  20  21
ENDBRANCH   1  20
TORSDOF 13
ENDMDL
MODEL 8
REMARK VINA RESULT:      -6.2     12.209     15.057
REMARK  13 active torsions:
REMARK  status: ('A' for Active; 'I' for Inactive)
REMARK    1  A    between atoms: C_4  and  N_5 
REMARK    2  A    between atoms: N_12  and  C_13 
REMARK    3  A    between atoms: C_13  and  C_14 
REMARK    4  A    between atoms: C_14  and  C_15 
REMARK    5  A    between atoms: C_15  and  C_16 
REMARK    6  A    between atoms: C_16  and  C_17 
REMARK    7  A    between atoms: C_17  and  C_18 
REMARK    8  A    between atoms: C_18  and  C_19 
REMARK    9  A    between atoms: C_19  and  C_20 
REMARK   10  A    between atoms: C_20  and  C_21 
REMARK   11  A    between atoms: C_21  and  C_22 
REMARK   12  A    between atoms: C_22  and  N_23 
REMARK   13  A    between atoms: C_27  and  N_28 
ROOT
HETATM    1  C   UNK N   1      30.822  23.457  -3.588  0.00  0.00     0.000 C 
ENDROOT
BRANCH   1   2
HETATM    2  C   UNK N   1      30.613  22.077  -2.990  0.00  0.00     0.000 C 
BRANCH   2   3
HETATM    3  C   UNK N   1      30.703  21.018  -4.078  0.00  0.00     0.002 C 
BRANCH   3   4
HETATM    4  C   UNK N   1      30.670  21.642  -5.466  0.00  0.00     0.020 C 
BRANCH   4   5
HETATM    5  C   UNK N   1      29.264  21.605  -6.049  0.00  0.00     0.129 C 
BRANCH   5   6
HETATM    6  N   UNK N   1      29.305  21.773  -7.504  0.00  0.00    -0.350 N 
HETATM    7  C   UNK N   1      29.382  23.029  -8.056  0.00  0.00     0.047 A 
HETATM    8  C   UNK N   1      29.422  24.179  -7.243  0.00  0.00     0.030 A 
HETATM    9  C   UNK N   1      29.418  23.185  -9.463  0.00  0.00     0.017 A 
HETATM   10  C   UNK N   1      29.497  25.450  -7.812  0.00  0.00     0.002 A 
HETATM   11  C   UNK N   1      29.534  25.595  -9.201  0.00  0.00     0.001 A 
HETATM   12  C   UNK N   1      29.494  24.468 -10.023  0.00  0.00     0.016 A 
HETATM   13  C   UNK N   1      29.373  22.047 -10.278  0.00  0.00     0.040 A 
HETATM   14  C   UNK N   1      29.289  20.788  -9.695  0.00  0.00     0.054 A 
HETATM   15  C   UNK N   1      29.254  20.661  -8.307  0.00  0.00     0.010 A 
HETATM   16  C   UNK N   1      29.166  19.285  -7.728  0.00  0.00     0.068 C 
BRANCH  13  17
HETATM   17  N   UNK N   1      29.407  22.160 -11.685  0.00  0.00    -0.398 N 
HETATM   18  H   UNK N   1      29.169  21.390 -12.249  0.00  0.00     0.156 HD
HETATM   19  H   UNK N   1      29.669  23.013 -12.102  0.00  0.00     0.156 HD
ENDBRANCH  13  17
ENDBRANCH   5   6
ENDBRANCH   4   5
ENDBRANCH   3   4
ENDBRANCH   2   3
ENDBRANCH   1   2
BRANCH   1  20
HETATM   20  C   UNK N   1      29.597  24.324  -3.357  0.00  0.00     0.000 C 
BRANCH  20  21
HETATM   21  C   UNK N   1      28.531  23.576  -2.580  0.00  0.00     0.000 C 
BRANCH  21  22
HETATM   22  C   UNK N   1      27.147  23.704  -3.218  0.00  0.00     0.002 C 
BRANCH  22  23
HETATM   23  C   UNK N   1      27.137  24.734  -4.345  0.00  0.00     0.020 C 
BRANCH  23  24
HETATM   24  C   UNK N   1      25.774  24.750  -5.031  0.00  0.00     0.129 C 
BRANCH  24  25
HETATM   25  N   UNK N   1      25.853  24.892  -6.491  0.00  0.00    -0.350 N 
HETATM   26  C   UNK N   1      25.934  26.155  -7.024  0.00  0.00     0.010 A 
HETATM   27  C   UNK N   1      25.985  27.366  -6.148  0.00  0.00     0.068 C 
HETATM   28  C   UNK N   1      25.945  26.345  -8.405  0.00  0.00     0.054 A 
HETATM   29  C   UNK N   1      25.882  25.253  -9.262  0.00  0.00     0.040 A 
HETATM   30  C   UNK N   1      25.815  23.961  -8.729  0.00  0.00     0.017 A 
HETATM   31  C   UNK N   1      25.796  23.790  -7.322  0.00  0.00     0.047 A 
HETATM   32  C   UNK N   1      25.758  22.840  -9.572  0.00  0.00     0.016 A 
HETATM   33  C   UNK N   1      25.712  22.485  -6.802  0.00  0.00     0.030 A 
HETATM   34  C   UNK N   1      25.665  21.378  -7.650  0.00  0.00     0.002 A 
HETATM   35  C   UNK N   1      25.688  21.555  -9.033  0.00  0.00     0.001 A 
BRANCH  29  36
HETATM   36  N   UNK N   1      25.879  25.464 -10.657  0.00  0.00    -0.398 N 
HETATM   37  H   UNK N   1      26.413  26.195 -11.045  0.00  0.00     0.156 HD
HETATM   38  H   UNK N   1      25.344  24.881 -11.242  0.00  0.00     0.156 HD
ENDBRANCH  29  36
ENDBRANCH  24  25
ENDBRANCH  23  24
ENDBRANCH  22  23
ENDBRANCH  21  22
ENDBRANCH  20  21
ENDBRANCH   1  20
TORSDOF 13
ENDMDL
MODEL 9
REMARK VINA RESULT:      -6.2      1.657      8.110
REMARK  13 active torsions:
REMARK  status: ('A' for Active; 'I' for Inactive)
REMARK    1  A    between atoms: C_4  and  N_5 
REMARK    2  A    between atoms: N_12  and  C_13 
REMARK    3  A    between atoms: C_13  and  C_14 
REMARK    4  A    between atoms: C_14  and  C_15 
REMARK    5  A    between atoms: C_15  and  C_16 
REMARK    6  A    between atoms: C_16  and  C_17 
REMARK    7  A    between atoms: C_17  and  C_18 
REMARK    8  A    between atoms: C_18  and  C_19 
REMARK    9  A    between atoms: C_19  and  C_20 
REMARK   10  A    between atoms: C_20  and  C_21 
REMARK   11  A    between atoms: C_21  and  C_22 
REMARK   12  A    between atoms: C_22  and  N_23 
REMARK   13  A    between atoms: C_27  and  N_28 
ROOT
HETATM    1  C   UNK N   1      26.280  15.714   2.428  0.00  0.00     0.000 C 
ENDROOT
BRANCH   1   2
HETATM    2  C   UNK N   1      27.688  15.222   2.713  0.00  0.00     0.000 C 
BRANCH   2   3
HETATM    3  C   UNK N   1      28.558  16.377   3.183  0.00  0.00     0.002 C 
BRANCH   3   4
HETATM    4  C   UNK N   1      27.949  17.078   4.390  0.00  0.00     0.020 C 
BRANCH   4   5
HETATM    5  C   UNK N   1      28.832  18.226   4.859  0.00  0.00     0.129 C 
BRANCH   5   6
HETATM    6  N   UNK N   1      29.086  18.126   6.298  0.00  0.00    -0.350 N 
HETATM    7  C   UNK N   1      30.081  17.304   6.772  0.00  0.00     0.047 A 
HETATM    8  C   UNK N   1      30.874  16.543   5.893  0.00  0.00     0.030 A 
HETATM    9  C   UNK N   1      30.318  17.208   8.165  0.00  0.00     0.017 A 
HETATM   10  C   UNK N   1      31.880  15.709   6.383  0.00  0.00     0.002 A 
HETATM   11  C   UNK N   1      32.109  15.621   7.757  0.00  0.00     0.001 A 
HETATM   12  C   UNK N   1      31.332  16.367   8.646  0.00  0.00     0.016 A 
HETATM   13  C   UNK N   1      29.529  17.958   9.046  0.00  0.00     0.040 A 
HETATM   14  C   UNK N   1      28.526  18.777   8.542  0.00  0.00     0.054 A 
HETATM   15  C   UNK N   1      28.310  18.853   7.166  0.00  0.00     0.010 A 
HETATM   16  C   UNK N   1      27.221  19.749   6.673  0.00  0.00     0.068 C 
BRANCH  13  17
HETATM   17  N   UNK N   1      29.735  17.890  10.442  0.00  0.00    -0.398 N 
HETATM   18  H   UNK N   1      29.792  18.715  10.974  0.00  0.00     0.156 HD
HETATM   19  H   UNK N   1      29.822  17.014  10.882  0.00  0.00     0.156 HD
ENDBRANCH  13  17
ENDBRANCH   5   6
ENDBRANCH   4   5
ENDBRANCH   3   4
ENDBRANCH   2   3
ENDBRANCH   1   2
BRANCH   1  20
HETATM   20  C   UNK N   1      25.540  14.718   1.553  0.00  0.00     0.000 C 
BRANCH  20  21
HETATM   21  C   UNK N   1      24.077  14.622   1.942  0.00  0.00     0.000 C 
BRANCH  21  22
HETATM   22  C   UNK N   1      23.851  14.887   3.431  0.00  0.00     0.002 C 
BRANCH  22  23
HETATM   23  C   UNK N   1      22.403  15.276   3.723  0.00  0.00     0.020 C 
BRANCH  23  24
HETATM   24  C   UNK N   1      22.360  16.422   4.730  0.00  0.00     0.129 C 
BRANCH  24  25
HETATM   25  N   UNK N   1      22.003  17.715   4.131  0.00  0.00    -0.350 N 
HETATM   26  C   UNK N   1      20.679  17.977   3.878  0.00  0.00     0.010 A 
HETATM   27  C   UNK N   1      19.610  16.996   4.241  0.00  0.00     0.068 C 
HETATM   28  C   UNK N   1      20.294  19.162   3.251  0.00  0.00     0.054 A 
HETATM   29  C   UNK N   1      21.252  20.097   2.879  0.00  0.00     0.040 A 
HETATM   30  C   UNK N   1      22.602  19.847   3.144  0.00  0.00     0.017 A 
HETATM   31  C   UNK N   1      22.972  18.633   3.776  0.00  0.00     0.047 A 
HETATM   32  C   UNK N   1      23.588  20.779   2.786  0.00  0.00     0.016 A 
HETATM   33  C   UNK N   1      24.336  18.389   4.022  0.00  0.00     0.030 A 
HETATM   34  C   UNK N   1      25.307  19.327   3.670  0.00  0.00     0.002 A 
HETATM   35  C   UNK N   1      24.933  20.521   3.053  0.00  0.00     0.001 A 
BRANCH  29  36
HETATM   36  N   UNK N   1      20.848  21.284   2.230  0.00  0.00    -0.398 N 
HETATM   37  H   UNK N   1      21.519  21.958   1.974  0.00  0.00     0.156 HD
HETATM   38  H   UNK N   1      19.896  21.440   2.034  0.00  0.00     0.156 HD
ENDBRANCH  29  36
ENDBRANCH  24  25
ENDBRANCH  23  24
ENDBRANCH  22  23
ENDBRANCH  21  22
ENDBRANCH  20  21
ENDBRANCH   1  20
TORSDOF 13
ENDMDL
