MODEL 1
REMARK VINA RESULT:      -3.8      0.000      0.000
REMARK  3 active torsions:
REMARK  status: ('A' for Active; 'I' for Inactive)
REMARK    1  A    between atoms: P_2  and  N_3 
REMARK    2  A    between atoms: P_2  and  N_6 
REMARK    3  A    between atoms: P_2  and  N_9 
ROOT
HETATM    1  S   UNK N   1      37.071  11.884  12.718  0.00  0.00    -0.046 SA
HETATM    2  P   UNK N   1      35.783  12.234  13.878  0.00  0.00     0.145 P 
ENDROOT
BRANCH   2   3
HETATM    3  N   UNK N   1      36.748  12.730  15.331  0.00  0.00    -0.258 NA
HETATM    4  C   UNK N   1      35.818  13.346  16.291  0.00  0.00     0.112 A 
HETATM    5  C   UNK N   1      36.722  14.187  15.522  0.00  0.00     0.112 A 
ENDBRANCH   2   3
BRANCH   2   6
HETATM    6  N   UNK N   1      35.050  10.589  14.096  0.00  0.00    -0.258 NA
HETATM    7  C   UNK N   1      33.876  10.423  13.231  0.00  0.00     0.112 A 
HETATM    8  C   UNK N   1      33.697  10.763  14.637  0.00  0.00     0.112 A 
ENDBRANCH   2   6
BRANCH   2   9
HETATM    9  N   UNK N   1      34.815  13.497  12.983  0.00  0.00    -0.258 NA
HETATM   10  C   UNK N   1      35.172  13.507  11.554  0.00  0.00     0.112 A 
HETATM   11  C   UNK N   1      35.714  14.523  12.426  0.00  0.00     0.112 A 
ENDBRANCH   2   9
TORSDOF 3
ENDMDL
MODEL 2
REMARK VINA RESULT:      -3.7      2.096      2.865
REMARK  3 active torsions:
REMARK  status: ('A' for Active; 'I' for Inactive)
REMARK    1  A    between atoms: P_2  and  N_3 
REMARK    2  A    between atoms: P_2  and  N_6 
REMARK    3  A    between atoms: P_2  and  N_9 
ROOT
HETATM    1  S   UNK N   1      33.865  10.765  14.398  0.00  0.00    -0.046 SA
HETATM    2  P   UNK N   1      35.259  11.849  14.458  0.00  0.00     0.145 P 
ENDROOT
BRANCH   2   3
HETATM    3  N   UNK N   1      36.575  10.761  13.845  0.00  0.00    -0.258 NA
HETATM    4  C   UNK N   1      37.366  10.325  15.007  0.00  0.00     0.112 A 
HETATM    5  C   UNK N   1      37.906  11.330  14.104  0.00  0.00     0.112 A 
ENDBRANCH   2   3
BRANCH   2   6
HETATM    6  N   UNK N   1      35.408  12.131  16.244  0.00  0.00    -0.258 NA
HETATM    7  C   UNK N   1      34.546  13.240  16.671  0.00  0.00     0.112 A 
HETATM    8  C   UNK N   1      35.967  13.474  16.447  0.00  0.00     0.112 A 
ENDBRANCH   2   6
BRANCH   2   9
HETATM    9  N   UNK N   1      34.694  13.234  13.412  0.00  0.00    -0.258 NA
HETATM   10  C   UNK N   1      35.245  13.113  12.050  0.00  0.00     0.112 A 
HETATM   11  C   UNK N   1      35.848  14.042  12.976  0.00  0.00     0.112 A 
ENDBRANCH   2   9
TORSDOF 3
ENDMDL
MODEL 3
REMARK VINA RESULT:      -3.7      7.471      8.936
REMARK  3 active torsions:
REMARK  status: ('A' for Active; 'I' for Inactive)
REMARK    1  A    between atoms: P_2  and  N_3 
REMARK    2  A    between atoms: P_2  and  N_6 
REMARK    3  A    between atoms: P_2  and  N_9 
ROOT
HETATM    1  S   UNK N   1      33.050  14.487   7.340  0.00  0.00    -0.046 SA
HETATM    2  P   UNK N   1      32.846  16.241   7.257  0.00  0.00     0.145 P 
ENDROOT
BRANCH   2   3
HETATM    3  N   UNK N   1      31.491  16.491   8.436  0.00  0.00    -0.258 NA
HETATM    4  C   UNK N   1      30.322  16.961   7.674  0.00  0.00     0.112 A 
HETATM    5  C   UNK N   1      31.077  17.901   8.488  0.00  0.00     0.112 A 
ENDBRANCH   2   3
BRANCH   2   6
HETATM    6  N   UNK N   1      32.283  16.447   5.544  0.00  0.00    -0.258 NA
HETATM    7  C   UNK N   1      33.384  16.213   4.602  0.00  0.00     0.112 A 
HETATM    8  C   UNK N   1      33.015  17.578   4.959  0.00  0.00     0.112 A 
ENDBRANCH   2   6
BRANCH   2   9
HETATM    9  N   UNK N   1      34.519  16.828   7.690  0.00  0.00    -0.258 NA
HETATM   10  C   UNK N   1      34.599  17.150   9.126  0.00  0.00     0.112 A 
HETATM   11  C   UNK N   1      34.458  18.221   8.168  0.00  0.00     0.112 A 
ENDBRANCH   2   9
TORSDOF 3
ENDMDL
MODEL 4
REMARK VINA RESULT:      -3.7      2.118      3.696
REMARK  3 active torsions:
REMARK  status: ('A' for Active; 'I' for Inactive)
REMARK    1  A    between atoms: P_2  and  N_3 
REMARK    2  A    between atoms: P_2  and  N_6 
REMARK    3  A    between atoms: P_2  and  N_9 
ROOT
HETATM    1  S   UNK N   1      35.086  11.559  11.547  0.00  0.00    -0.046 SA
HETATM    2  P   UNK N   1      35.617  11.536  13.233  0.00  0.00     0.145 P 
ENDROOT
BRANCH   2   3
HETATM    3  N   UNK N   1      34.595  10.195  13.903  0.00  0.00    -0.258 NA
HETATM    4  C   UNK N   1      33.513  10.812  14.687  0.00  0.00     0.112 A 
HETATM    5  C   UNK N   1      34.628  10.178  15.373  0.00  0.00     0.112 A 
ENDBRANCH   2   3
BRANCH   2   6
HETATM    6  N   UNK N   1      35.041  13.159  13.804  0.00  0.00    -0.258 NA
HETATM    7  C   UNK N   1      36.060  14.187  13.565  0.00  0.00     0.112 A 
HETATM    8  C   UNK N   1      35.926  13.598  14.891  0.00  0.00     0.112 A 
ENDBRANCH   2   6
BRANCH   2   9
HETATM    9  N   UNK N   1      37.414  11.275  13.049  0.00  0.00    -0.258 NA
HETATM   10  C   UNK N   1      37.754   9.856  13.250  0.00  0.00     0.112 A 
HETATM   11  C   UNK N   1      37.988  10.797  14.320  0.00  0.00     0.112 A 
ENDBRANCH   2   9
TORSDOF 3
ENDMDL
MODEL 5
REMARK VINA RESULT:      -3.6      2.145      3.238
REMARK  3 active torsions:
REMARK  status: ('A' for Active; 'I' for Inactive)
REMARK    1  A    between atoms: P_2  and  N_3 
REMARK    2  A    between atoms: P_2  and  N_6 
REMARK    3  A    between atoms: P_2  and  N_9 
ROOT
HETATM    1  S   UNK N   1      33.909  10.708  14.423  0.00  0.00    -0.046 SA
HETATM    2  P   UNK N   1      35.292  11.803  14.542  0.00  0.00     0.145 P 
ENDROOT
BRANCH   2   3
HETATM    3  N   UNK N   1      35.322  12.135  16.325  0.00  0.00    -0.258 NA
HETATM    4  C   UNK N   1      34.437  13.285  16.576  0.00  0.00     0.112 A 
HETATM    5  C   UNK N   1      35.880  13.464  16.614  0.00  0.00     0.112 A 
ENDBRANCH   2   3
BRANCH   2   6
HETATM    6  N   UNK N   1      34.687  13.236  13.608  0.00  0.00    -0.258 NA
HETATM    7  C   UNK N   1      35.104  13.157  12.203  0.00  0.00     0.112 A 
HETATM    8  C   UNK N   1      35.852  13.993  13.133  0.00  0.00     0.112 A 
ENDBRANCH   2   6
BRANCH   2   9
HETATM    9  N   UNK N   1      36.623  10.795  13.805  0.00  0.00    -0.258 NA
HETATM   10  C   UNK N   1      37.370  10.077  14.853  0.00  0.00     0.112 A 
HETATM   11  C   UNK N   1      37.937  11.272  14.274  0.00  0.00     0.112 A 
ENDBRANCH   2   9
TORSDOF 3
ENDMDL
MODEL 6
REMARK VINA RESULT:      -3.6      2.109      3.584
REMARK  3 active torsions:
REMARK  status: ('A' for Active; 'I' for Inactive)
REMARK    1  A    between atoms: P_2  and  N_3 
REMARK    2  A    between atoms: P_2  and  N_6 
REMARK    3  A    between atoms: P_2  and  N_9 
ROOT
HETATM    1  S   UNK N   1      33.918  10.755  14.522  0.00  0.00    -0.046 SA
HETATM    2  P   UNK N   1      35.284  11.875  14.558  0.00  0.00     0.145 P 
ENDROOT
BRANCH   2   3
HETATM    3  N   UNK N   1      34.678  13.200  13.478  0.00  0.00    -0.258 NA
HETATM    4  C   UNK N   1      35.312  13.023  12.161  0.00  0.00     0.112 A 
HETATM    5  C   UNK N   1      35.771  14.083  13.045  0.00  0.00     0.112 A 
ENDBRANCH   2   3
BRANCH   2   6
HETATM    6  N   UNK N   1      36.569  10.888  13.742  0.00  0.00    -0.258 NA
HETATM    7  C   UNK N   1      37.295  10.066  14.717  0.00  0.00     0.112 A 
HETATM    8  C   UNK N   1      37.873  11.323  14.258  0.00  0.00     0.112 A 
ENDBRANCH   2   6
BRANCH   2   9
HETATM    9  N   UNK N   1      35.452  12.195  16.347  0.00  0.00    -0.258 NA
HETATM   10  C   UNK N   1      34.560  13.293  16.762  0.00  0.00     0.112 A 
HETATM   11  C   UNK N   1      35.967  13.559  16.571  0.00  0.00     0.112 A 
ENDBRANCH   2   9
TORSDOF 3
ENDMDL
MODEL 7
REMARK VINA RESULT:      -3.6      7.043      8.881
REMARK  3 active torsions:
REMARK  status: ('A' for Active; 'I' for Inactive)
REMARK    1  A    between atoms: P_2  and  N_3 
REMARK    2  A    between atoms: P_2  and  N_6 
REMARK    3  A    between atoms: P_2  and  N_9 
ROOT
HETATM    1  S   UNK N   1      34.384  18.185   8.204  0.00  0.00    -0.046 SA
HETATM    2  P   UNK N   1      33.518  16.863   7.413  0.00  0.00     0.145 P 
ENDROOT
BRANCH   2   3
HETATM    3  N   UNK N   1      34.254  16.906   5.756  0.00  0.00    -0.258 NA
HETATM    4  C   UNK N   1      33.253  17.482   4.842  0.00  0.00     0.112 A 
HETATM    5  C   UNK N   1      33.513  16.051   4.817  0.00  0.00     0.112 A 
ENDBRANCH   2   3
BRANCH   2   6
HETATM    6  N   UNK N   1      31.823  17.509   7.405  0.00  0.00    -0.258 NA
HETATM    7  C   UNK N   1      31.083  17.047   8.585  0.00  0.00     0.112 A 
HETATM    8  C   UNK N   1      30.903  16.369   7.307  0.00  0.00     0.112 A 
ENDBRANCH   2   6
BRANCH   2   9
HETATM    9  N   UNK N   1      33.900  15.460   8.517  0.00  0.00    -0.258 NA
HETATM   10  C   UNK N   1      35.042  14.689   7.997  0.00  0.00     0.112 A 
HETATM   11  C   UNK N   1      33.703  14.186   7.802  0.00  0.00     0.112 A 
ENDBRANCH   2   9
TORSDOF 3
ENDMDL
MODEL 8
REMARK VINA RESULT:      -3.5     23.685     24.626
REMARK  3 active torsions:
REMARK  status: ('A' for Active; 'I' for Inactive)
REMARK    1  A    between atoms: P_2  and  N_3 
REMARK    2  A    between atoms: P_2  and  N_6 
REMARK    3  A    between atoms: P_2  and  N_9 
ROOT
HETATM    1  S   UNK N   1      26.973  24.318  -3.493  0.00  0.00    -0.046 SA
HETATM    2  P   UNK N   1      26.743  25.795  -4.436  0.00  0.00     0.145 P 
ENDROOT
BRANCH   2   3
HETATM    3  N   UNK N   1      26.168  26.942  -3.154  0.00  0.00    -0.258 NA
HETATM    4  C   UNK N   1      25.680  28.155  -3.832  0.00  0.00     0.112 A 
HETATM    5  C   UNK N   1      26.962  28.179  -3.145  0.00  0.00     0.112 A 
ENDBRANCH   2   3
BRANCH   2   6
HETATM    6  N   UNK N   1      25.391  25.300  -5.540  0.00  0.00    -0.258 NA
HETATM    7  C   UNK N   1      25.915  24.661  -6.753  0.00  0.00     0.112 A 
HETATM    8  C   UNK N   1      25.519  26.064  -6.787  0.00  0.00     0.112 A 
ENDBRANCH   2   6
BRANCH   2   9
HETATM    9  N   UNK N   1      28.401  26.032  -5.160  0.00  0.00    -0.258 NA
HETATM   10  C   UNK N   1      29.280  24.898  -4.825  0.00  0.00     0.112 A 
HETATM   11  C   UNK N   1      29.410  26.134  -4.090  0.00  0.00     0.112 A 
ENDBRANCH   2   9
TORSDOF 3
ENDMDL
MODEL 9
REMARK VINA RESULT:      -3.5      7.693      9.568
REMARK  3 active torsions:
REMARK  status: ('A' for Active; 'I' for Inactive)
REMARK    1  A    between atoms: P_2  and  N_3 
REMARK    2  A    between atoms: P_2  and  N_6 
REMARK    3  A    between atoms: P_2  and  N_9 
ROOT
HETATM    1  S   UNK N   1      35.137  15.219   6.149  0.00  0.00    -0.046 SA
HETATM    2  P   UNK N   1      33.720  16.275   6.158  0.00  0.00     0.145 P 
ENDROOT
BRANCH   2   3
HETATM    3  N   UNK N   1      33.456  16.522   4.381  0.00  0.00    -0.258 NA
HETATM    4  C   UNK N   1      32.509  17.638   4.224  0.00  0.00     0.112 A 
HETATM    5  C   UNK N   1      32.057  16.273   4.006  0.00  0.00     0.112 A 
ENDBRANCH   2   3
BRANCH   2   6
HETATM    6  N   UNK N   1      34.397  17.765   6.943  0.00  0.00    -0.258 NA
HETATM    7  C   UNK N   1      34.576  17.559   8.385  0.00  0.00     0.112 A 
HETATM    8  C   UNK N   1      33.400  18.269   7.896  0.00  0.00     0.112 A 
ENDBRANCH   2   6
BRANCH   2   9
HETATM    9  N   UNK N   1      32.520  15.275   7.103  0.00  0.00    -0.258 NA
HETATM   10  C   UNK N   1      33.164  14.059   7.633  0.00  0.00     0.112 A 
HETATM   11  C   UNK N   1      32.334  13.964   6.455  0.00  0.00     0.112 A 
ENDBRANCH   2   9
TORSDOF 3
ENDMDL
