MODEL 1
REMARK VINA RESULT:      -7.6      0.000      0.000
REMARK  4 active torsions:
REMARK  status: ('A' for Active; 'I' for Inactive)
REMARK    1  A    between atoms: N_1  and  C_4 
REMARK    2  A    between atoms: C_4  and  C_5 
REMARK    3  A    between atoms: C_4  and  C_6 
REMARK    4  A    between atoms: C_9  and  C_16 
ROOT
HETATM    1  C   UNK N   1      36.283  14.097  11.540  0.00  0.00     0.156 C 
ENDROOT
BRANCH   1   2
HETATM    2  N   UNK N   1      35.443  15.092  10.840  0.00  0.00    -0.338 N 
HETATM    3  C   UNK N   1      34.425  14.828   9.995  0.00  0.00     0.110 A 
HETATM    4  C   UNK N   1      33.880  16.029   9.593  0.00  0.00     0.106 A 
HETATM    5  N   UNK N   1      34.563  17.029  10.187  0.00  0.00    -0.361 N 
HETATM    6  C   UNK N   1      35.505  16.434  10.939  0.00  0.00     0.183 A 
ATOM      7  HN  UNK N   1      34.397  18.030  10.087  1.00  0.00     0.166 HD
ENDBRANCH   1   2
BRANCH   1   8
HETATM    8  C   UNK N   1      36.033  13.772  13.012  0.00  0.00    -0.030 A 
HETATM    9  C   UNK N   1      35.083  12.802  13.362  0.00  0.00     0.010 A 
HETATM   10  C   UNK N   1      34.873  12.452  14.697  0.00  0.00     0.013 A 
HETATM   11  C   UNK N   1      35.611  13.068  15.717  0.00  0.00    -0.026 A 
HETATM   12  C   UNK N   1      36.556  14.045  15.376  0.00  0.00     0.013 A 
HETATM   13  C   UNK N   1      36.765  14.391  14.037  0.00  0.00     0.010 A 
BRANCH  11  14
HETATM   14  C   UNK N   1      35.405  12.670  17.131  0.00  0.00    -0.026 A 
HETATM   15  C   UNK N   1      35.490  11.319  17.509  0.00  0.00     0.012 A 
HETATM   16  C   UNK N   1      35.312  10.943  18.842  0.00  0.00     0.001 A 
HETATM   17  C   UNK N   1      35.049  11.913  19.813  0.00  0.00     0.000 A 
HETATM   18  C   UNK N   1      34.960  13.259  19.449  0.00  0.00     0.001 A 
HETATM   19  C   UNK N   1      35.139  13.637  18.115  0.00  0.00     0.012 A 
ENDBRANCH  11  14
ENDBRANCH   1   8
BRANCH   1  20
HETATM   20  C   UNK N   1      37.279  13.287  10.727  0.00  0.00    -0.031 A 
HETATM   21  C   UNK N   1      38.118  13.924   9.799  0.00  0.00     0.009 A 
HETATM   22  C   UNK N   1      39.063  13.190   9.075  0.00  0.00     0.001 A 
HETATM   23  C   UNK N   1      39.155  11.807   9.248  0.00  0.00     0.000 A 
HETATM   24  C   UNK N   1      38.313  11.161  10.156  0.00  0.00     0.001 A 
HETATM   25  C   UNK N   1      37.392  11.900  10.905  0.00  0.00     0.009 A 
ENDBRANCH   1  20
TORSDOF 4
ENDMDL
MODEL 2
REMARK VINA RESULT:      -7.3      1.368      3.520
REMARK  4 active torsions:
REMARK  status: ('A' for Active; 'I' for Inactive)
REMARK    1  A    between atoms: N_1  and  C_4 
REMARK    2  A    between atoms: C_4  and  C_5 
REMARK    3  A    between atoms: C_4  and  C_6 
REMARK    4  A    between atoms: C_9  and  C_16 
ROOT
HETATM    1  C   UNK N   1      35.899  13.825  10.961  0.00  0.00     0.156 C 
ENDROOT
BRANCH   1   2
HETATM    2  N   UNK N   1      37.033  13.248  10.208  0.00  0.00    -0.338 N 
HETATM    3  C   UNK N   1      37.016  12.841   8.923  0.00  0.00     0.110 A 
HETATM    4  C   UNK N   1      38.283  12.407   8.595  0.00  0.00     0.106 A 
HETATM    5  N   UNK N   1      39.076  12.545   9.677  0.00  0.00    -0.361 N 
HETATM    6  C   UNK N   1      38.293  13.058  10.642  0.00  0.00     0.183 A 
ATOM      7  HN  UNK N   1      40.066  12.308   9.748  1.00  0.00     0.166 HD
ENDBRANCH   1   2
BRANCH   1   8
HETATM    8  C   UNK N   1      35.752  13.566  12.459  0.00  0.00    -0.030 A 
HETATM    9  C   UNK N   1      35.010  12.464  12.908  0.00  0.00     0.010 A 
HETATM   10  C   UNK N   1      34.904  12.178  14.270  0.00  0.00     0.013 A 
HETATM   11  C   UNK N   1      35.538  12.990  15.219  0.00  0.00    -0.026 A 
HETATM   12  C   UNK N   1      36.275  14.099  14.779  0.00  0.00     0.013 A 
HETATM   13  C   UNK N   1      36.381  14.380  13.413  0.00  0.00     0.010 A 
BRANCH  11  14
HETATM   14  C   UNK N   1      35.446  12.664  16.663  0.00  0.00    -0.026 A 
HETATM   15  C   UNK N   1      35.608  11.339  17.103  0.00  0.00     0.012 A 
HETATM   16  C   UNK N   1      35.538  11.030  18.464  0.00  0.00     0.001 A 
HETATM   17  C   UNK N   1      35.306  12.042  19.399  0.00  0.00     0.000 A 
HETATM   18  C   UNK N   1      35.142  13.363  18.973  0.00  0.00     0.001 A 
HETATM   19  C   UNK N   1      35.213  13.673  17.612  0.00  0.00     0.012 A 
ENDBRANCH  11  14
ENDBRANCH   1   8
BRANCH   1  20
HETATM   20  C   UNK N   1      34.987  14.814  10.253  0.00  0.00    -0.031 A 
HETATM   21  C   UNK N   1      35.388  16.148  10.083  0.00  0.00     0.009 A 
HETATM   22  C   UNK N   1      34.569  17.053   9.399  0.00  0.00     0.001 A 
HETATM   23  C   UNK N   1      33.329  16.642   8.909  0.00  0.00     0.000 A 
HETATM   24  C   UNK N   1      32.913  15.320   9.089  0.00  0.00     0.001 A 
HETATM   25  C   UNK N   1      33.745  14.406   9.742  0.00  0.00     0.009 A 
ENDBRANCH   1  20
TORSDOF 4
ENDMDL
MODEL 3
REMARK VINA RESULT:      -7.2      4.824      9.903
REMARK  4 active torsions:
REMARK  status: ('A' for Active; 'I' for Inactive)
REMARK    1  A    between atoms: N_1  and  C_4 
REMARK    2  A    between atoms: C_4  and  C_5 
REMARK    3  A    between atoms: C_4  and  C_6 
REMARK    4  A    between atoms: C_9  and  C_16 
ROOT
HETATM    1  C   UNK N   1      34.237   9.341  20.228  0.00  0.00     0.156 C 
ENDROOT
BRANCH   1   2
HETATM    2  N   UNK N   1      35.003   9.352  21.492  0.00  0.00    -0.338 N 
HETATM    3  C   UNK N   1      36.322   9.104  21.632  0.00  0.00     0.110 A 
HETATM    4  C   UNK N   1      36.647   9.256  22.962  0.00  0.00     0.106 A 
HETATM    5  N   UNK N   1      35.531   9.595  23.640  0.00  0.00    -0.361 N 
HETATM    6  C   UNK N   1      34.548   9.648  22.724  0.00  0.00     0.183 A 
ATOM      7  HN  UNK N   1      35.451   9.775  24.641  1.00  0.00     0.166 HD
ENDBRANCH   1   2
BRANCH   1   8
HETATM    8  C   UNK N   1      34.655  10.235  19.062  0.00  0.00    -0.030 A 
HETATM    9  C   UNK N   1      34.640   9.730  17.754  0.00  0.00     0.010 A 
HETATM   10  C   UNK N   1      34.968  10.543  16.667  0.00  0.00     0.013 A 
HETATM   11  C   UNK N   1      35.322  11.884  16.864  0.00  0.00    -0.026 A 
HETATM   12  C   UNK N   1      35.348  12.395  18.169  0.00  0.00     0.013 A 
HETATM   13  C   UNK N   1      35.015  11.578  19.255  0.00  0.00     0.010 A 
BRANCH  11  14
HETATM   14  C   UNK N   1      35.641  12.750  15.703  0.00  0.00    -0.026 A 
HETATM   15  C   UNK N   1      36.500  13.852  15.854  0.00  0.00     0.012 A 
HETATM   16  C   UNK N   1      36.816  14.661  14.760  0.00  0.00     0.001 A 
HETATM   17  C   UNK N   1      36.277  14.377  13.503  0.00  0.00     0.000 A 
HETATM   18  C   UNK N   1      35.420  13.285  13.340  0.00  0.00     0.001 A 
HETATM   19  C   UNK N   1      35.104  12.474  14.435  0.00  0.00     0.012 A 
ENDBRANCH  11  14
ENDBRANCH   1   8
BRANCH   1  20
HETATM   20  C   UNK N   1      33.138   8.305  20.054  0.00  0.00    -0.031 A 
HETATM   21  C   UNK N   1      31.790   8.678  20.172  0.00  0.00     0.009 A 
HETATM   22  C   UNK N   1      30.774   7.737  19.976  0.00  0.00     0.001 A 
HETATM   23  C   UNK N   1      31.097   6.409  19.693  0.00  0.00     0.000 A 
HETATM   24  C   UNK N   1      32.435   6.024  19.591  0.00  0.00     0.001 A 
HETATM   25  C   UNK N   1      33.451   6.971  19.753  0.00  0.00     0.009 A 
ENDBRANCH   1  20
TORSDOF 4
ENDMDL
MODEL 4
REMARK VINA RESULT:      -7.0     13.988     15.844
REMARK  4 active torsions:
REMARK  status: ('A' for Active; 'I' for Inactive)
REMARK    1  A    between atoms: N_1  and  C_4 
REMARK    2  A    between atoms: C_4  and  C_5 
REMARK    3  A    between atoms: C_4  and  C_6 
REMARK    4  A    between atoms: C_9  and  C_16 
ROOT
HETATM    1  C   UNK N   1      22.377  17.449   4.898  0.00  0.00     0.156 C 
ENDROOT
BRANCH   1   2
HETATM    2  N   UNK N   1      21.232  17.905   4.082  0.00  0.00    -0.338 N 
HETATM    3  C   UNK N   1      20.910  19.183   3.798  0.00  0.00     0.110 A 
HETATM    4  C   UNK N   1      19.801  19.173   2.979  0.00  0.00     0.106 A 
HETATM    5  N   UNK N   1      19.442  17.892   2.761  0.00  0.00    -0.361 N 
HETATM    6  C   UNK N   1      20.326  17.142   3.441  0.00  0.00     0.183 A 
ATOM      7  HN  UNK N   1      18.659  17.561   2.196  1.00  0.00     0.166 HD
ENDBRANCH   1   2
BRANCH   1   8
HETATM    8  C   UNK N   1      22.164  16.477   6.058  0.00  0.00    -0.030 A 
HETATM    9  C   UNK N   1      23.039  15.397   6.234  0.00  0.00     0.010 A 
HETATM   10  C   UNK N   1      22.895  14.526   7.315  0.00  0.00     0.013 A 
HETATM   11  C   UNK N   1      21.866  14.715   8.248  0.00  0.00    -0.026 A 
HETATM   12  C   UNK N   1      20.981  15.788   8.074  0.00  0.00     0.013 A 
HETATM   13  C   UNK N   1      21.132  16.660   6.991  0.00  0.00     0.010 A 
BRANCH  11  14
HETATM   14  C   UNK N   1      21.736  13.803   9.411  0.00  0.00    -0.026 A 
HETATM   15  C   UNK N   1      20.472  13.529   9.960  0.00  0.00     0.012 A 
HETATM   16  C   UNK N   1      20.343  12.659  11.045  0.00  0.00     0.001 A 
HETATM   17  C   UNK N   1      21.476  12.053  11.592  0.00  0.00     0.000 A 
HETATM   18  C   UNK N   1      22.739  12.319  11.056  0.00  0.00     0.001 A 
HETATM   19  C   UNK N   1      22.869  13.189   9.969  0.00  0.00     0.012 A 
ENDBRANCH  11  14
ENDBRANCH   1   8
BRANCH   1  20
HETATM   20  C   UNK N   1      23.781  17.829   4.455  0.00  0.00    -0.031 A 
HETATM   21  C   UNK N   1      24.352  19.039   4.878  0.00  0.00     0.009 A 
HETATM   22  C   UNK N   1      25.657  19.377   4.504  0.00  0.00     0.001 A 
HETATM   23  C   UNK N   1      26.391  18.523   3.678  0.00  0.00     0.000 A 
HETATM   24  C   UNK N   1      25.825  17.325   3.238  0.00  0.00     0.001 A 
HETATM   25  C   UNK N   1      24.533  16.970   3.638  0.00  0.00     0.009 A 
ENDBRANCH   1  20
TORSDOF 4
ENDMDL
MODEL 5
REMARK VINA RESULT:      -7.0      9.135     13.795
REMARK  4 active torsions:
REMARK  status: ('A' for Active; 'I' for Inactive)
REMARK    1  A    between atoms: N_1  and  C_4 
REMARK    2  A    between atoms: C_4  and  C_5 
REMARK    3  A    between atoms: C_4  and  C_6 
REMARK    4  A    between atoms: C_9  and  C_16 
ROOT
HETATM    1  C   UNK N   1      29.625  17.350   5.819  0.00  0.00     0.156 C 
ENDROOT
BRANCH   1   2
HETATM    2  N   UNK N   1      29.942  17.561   7.248  0.00  0.00    -0.338 N 
HETATM    3  C   UNK N   1      29.339  18.433   8.081  0.00  0.00     0.110 A 
HETATM    4  C   UNK N   1      29.901  18.287   9.332  0.00  0.00     0.106 A 
HETATM    5  N   UNK N   1      30.848  17.330   9.266  0.00  0.00    -0.361 N 
HETATM    6  C   UNK N   1      30.852  16.904   7.991  0.00  0.00     0.183 A 
ATOM      7  HN  UNK N   1      31.439  16.997  10.028  1.00  0.00     0.166 HD
ENDBRANCH   1   2
BRANCH   1   8
HETATM    8  C   UNK N   1      28.282  17.803   5.249  0.00  0.00    -0.030 A 
HETATM    9  C   UNK N   1      27.139  17.014   5.441  0.00  0.00     0.010 A 
HETATM   10  C   UNK N   1      25.892  17.431   4.973  0.00  0.00     0.013 A 
HETATM   11  C   UNK N   1      25.758  18.653   4.299  0.00  0.00    -0.026 A 
HETATM   12  C   UNK N   1      26.897  19.443   4.095  0.00  0.00     0.013 A 
HETATM   13  C   UNK N   1      28.144  19.022   4.568  0.00  0.00     0.010 A 
BRANCH  11  14
HETATM   14  C   UNK N   1      24.425  19.105   3.831  0.00  0.00    -0.026 A 
HETATM   15  C   UNK N   1      23.281  18.334   4.094  0.00  0.00     0.012 A 
HETATM   16  C   UNK N   1      22.022  18.765   3.669  0.00  0.00     0.001 A 
HETATM   17  C   UNK N   1      21.893  19.970   2.976  0.00  0.00     0.000 A 
HETATM   18  C   UNK N   1      23.025  20.745   2.706  0.00  0.00     0.001 A 
HETATM   19  C   UNK N   1      24.285  20.316   3.133  0.00  0.00     0.012 A 
ENDBRANCH  11  14
ENDBRANCH   1   8
BRANCH   1  20
HETATM   20  C   UNK N   1      30.721  16.833   4.901  0.00  0.00    -0.031 A 
HETATM   21  C   UNK N   1      30.715  15.496   4.477  0.00  0.00     0.009 A 
HETATM   22  C   UNK N   1      31.699  15.024   3.602  0.00  0.00     0.001 A 
HETATM   23  C   UNK N   1      32.717  15.877   3.170  0.00  0.00     0.000 A 
HETATM   24  C   UNK N   1      32.741  17.205   3.600  0.00  0.00     0.001 A 
HETATM   25  C   UNK N   1      31.739  17.686   4.448  0.00  0.00     0.009 A 
ENDBRANCH   1  20
TORSDOF 4
ENDMDL
MODEL 6
REMARK VINA RESULT:      -6.9     13.495     16.031
REMARK  4 active torsions:
REMARK  status: ('A' for Active; 'I' for Inactive)
REMARK    1  A    between atoms: N_1  and  C_4 
REMARK    2  A    between atoms: C_4  and  C_5 
REMARK    3  A    between atoms: C_4  and  C_6 
REMARK    4  A    between atoms: C_9  and  C_16 
ROOT
HETATM    1  C   UNK N   1      22.962  17.205   4.673  0.00  0.00     0.156 C 
ENDROOT
BRANCH   1   2
HETATM    2  N   UNK N   1      24.347  17.623   4.367  0.00  0.00    -0.338 N 
HETATM    3  C   UNK N   1      25.011  18.659   4.920  0.00  0.00     0.110 A 
HETATM    4  C   UNK N   1      26.284  18.681   4.393  0.00  0.00     0.106 A 
HETATM    5  N   UNK N   1      26.403  17.662   3.518  0.00  0.00    -0.361 N 
HETATM    6  C   UNK N   1      25.213  17.035   3.521  0.00  0.00     0.183 A 
ATOM      7  HN  UNK N   1      27.226  17.417   2.967  1.00  0.00     0.166 HD
ENDBRANCH   1   2
BRANCH   1   8
HETATM    8  C   UNK N   1      22.677  16.269   5.846  0.00  0.00    -0.030 A 
HETATM    9  C   UNK N   1      23.550  15.207   6.121  0.00  0.00     0.010 A 
HETATM   10  C   UNK N   1      23.338  14.369   7.217  0.00  0.00     0.013 A 
HETATM   11  C   UNK N   1      22.243  14.573   8.067  0.00  0.00    -0.026 A 
HETATM   12  C   UNK N   1      21.360  15.628   7.793  0.00  0.00     0.013 A 
HETATM   13  C   UNK N   1      21.578  16.467   6.696  0.00  0.00     0.010 A 
BRANCH  11  14
HETATM   14  C   UNK N   1      22.040  13.698   9.247  0.00  0.00    -0.026 A 
HETATM   15  C   UNK N   1      23.136  13.070   9.862  0.00  0.00     0.012 A 
HETATM   16  C   UNK N   1      22.950  12.259  10.984  0.00  0.00     0.001 A 
HETATM   17  C   UNK N   1      21.667  12.066  11.502  0.00  0.00     0.000 A 
HETATM   18  C   UNK N   1      20.569  12.684  10.897  0.00  0.00     0.001 A 
HETATM   19  C   UNK N   1      20.754  13.498   9.776  0.00  0.00     0.012 A 
ENDBRANCH  11  14
ENDBRANCH   1   8
BRANCH   1  20
HETATM   20  C   UNK N   1      21.822  17.857   3.908  0.00  0.00    -0.031 A 
HETATM   21  C   UNK N   1      21.043  17.100   3.018  0.00  0.00     0.009 A 
HETATM   22  C   UNK N   1      19.969  17.685   2.340  0.00  0.00     0.001 A 
HETATM   23  C   UNK N   1      19.684  19.040   2.520  0.00  0.00     0.000 A 
HETATM   24  C   UNK N   1      20.463  19.806   3.390  0.00  0.00     0.001 A 
HETATM   25  C   UNK N   1      21.516  19.214   4.094  0.00  0.00     0.009 A 
ENDBRANCH   1  20
TORSDOF 4
ENDMDL
MODEL 7
REMARK VINA RESULT:      -6.9     13.227     16.108
REMARK  4 active torsions:
REMARK  status: ('A' for Active; 'I' for Inactive)
REMARK    1  A    between atoms: N_1  and  C_4 
REMARK    2  A    between atoms: C_4  and  C_5 
REMARK    3  A    between atoms: C_4  and  C_6 
REMARK    4  A    between atoms: C_9  and  C_16 
ROOT
HETATM    1  C   UNK N   1      21.952  15.432   3.686  0.00  0.00     0.156 C 
ENDROOT
BRANCH   1   2
HETATM    2  N   UNK N   1      21.077  16.605   3.473  0.00  0.00    -0.338 N 
HETATM    3  C   UNK N   1      21.477  17.884   3.319  0.00  0.00     0.110 A 
HETATM    4  C   UNK N   1      20.357  18.658   3.105  0.00  0.00     0.106 A 
HETATM    5  N   UNK N   1      19.272  17.858   3.129  0.00  0.00    -0.361 N 
HETATM    6  C   UNK N   1      19.736  16.616   3.353  0.00  0.00     0.183 A 
ATOM      7  HN  UNK N   1      18.299  18.137   3.003  1.00  0.00     0.166 HD
ENDBRANCH   1   2
BRANCH   1   8
HETATM    8  C   UNK N   1      22.099  14.818   5.077  0.00  0.00    -0.030 A 
HETATM    9  C   UNK N   1      22.416  13.458   5.211  0.00  0.00     0.010 A 
HETATM   10  C   UNK N   1      22.605  12.887   6.470  0.00  0.00     0.013 A 
HETATM   11  C   UNK N   1      22.481  13.663   7.629  0.00  0.00    -0.026 A 
HETATM   12  C   UNK N   1      22.156  15.021   7.504  0.00  0.00     0.013 A 
HETATM   13  C   UNK N   1      21.970  15.591   6.240  0.00  0.00     0.010 A 
BRANCH  11  14
HETATM   14  C   UNK N   1      22.712  13.057   8.963  0.00  0.00    -0.026 A 
HETATM   15  C   UNK N   1      24.019  12.785   9.402  0.00  0.00     0.012 A 
HETATM   16  C   UNK N   1      24.242  12.229  10.664  0.00  0.00     0.001 A 
HETATM   17  C   UNK N   1      23.162  11.939  11.500  0.00  0.00     0.000 A 
HETATM   18  C   UNK N   1      21.857  12.204  11.074  0.00  0.00     0.001 A 
HETATM   19  C   UNK N   1      21.633  12.762   9.812  0.00  0.00     0.012 A 
ENDBRANCH  11  14
ENDBRANCH   1   8
BRANCH   1  20
HETATM   20  C   UNK N   1      22.561  14.751   2.471  0.00  0.00    -0.031 A 
HETATM   21  C   UNK N   1      23.940  14.845   2.225  0.00  0.00     0.009 A 
HETATM   22  C   UNK N   1      24.513  14.190   1.130  0.00  0.00     0.001 A 
HETATM   23  C   UNK N   1      23.707  13.462   0.252  0.00  0.00     0.000 A 
HETATM   24  C   UNK N   1      22.331  13.377   0.477  0.00  0.00     0.001 A 
HETATM   25  C   UNK N   1      21.764  14.004   1.591  0.00  0.00     0.009 A 
ENDBRANCH   1  20
TORSDOF 4
ENDMDL
MODEL 8
REMARK VINA RESULT:      -6.8      3.297      4.253
REMARK  4 active torsions:
REMARK  status: ('A' for Active; 'I' for Inactive)
REMARK    1  A    between atoms: N_1  and  C_4 
REMARK    2  A    between atoms: C_4  and  C_5 
REMARK    3  A    between atoms: C_4  and  C_6 
REMARK    4  A    between atoms: C_9  and  C_16 
ROOT
HETATM    1  C   UNK N   1      34.552  10.689  11.269  0.00  0.00     0.156 C 
ENDROOT
BRANCH   1   2
HETATM    2  N   UNK N   1      35.011  11.614  10.212  0.00  0.00    -0.338 N 
HETATM    3  C   UNK N   1      36.069  11.435   9.395  0.00  0.00     0.110 A 
HETATM    4  C   UNK N   1      36.128  12.506   8.529  0.00  0.00     0.106 A 
HETATM    5  N   UNK N   1      35.109  13.343   8.814  0.00  0.00    -0.361 N 
HETATM    6  C   UNK N   1      34.446  12.778   9.839  0.00  0.00     0.183 A 
ATOM      7  HN  UNK N   1      34.888  14.222   8.348  1.00  0.00     0.166 HD
ENDBRANCH   1   2
BRANCH   1   8
HETATM    8  C   UNK N   1      34.678  11.073  12.743  0.00  0.00    -0.030 A 
HETATM    9  C   UNK N   1      33.791  10.532  13.684  0.00  0.00     0.010 A 
HETATM   10  C   UNK N   1      33.918  10.828  15.042  0.00  0.00     0.013 A 
HETATM   11  C   UNK N   1      34.938  11.677  15.493  0.00  0.00    -0.026 A 
HETATM   12  C   UNK N   1      35.823  12.230  14.556  0.00  0.00     0.013 A 
HETATM   13  C   UNK N   1      35.694  11.927  13.197  0.00  0.00     0.010 A 
BRANCH  11  14
HETATM   14  C   UNK N   1      35.086  11.965  16.940  0.00  0.00    -0.026 A 
HETATM   15  C   UNK N   1      34.999  13.285  17.414  0.00  0.00     0.012 A 
HETATM   16  C   UNK N   1      35.122  13.557  18.779  0.00  0.00     0.001 A 
HETATM   17  C   UNK N   1      35.333  12.514  19.684  0.00  0.00     0.000 A 
HETATM   18  C   UNK N   1      35.423  11.198  19.224  0.00  0.00     0.001 A 
HETATM   19  C   UNK N   1      35.298  10.923  17.859  0.00  0.00     0.012 A 
ENDBRANCH  11  14
ENDBRANCH   1   8
BRANCH   1  20
HETATM   20  C   UNK N   1      33.801   9.433  10.858  0.00  0.00    -0.031 A 
HETATM   21  C   UNK N   1      32.539   9.530  10.252  0.00  0.00     0.009 A 
HETATM   22  C   UNK N   1      31.861   8.380   9.837  0.00  0.00     0.001 A 
HETATM   23  C   UNK N   1      32.422   7.120  10.054  0.00  0.00     0.000 A 
HETATM   24  C   UNK N   1      33.670   7.011  10.673  0.00  0.00     0.001 A 
HETATM   25  C   UNK N   1      34.364   8.163  11.057  0.00  0.00     0.009 A 
ENDBRANCH   1  20
TORSDOF 4
ENDMDL
MODEL 9
REMARK VINA RESULT:      -6.8      4.262      9.571
REMARK  4 active torsions:
REMARK  status: ('A' for Active; 'I' for Inactive)
REMARK    1  A    between atoms: N_1  and  C_4 
REMARK    2  A    between atoms: C_4  and  C_5 
REMARK    3  A    between atoms: C_4  and  C_6 
REMARK    4  A    between atoms: C_9  and  C_16 
ROOT
HETATM    1  C   UNK N   1      35.573   9.936  19.665  0.00  0.00     0.156 C 
ENDROOT
BRANCH   1   2
HETATM    2  N   UNK N   1      36.711   9.439  20.467  0.00  0.00    -0.338 N 
HETATM    3  C   UNK N   1      37.064   8.149  20.641  0.00  0.00     0.110 A 
HETATM    4  C   UNK N   1      38.200   8.119  21.421  0.00  0.00     0.106 A 
HETATM    5  N   UNK N   1      38.543   9.387  21.727  0.00  0.00    -0.361 N 
HETATM    6  C   UNK N   1      37.624  10.169  21.136  0.00  0.00     0.183 A 
ATOM      7  HN  UNK N   1      39.337   9.690  22.292  1.00  0.00     0.166 HD
ENDBRANCH   1   2
BRANCH   1   8
HETATM    8  C   UNK N   1      35.815  10.640  18.331  0.00  0.00    -0.030 A 
HETATM    9  C   UNK N   1      36.560  10.002  17.329  0.00  0.00     0.010 A 
HETATM   10  C   UNK N   1      36.752  10.604  16.084  0.00  0.00     0.013 A 
HETATM   11  C   UNK N   1      36.202  11.864  15.811  0.00  0.00    -0.026 A 
HETATM   12  C   UNK N   1      35.463  12.513  16.811  0.00  0.00     0.013 A 
HETATM   13  C   UNK N   1      35.271  11.904  18.056  0.00  0.00     0.010 A 
BRANCH  11  14
HETATM   14  C   UNK N   1      36.384  12.486  14.477  0.00  0.00    -0.026 A 
HETATM   15  C   UNK N   1      37.073  11.800  13.463  0.00  0.00     0.012 A 
HETATM   16  C   UNK N   1      37.232  12.375  12.200  0.00  0.00     0.001 A 
HETATM   17  C   UNK N   1      36.705  13.642  11.937  0.00  0.00     0.000 A 
HETATM   18  C   UNK N   1      36.019  14.334  12.939  0.00  0.00     0.001 A 
HETATM   19  C   UNK N   1      35.857  13.759  14.202  0.00  0.00     0.012 A 
ENDBRANCH  11  14
ENDBRANCH   1   8
BRANCH   1  20
HETATM   20  C   UNK N   1      34.163   9.582  20.108  0.00  0.00    -0.031 A 
HETATM   21  C   UNK N   1      33.372   8.721  19.331  0.00  0.00     0.009 A 
HETATM   22  C   UNK N   1      32.088   8.361  19.753  0.00  0.00     0.001 A 
HETATM   23  C   UNK N   1      31.570   8.886  20.939  0.00  0.00     0.000 A 
HETATM   24  C   UNK N   1      32.342   9.757  21.711  0.00  0.00     0.001 A 
HETATM   25  C   UNK N   1      33.638  10.090  21.307  0.00  0.00     0.009 A 
ENDBRANCH   1  20
TORSDOF 4
ENDMDL
