REMARK  3 active torsions:
REMARK  status: ('A' for Active; 'I' for Inactive)
REMARK    1  A    between atoms: P_2  and  N_3 
REMARK    2  A    between atoms: P_2  and  N_6 
REMARK    3  A    between atoms: P_2  and  N_9 
ROOT
HETATM    1  S   UNK N   1       0.851   3.218  -2.341  0.00  0.00    -0.046 SA
HETATM    2  P   UNK N   1       1.483   3.164  -0.691  0.00  0.00     0.145 P 
ENDROOT
BRANCH   2   3
HETATM    3  N   UNK N   1       0.719   1.639  -0.074  0.00  0.00    -0.258 NA
HETATM    4  C   UNK N   1       0.975   1.570   1.374  0.00  0.00     0.112 A 
HETATM    5  C   UNK N   1       1.726   0.715   0.468  0.00  0.00     0.112 A 
ENDBRANCH   2   3
BRANCH   2   6
HETATM    6  N   UNK N   1       0.706   4.636   0.031  0.00  0.00    -0.258 NA
HETATM    7  C   UNK N   1       1.721   5.612   0.444  0.00  0.00     0.112 A 
HETATM    8  C   UNK N   1       1.123   4.727   1.436  0.00  0.00     0.112 A 
ENDBRANCH   2   6
BRANCH   2   9
HETATM    9  N   UNK N   1       3.284   3.198  -0.985  0.00  0.00    -0.258 NA
HETATM   10  C   UNK N   1       3.989   2.390   0.026  0.00  0.00     0.112 A 
HETATM   11  C   UNK N   1       3.971   3.828   0.157  0.00  0.00     0.112 A 
ENDBRANCH   2   9
TORSDOF 3
