MODEL 1
REMARK VINA RESULT:      -6.7      0.000      0.000
REMARK  9 active torsions:
REMARK  status: ('A' for Active; 'I' for Inactive)
REMARK    1  A    between atoms: O_2  and  C_19 
REMARK    2  A    between atoms: O_2  and  C_26 
REMARK    3  A    between atoms: O_3  and  C_27 
REMARK    4  A    between atoms: C_4  and  C_6 
REMARK    5  A    between atoms: C_4  and  C_8 
REMARK    6  A    between atoms: C_5  and  C_7 
REMARK    7  A    between atoms: C_5  and  C_9 
REMARK    8  A    between atoms: C_6  and  C_12 
REMARK    9  A    between atoms: C_26  and  C_27 
ROOT
HETATM    1  C   UNK N   1      26.238  25.894  -7.134  0.00  0.00    -0.035 C 
HETATM    2  C   UNK N   1      26.725  24.640  -6.762  0.00  0.00    -0.009 C 
ENDROOT
BRANCH   2   3
HETATM    3  C   UNK N   1      27.711  24.498  -5.629  0.00  0.00    -0.024 A 
HETATM    4  C   UNK N   1      29.076  24.761  -5.830  0.00  0.00     0.015 A 
HETATM    5  C   UNK N   1      29.999  24.582  -4.795  0.00  0.00     0.037 A 
HETATM    6  C   UNK N   1      29.572  24.150  -3.536  0.00  0.00     0.068 A 
HETATM    7  C   UNK N   1      28.204  23.938  -3.309  0.00  0.00     0.037 A 
HETATM    8  C   UNK N   1      27.284  24.122  -4.342  0.00  0.00     0.015 A 
BRANCH   6   9
HETATM    9  O   UNK N   1      30.493  23.935  -2.565  0.00  0.00    -0.349 OA
BRANCH   9  10
HETATM   10  C   UNK N   1      30.805  22.681  -2.088  0.00  0.00     0.201 C 
BRANCH  10  11
HETATM   11  C   UNK N   1      31.887  22.066  -2.953  0.00  0.00     0.190 C 
BRANCH  11  12
HETATM   12  O   UNK N   1      32.688  21.232  -2.175  0.00  0.00    -0.399 OA
HETATM   13  H   UNK N   1      33.232  20.493  -2.486  0.00  0.00     0.209 HD
ENDBRANCH  11  12
ENDBRANCH  10  11
ENDBRANCH   9  10
ENDBRANCH   6   9
ENDBRANCH   2   3
BRANCH   2  14
HETATM   14  C   UNK N   1      26.332  23.356  -7.491  0.00  0.00    -0.025 A 
HETATM   15  C   UNK N   1      27.068  22.839  -8.576  0.00  0.00     0.012 A 
HETATM   16  C   UNK N   1      26.689  21.657  -9.216  0.00  0.00     0.001 A 
HETATM   17  C   UNK N   1      25.562  20.959  -8.784  0.00  0.00     0.000 A 
HETATM   18  C   UNK N   1      24.817  21.445  -7.711  0.00  0.00     0.001 A 
HETATM   19  C   UNK N   1      25.199  22.629  -7.074  0.00  0.00     0.012 A 
ENDBRANCH   2  14
BRANCH   1  20
HETATM   20  C   UNK N   1      25.340  26.039  -8.342  0.00  0.00     0.055 C 
BRANCH  20  21
HETATM   21  C   UNK N   1      26.123  26.189  -9.634  0.00  0.00     0.119 C 
HETATM   22 Cl   UNK N   1      25.395  25.137 -10.869  0.00  0.00    -0.130 Cl
ENDBRANCH  20  21
ENDBRANCH   1  20
BRANCH   1  23
HETATM   23  C   UNK N   1      26.472  27.175  -6.354  0.00  0.00    -0.029 A 
HETATM   24  C   UNK N   1      27.509  28.070  -6.674  0.00  0.00     0.012 A 
HETATM   25  C   UNK N   1      27.734  29.223  -5.917  0.00  0.00     0.001 A 
HETATM   26  C   UNK N   1      26.937  29.489  -4.805  0.00  0.00     0.000 A 
HETATM   27  C   UNK N   1      25.931  28.595  -4.441  0.00  0.00     0.001 A 
HETATM   28  C   UNK N   1      25.711  27.443  -5.200  0.00  0.00     0.012 A 
ENDBRANCH   1  23
TORSDOF 9
ENDMDL
MODEL 2
REMARK VINA RESULT:      -6.4     13.079     15.772
REMARK  9 active torsions:
REMARK  status: ('A' for Active; 'I' for Inactive)
REMARK    1  A    between atoms: O_2  and  C_19 
REMARK    2  A    between atoms: O_2  and  C_26 
REMARK    3  A    between atoms: O_3  and  C_27 
REMARK    4  A    between atoms: C_4  and  C_6 
REMARK    5  A    between atoms: C_4  and  C_8 
REMARK    6  A    between atoms: C_5  and  C_7 
REMARK    7  A    between atoms: C_5  and  C_9 
REMARK    8  A    between atoms: C_6  and  C_12 
REMARK    9  A    between atoms: C_26  and  C_27 
ROOT
HETATM    1  C   UNK N   1      30.839  17.562   7.477  0.00  0.00    -0.035 C 
HETATM    2  C   UNK N   1      30.371  17.210   6.210  0.00  0.00    -0.009 C 
ENDROOT
BRANCH   2   3
HETATM    3  C   UNK N   1      31.302  16.624   5.177  0.00  0.00    -0.024 A 
HETATM    4  C   UNK N   1      32.074  17.459   4.353  0.00  0.00     0.015 A 
HETATM    5  C   UNK N   1      32.900  16.920   3.363  0.00  0.00     0.037 A 
HETATM    6  C   UNK N   1      32.978  15.535   3.186  0.00  0.00     0.068 A 
HETATM    7  C   UNK N   1      32.254  14.691   4.040  0.00  0.00     0.037 A 
HETATM    8  C   UNK N   1      31.435  15.231   5.033  0.00  0.00     0.015 A 
BRANCH   6   9
HETATM    9  O   UNK N   1      33.746  15.040   2.185  0.00  0.00    -0.349 OA
BRANCH   9  10
HETATM   10  C   UNK N   1      34.614  13.983   2.353  0.00  0.00     0.201 C 
BRANCH  10  11
HETATM   11  C   UNK N   1      35.385  13.754   1.070  0.00  0.00     0.190 C 
BRANCH  11  12
HETATM   12  O   UNK N   1      35.450  14.944   0.346  0.00  0.00    -0.399 OA
HETATM   13  H   UNK N   1      35.558  15.838   0.705  0.00  0.00     0.209 HD
ENDBRANCH  11  12
ENDBRANCH  10  11
ENDBRANCH   9  10
ENDBRANCH   6   9
ENDBRANCH   2   3
BRANCH   2  14
HETATM   14  C   UNK N   1      28.922  17.430   5.777  0.00  0.00    -0.025 A 
HETATM   15  C   UNK N   1      27.906  16.480   6.002  0.00  0.00     0.012 A 
HETATM   16  C   UNK N   1      26.588  16.714   5.603  0.00  0.00     0.001 A 
HETATM   17  C   UNK N   1      26.252  17.910   4.970  0.00  0.00     0.000 A 
HETATM   18  C   UNK N   1      27.236  18.869   4.737  0.00  0.00     0.001 A 
HETATM   19  C   UNK N   1      28.555  18.630   5.137  0.00  0.00     0.012 A 
ENDBRANCH   2  14
BRANCH   1  20
HETATM   20  C   UNK N   1      29.926  18.254   8.465  0.00  0.00     0.055 C 
BRANCH  20  21
HETATM   21  C   UNK N   1      29.449  17.323   9.565  0.00  0.00     0.119 C 
HETATM   22 Cl   UNK N   1      27.690  17.110   9.412  0.00  0.00    -0.130 Cl
ENDBRANCH  20  21
ENDBRANCH   1  20
BRANCH   1  23
HETATM   23  C   UNK N   1      32.219  17.227   8.010  0.00  0.00    -0.029 A 
HETATM   24  C   UNK N   1      32.503  16.001   8.641  0.00  0.00     0.012 A 
HETATM   25  C   UNK N   1      33.771  15.728   9.161  0.00  0.00     0.001 A 
HETATM   26  C   UNK N   1      34.776  16.691   9.084  0.00  0.00     0.000 A 
HETATM   27  C   UNK N   1      34.507  17.930   8.503  0.00  0.00     0.001 A 
HETATM   28  C   UNK N   1      33.238  18.199   7.984  0.00  0.00     0.012 A 
ENDBRANCH   1  23
TORSDOF 9
ENDMDL
MODEL 3
REMARK VINA RESULT:      -6.4      1.355      4.910
REMARK  9 active torsions:
REMARK  status: ('A' for Active; 'I' for Inactive)
REMARK    1  A    between atoms: O_2  and  C_19 
REMARK    2  A    between atoms: O_2  and  C_26 
REMARK    3  A    between atoms: O_3  and  C_27 
REMARK    4  A    between atoms: C_4  and  C_6 
REMARK    5  A    between atoms: C_4  and  C_8 
REMARK    6  A    between atoms: C_5  and  C_7 
REMARK    7  A    between atoms: C_5  and  C_9 
REMARK    8  A    between atoms: C_6  and  C_12 
REMARK    9  A    between atoms: C_26  and  C_27 
ROOT
HETATM    1  C   UNK N   1      26.658  25.321  -6.374  0.00  0.00    -0.035 C 
HETATM    2  C   UNK N   1      27.355  25.912  -5.318  0.00  0.00    -0.009 C 
ENDROOT
BRANCH   2   3
HETATM    3  C   UNK N   1      28.278  25.095  -4.447  0.00  0.00    -0.024 A 
HETATM    4  C   UNK N   1      29.672  25.220  -4.567  0.00  0.00     0.015 A 
HETATM    5  C   UNK N   1      30.529  24.429  -3.796  0.00  0.00     0.037 A 
HETATM    6  C   UNK N   1      30.008  23.508  -2.883  0.00  0.00     0.068 A 
HETATM    7  C   UNK N   1      28.619  23.415  -2.716  0.00  0.00     0.037 A 
HETATM    8  C   UNK N   1      27.765  24.210  -3.483  0.00  0.00     0.015 A 
BRANCH   6   9
HETATM    9  O   UNK N   1      30.859  22.717  -2.185  0.00  0.00    -0.349 OA
BRANCH   9  10
HETATM   10  C   UNK N   1      31.742  21.847  -2.787  0.00  0.00     0.201 C 
BRANCH  10  11
HETATM   11  C   UNK N   1      30.978  20.887  -3.676  0.00  0.00     0.190 C 
BRANCH  11  12
HETATM   12  O   UNK N   1      31.807  19.826  -4.038  0.00  0.00    -0.399 OA
HETATM   13  H   UNK N   1      31.599  18.881  -3.986  0.00  0.00     0.209 HD
ENDBRANCH  11  12
ENDBRANCH  10  11
ENDBRANCH   9  10
ENDBRANCH   6   9
ENDBRANCH   2   3
BRANCH   2  14
HETATM   14  C   UNK N   1      27.200  27.388  -4.954  0.00  0.00    -0.025 A 
HETATM   15  C   UNK N   1      27.916  28.413  -5.603  0.00  0.00     0.012 A 
HETATM   16  C   UNK N   1      27.746  29.755  -5.254  0.00  0.00     0.001 A 
HETATM   17  C   UNK N   1      26.849  30.105  -4.245  0.00  0.00     0.000 A 
HETATM   18  C   UNK N   1      26.125  29.112  -3.588  0.00  0.00     0.001 A 
HETATM   19  C   UNK N   1      26.300  27.770  -3.940  0.00  0.00     0.012 A 
ENDBRANCH   2  14
BRANCH   1  20
HETATM   20  C   UNK N   1      25.650  26.121  -7.168  0.00  0.00     0.055 C 
BRANCH  20  21
HETATM   21  C   UNK N   1      25.997  26.192  -8.644  0.00  0.00     0.119 C 
HETATM   22 Cl   UNK N   1      27.629  26.878  -8.816  0.00  0.00    -0.130 Cl
ENDBRANCH  20  21
ENDBRANCH   1  20
BRANCH   1  23
HETATM   23  C   UNK N   1      26.889  23.907  -6.873  0.00  0.00    -0.029 A 
HETATM   24  C   UNK N   1      28.120  23.493  -7.415  0.00  0.00     0.012 A 
HETATM   25  C   UNK N   1      28.300  22.198  -7.908  0.00  0.00     0.001 A 
HETATM   26  C   UNK N   1      27.237  21.296  -7.893  0.00  0.00     0.000 A 
HETATM   27  C   UNK N   1      25.994  21.696  -7.402  0.00  0.00     0.001 A 
HETATM   28  C   UNK N   1      25.820  22.991  -6.911  0.00  0.00     0.012 A 
ENDBRANCH   1  23
TORSDOF 9
ENDMDL
MODEL 4
REMARK VINA RESULT:      -6.4     12.167     14.868
REMARK  9 active torsions:
REMARK  status: ('A' for Active; 'I' for Inactive)
REMARK    1  A    between atoms: O_2  and  C_19 
REMARK    2  A    between atoms: O_2  and  C_26 
REMARK    3  A    between atoms: O_3  and  C_27 
REMARK    4  A    between atoms: C_4  and  C_6 
REMARK    5  A    between atoms: C_4  and  C_8 
REMARK    6  A    between atoms: C_5  and  C_7 
REMARK    7  A    between atoms: C_5  and  C_9 
REMARK    8  A    between atoms: C_6  and  C_12 
REMARK    9  A    between atoms: C_26  and  C_27 
ROOT
HETATM    1  C   UNK N   1      28.150  16.324   4.378  0.00  0.00    -0.035 C 
HETATM    2  C   UNK N   1      28.784  17.447   4.915  0.00  0.00    -0.009 C 
ENDROOT
BRANCH   2   3
HETATM    3  C   UNK N   1      30.242  17.402   5.298  0.00  0.00    -0.024 A 
HETATM    4  C   UNK N   1      30.627  17.109   6.617  0.00  0.00     0.015 A 
HETATM    5  C   UNK N   1      31.976  17.116   6.986  0.00  0.00     0.037 A 
HETATM    6  C   UNK N   1      32.965  17.404   6.040  0.00  0.00     0.068 A 
HETATM    7  C   UNK N   1      32.594  17.643   4.709  0.00  0.00     0.037 A 
HETATM    8  C   UNK N   1      31.248  17.630   4.341  0.00  0.00     0.015 A 
BRANCH   6   9
HETATM    9  O   UNK N   1      34.260  17.455   6.435  0.00  0.00    -0.349 OA
BRANCH   9  10
HETATM   10  C   UNK N   1      34.715  16.878   7.600  0.00  0.00     0.201 C 
BRANCH  10  11
HETATM   11  C   UNK N   1      34.709  17.910   8.710  0.00  0.00     0.190 C 
BRANCH  11  12
HETATM   12  O   UNK N   1      35.319  19.080   8.262  0.00  0.00    -0.399 OA
HETATM   13  H   UNK N   1      36.209  19.394   8.484  0.00  0.00     0.209 HD
ENDBRANCH  11  12
ENDBRANCH  10  11
ENDBRANCH   9  10
ENDBRANCH   6   9
ENDBRANCH   2   3
BRANCH   2  14
HETATM   14  C   UNK N   1      28.045  18.757   5.185  0.00  0.00    -0.025 A 
HETATM   15  C   UNK N   1      27.568  19.590   4.154  0.00  0.00     0.012 A 
HETATM   16  C   UNK N   1      26.887  20.778   4.433  0.00  0.00     0.001 A 
HETATM   17  C   UNK N   1      26.666  21.162   5.755  0.00  0.00     0.000 A 
HETATM   18  C   UNK N   1      27.125  20.356   6.795  0.00  0.00     0.001 A 
HETATM   19  C   UNK N   1      27.807  19.168   6.512  0.00  0.00     0.012 A 
ENDBRANCH   2  14
BRANCH   1  20
HETATM   20  C   UNK N   1      26.663  16.343   4.103  0.00  0.00     0.055 C 
BRANCH  20  21
HETATM   21  C   UNK N   1      25.891  15.413   5.021  0.00  0.00     0.119 C 
HETATM   22 Cl   UNK N   1      26.390  15.721   6.700  0.00  0.00    -0.130 Cl
ENDBRANCH  20  21
ENDBRANCH   1  20
BRANCH   1  23
HETATM   23  C   UNK N   1      28.864  15.056   3.948  0.00  0.00    -0.029 A 
HETATM   24  C   UNK N   1      29.088  14.743   2.594  0.00  0.00     0.012 A 
HETATM   25  C   UNK N   1      29.710  13.550   2.218  0.00  0.00     0.001 A 
HETATM   26  C   UNK N   1      30.098  12.631   3.191  0.00  0.00     0.000 A 
HETATM   27  C   UNK N   1      29.847  12.899   4.537  0.00  0.00     0.001 A 
HETATM   28  C   UNK N   1      29.225  14.093   4.909  0.00  0.00     0.012 A 
ENDBRANCH   1  23
TORSDOF 9
ENDMDL
MODEL 5
REMARK VINA RESULT:      -6.1      3.406      7.226
REMARK  9 active torsions:
REMARK  status: ('A' for Active; 'I' for Inactive)
REMARK    1  A    between atoms: O_2  and  C_19 
REMARK    2  A    between atoms: O_2  and  C_26 
REMARK    3  A    between atoms: O_3  and  C_27 
REMARK    4  A    between atoms: C_4  and  C_6 
REMARK    5  A    between atoms: C_4  and  C_8 
REMARK    6  A    between atoms: C_5  and  C_7 
REMARK    7  A    between atoms: C_5  and  C_9 
REMARK    8  A    between atoms: C_6  and  C_12 
REMARK    9  A    between atoms: C_26  and  C_27 
ROOT
HETATM    1  C   UNK N   1      30.220  26.448  -3.763  0.00  0.00    -0.035 C 
HETATM    2  C   UNK N   1      28.920  26.796  -4.133  0.00  0.00    -0.009 C 
ENDROOT
BRANCH   2   3
HETATM    3  C   UNK N   1      27.975  25.765  -4.700  0.00  0.00    -0.024 A 
HETATM    4  C   UNK N   1      28.076  25.364  -6.043  0.00  0.00     0.015 A 
HETATM    5  C   UNK N   1      27.171  24.446  -6.584  0.00  0.00     0.037 A 
HETATM    6  C   UNK N   1      26.157  23.903  -5.789  0.00  0.00     0.068 A 
HETATM    7  C   UNK N   1      26.082  24.255  -4.434  0.00  0.00     0.037 A 
HETATM    8  C   UNK N   1      26.990  25.167  -3.894  0.00  0.00     0.015 A 
BRANCH   6   9
HETATM    9  O   UNK N   1      25.261  23.055  -6.352  0.00  0.00    -0.349 OA
BRANCH   9  10
HETATM   10  C   UNK N   1      25.627  21.907  -7.018  0.00  0.00     0.201 C 
BRANCH  10  11
HETATM   11  C   UNK N   1      24.882  21.828  -8.335  0.00  0.00     0.190 C 
BRANCH  11  12
HETATM   12  O   UNK N   1      23.530  22.097  -8.122  0.00  0.00    -0.399 OA
HETATM   13  H   UNK N   1      22.931  22.572  -8.717  0.00  0.00     0.209 HD
ENDBRANCH  11  12
ENDBRANCH  10  11
ENDBRANCH   9  10
ENDBRANCH   6   9
ENDBRANCH   2   3
BRANCH   2  14
HETATM   14  C   UNK N   1      28.389  28.225  -4.029  0.00  0.00    -0.025 A 
HETATM   15  C   UNK N   1      28.272  29.078  -5.144  0.00  0.00     0.012 A 
HETATM   16  C   UNK N   1      27.773  30.377  -5.019  0.00  0.00     0.001 A 
HETATM   17  C   UNK N   1      27.378  30.856  -3.771  0.00  0.00     0.000 A 
HETATM   18  C   UNK N   1      27.480  30.033  -2.651  0.00  0.00     0.001 A 
HETATM   19  C   UNK N   1      27.981  28.734  -2.780  0.00  0.00     0.012 A 
ENDBRANCH   2  14
BRANCH   1  20
HETATM   20  C   UNK N   1      31.195  27.510  -3.303  0.00  0.00     0.055 C 
BRANCH  20  21
HETATM   21  C   UNK N   1      31.883  28.208  -4.461  0.00  0.00     0.119 C 
HETATM   22 Cl   UNK N   1      31.655  29.963  -4.289  0.00  0.00    -0.130 Cl
ENDBRANCH  20  21
ENDBRANCH   1  20
BRANCH   1  23
HETATM   23  C   UNK N   1      30.747  25.027  -3.700  0.00  0.00    -0.029 A 
HETATM   24  C   UNK N   1      30.310  24.107  -2.729  0.00  0.00     0.012 A 
HETATM   25  C   UNK N   1      30.837  22.815  -2.662  0.00  0.00     0.001 A 
HETATM   26  C   UNK N   1      31.836  22.426  -3.552  0.00  0.00     0.000 A 
HETATM   27  C   UNK N   1      32.318  23.333  -4.495  0.00  0.00     0.001 A 
HETATM   28  C   UNK N   1      31.788  24.624  -4.558  0.00  0.00     0.012 A 
ENDBRANCH   1  23
TORSDOF 9
ENDMDL
MODEL 6
REMARK VINA RESULT:      -6.0     11.159     14.000
REMARK  9 active torsions:
REMARK  status: ('A' for Active; 'I' for Inactive)
REMARK    1  A    between atoms: O_2  and  C_19 
REMARK    2  A    between atoms: O_2  and  C_26 
REMARK    3  A    between atoms: O_3  and  C_27 
REMARK    4  A    between atoms: C_4  and  C_6 
REMARK    5  A    between atoms: C_4  and  C_8 
REMARK    6  A    between atoms: C_5  and  C_7 
REMARK    7  A    between atoms: C_5  and  C_9 
REMARK    8  A    between atoms: C_6  and  C_12 
REMARK    9  A    between atoms: C_26  and  C_27 
ROOT
HETATM    1  C   UNK N   1      27.314  18.901   4.889  0.00  0.00    -0.035 C 
HETATM    2  C   UNK N   1      27.929  17.651   4.791  0.00  0.00    -0.009 C 
ENDROOT
BRANCH   2   3
HETATM    3  C   UNK N   1      27.211  16.484   4.159  0.00  0.00    -0.024 A 
HETATM    4  C   UNK N   1      27.304  16.250   2.777  0.00  0.00     0.015 A 
HETATM    5  C   UNK N   1      26.600  15.199   2.181  0.00  0.00     0.037 A 
HETATM    6  C   UNK N   1      25.802  14.354   2.959  0.00  0.00     0.068 A 
HETATM    7  C   UNK N   1      25.748  14.545   4.347  0.00  0.00     0.037 A 
HETATM    8  C   UNK N   1      26.455  15.592   4.940  0.00  0.00     0.015 A 
BRANCH   6   9
HETATM    9  O   UNK N   1      25.090  13.375   2.349  0.00  0.00    -0.349 OA
BRANCH   9  10
HETATM   10  C   UNK N   1      23.723  13.427   2.189  0.00  0.00     0.201 C 
BRANCH  10  11
HETATM   11  C   UNK N   1      23.396  13.737   0.742  0.00  0.00     0.190 C 
BRANCH  11  12
HETATM   12  O   UNK N   1      22.394  14.704   0.688  0.00  0.00    -0.399 OA
HETATM   13  H   UNK N   1      21.553  14.699   1.171  0.00  0.00     0.209 HD
ENDBRANCH  11  12
ENDBRANCH  10  11
ENDBRANCH   9  10
ENDBRANCH   6   9
ENDBRANCH   2   3
BRANCH   2  14
HETATM   14  C   UNK N   1      29.326  17.375   5.346  0.00  0.00    -0.025 A 
HETATM   15  C   UNK N   1      30.495  17.520   4.574  0.00  0.00     0.012 A 
HETATM   16  C   UNK N   1      31.760  17.270   5.112  0.00  0.00     0.001 A 
HETATM   17  C   UNK N   1      31.886  16.869   6.442  0.00  0.00     0.000 A 
HETATM   18  C   UNK N   1      30.746  16.721   7.230  0.00  0.00     0.001 A 
HETATM   19  C   UNK N   1      29.482  16.971   6.687  0.00  0.00     0.012 A 
ENDBRANCH   2  14
BRANCH   1  20
HETATM   20  C   UNK N   1      27.995  20.033   5.626  0.00  0.00     0.055 C 
BRANCH  20  21
HETATM   21  C   UNK N   1      27.364  20.309   6.978  0.00  0.00     0.119 C 
HETATM   22 Cl   UNK N   1      26.315  21.738   6.839  0.00  0.00    -0.130 Cl
ENDBRANCH  20  21
ENDBRANCH   1  20
BRANCH   1  23
HETATM   23  C   UNK N   1      26.001  19.269   4.224  0.00  0.00    -0.029 A 
HETATM   24  C   UNK N   1      25.922  20.230   3.199  0.00  0.00     0.012 A 
HETATM   25  C   UNK N   1      24.697  20.586   2.629  0.00  0.00     0.001 A 
HETATM   26  C   UNK N   1      23.520  20.003   3.093  0.00  0.00     0.000 A 
HETATM   27  C   UNK N   1      23.567  19.080   4.138  0.00  0.00     0.001 A 
HETATM   28  C   UNK N   1      24.793  18.728   4.706  0.00  0.00     0.012 A 
ENDBRANCH   1  23
TORSDOF 9
ENDMDL
MODEL 7
REMARK VINA RESULT:      -5.9     26.483     31.597
REMARK  9 active torsions:
REMARK  status: ('A' for Active; 'I' for Inactive)
REMARK    1  A    between atoms: O_2  and  C_19 
REMARK    2  A    between atoms: O_2  and  C_26 
REMARK    3  A    between atoms: O_3  and  C_27 
REMARK    4  A    between atoms: C_4  and  C_6 
REMARK    5  A    between atoms: C_4  and  C_8 
REMARK    6  A    between atoms: C_5  and  C_7 
REMARK    7  A    between atoms: C_5  and  C_9 
REMARK    8  A    between atoms: C_6  and  C_12 
REMARK    9  A    between atoms: C_26  and  C_27 
ROOT
HETATM    1  C   UNK N   1      35.530   8.913  21.322  0.00  0.00    -0.035 C 
HETATM    2  C   UNK N   1      36.402   9.887  20.834  0.00  0.00    -0.009 C 
ENDROOT
BRANCH   2   3
HETATM    3  C   UNK N   1      36.007  10.767  19.673  0.00  0.00    -0.024 A 
HETATM    4  C   UNK N   1      35.569  12.084  19.890  0.00  0.00     0.015 A 
HETATM    5  C   UNK N   1      35.156  12.884  18.820  0.00  0.00     0.037 A 
HETATM    6  C   UNK N   1      35.186  12.387  17.514  0.00  0.00     0.068 A 
HETATM    7  C   UNK N   1      35.675  11.094  17.282  0.00  0.00     0.037 A 
HETATM    8  C   UNK N   1      36.092  10.298  18.350  0.00  0.00     0.015 A 
BRANCH   6   9
HETATM    9  O   UNK N   1      34.731  13.165  16.501  0.00  0.00    -0.349 OA
BRANCH   9  10
HETATM   10  C   UNK N   1      35.203  13.073  15.210  0.00  0.00     0.201 C 
BRANCH  10  11
HETATM   11  C   UNK N   1      36.498  13.850  15.089  0.00  0.00     0.190 C 
BRANCH  11  12
HETATM   12  O   UNK N   1      37.135  13.513  13.896  0.00  0.00    -0.399 OA
HETATM   13  H   UNK N   1      36.725  13.432  13.021  0.00  0.00     0.209 HD
ENDBRANCH  11  12
ENDBRANCH  10  11
ENDBRANCH   9  10
ENDBRANCH   6   9
ENDBRANCH   2   3
BRANCH   2  14
HETATM   14  C   UNK N   1      37.805  10.095  21.403  0.00  0.00    -0.025 A 
HETATM   15  C   UNK N   1      38.079  11.004  22.444  0.00  0.00     0.012 A 
HETATM   16  C   UNK N   1      39.371  11.165  22.950  0.00  0.00     0.001 A 
HETATM   17  C   UNK N   1      40.424  10.416  22.426  0.00  0.00     0.000 A 
HETATM   18  C   UNK N   1      40.182   9.508  21.397  0.00  0.00     0.001 A 
HETATM   19  C   UNK N   1      38.887   9.351  20.893  0.00  0.00     0.012 A 
ENDBRANCH   2  14
BRANCH   1  20
HETATM   20  C   UNK N   1      35.977   7.961  22.409  0.00  0.00     0.055 C 
BRANCH  20  21
HETATM   21  C   UNK N   1      35.109   8.048  23.651  0.00  0.00     0.119 C 
HETATM   22 Cl   UNK N   1      35.279   9.672  24.355  0.00  0.00    -0.130 Cl
ENDBRANCH  20  21
ENDBRANCH   1  20
BRANCH   1  23
HETATM   23  C   UNK N   1      34.079   8.767  20.901  0.00  0.00    -0.029 A 
HETATM   24  C   UNK N   1      33.064   9.601  21.403  0.00  0.00     0.012 A 
HETATM   25  C   UNK N   1      31.728   9.423  21.034  0.00  0.00     0.001 A 
HETATM   26  C   UNK N   1      31.377   8.385  20.173  0.00  0.00     0.000 A 
HETATM   27  C   UNK N   1      32.360   7.517  19.696  0.00  0.00     0.001 A 
HETATM   28  C   UNK N   1      33.694   7.699  20.068  0.00  0.00     0.012 A 
ENDBRANCH   1  23
TORSDOF 9
ENDMDL
MODEL 8
REMARK VINA RESULT:      -5.9     12.151     13.895
REMARK  9 active torsions:
REMARK  status: ('A' for Active; 'I' for Inactive)
REMARK    1  A    between atoms: O_2  and  C_19 
REMARK    2  A    between atoms: O_2  and  C_26 
REMARK    3  A    between atoms: O_3  and  C_27 
REMARK    4  A    between atoms: C_4  and  C_6 
REMARK    5  A    between atoms: C_4  and  C_8 
REMARK    6  A    between atoms: C_5  and  C_7 
REMARK    7  A    between atoms: C_5  and  C_9 
REMARK    8  A    between atoms: C_6  and  C_12 
REMARK    9  A    between atoms: C_26  and  C_27 
ROOT
HETATM    1  C   UNK N   1      27.649  17.184   4.174  0.00  0.00    -0.035 C 
HETATM    2  C   UNK N   1      28.710  16.278   4.187  0.00  0.00    -0.009 C 
ENDROOT
BRANCH   2   3
HETATM    3  C   UNK N   1      30.030  16.641   4.822  0.00  0.00    -0.024 A 
HETATM    4  C   UNK N   1      31.005  17.345   4.094  0.00  0.00     0.015 A 
HETATM    5  C   UNK N   1      32.247  17.639   4.664  0.00  0.00     0.037 A 
HETATM    6  C   UNK N   1      32.533  17.246   5.975  0.00  0.00     0.068 A 
HETATM    7  C   UNK N   1      31.547  16.593   6.727  0.00  0.00     0.037 A 
HETATM    8  C   UNK N   1      30.305  16.305   6.159  0.00  0.00     0.015 A 
BRANCH   6   9
HETATM    9  O   UNK N   1      33.764  17.498   6.485  0.00  0.00    -0.349 OA
BRANCH   9  10
HETATM   10  C   UNK N   1      33.964  18.028   7.741  0.00  0.00     0.201 C 
BRANCH  10  11
HETATM   11  C   UNK N   1      34.651  17.001   8.618  0.00  0.00     0.190 C 
BRANCH  11  12
HETATM   12  O   UNK N   1      34.306  17.220   9.950  0.00  0.00    -0.399 OA
HETATM   13  H   UNK N   1      34.507  18.006  10.481  0.00  0.00     0.209 HD
ENDBRANCH  11  12
ENDBRANCH  10  11
ENDBRANCH   9  10
ENDBRANCH   6   9
ENDBRANCH   2   3
BRANCH   2  14
HETATM   14  C   UNK N   1      28.623  14.899   3.534  0.00  0.00    -0.025 A 
HETATM   15  C   UNK N   1      28.168  13.757   4.222  0.00  0.00     0.012 A 
HETATM   16  C   UNK N   1      28.089  12.511   3.594  0.00  0.00     0.001 A 
HETATM   17  C   UNK N   1      28.464  12.378   2.258  0.00  0.00     0.000 A 
HETATM   18  C   UNK N   1      28.915  13.491   1.552  0.00  0.00     0.001 A 
HETATM   19  C   UNK N   1      28.993  14.736   2.184  0.00  0.00     0.012 A 
ENDBRANCH   2  14
BRANCH   1  20
HETATM   20  C   UNK N   1      26.370  16.855   3.437  0.00  0.00     0.055 C 
BRANCH  20  21
HETATM   21  C   UNK N   1      25.224  16.530   4.378  0.00  0.00     0.119 C 
HETATM   22 Cl   UNK N   1      24.128  17.929   4.449  0.00  0.00    -0.130 Cl
ENDBRANCH  20  21
ENDBRANCH   1  20
BRANCH   1  23
HETATM   23  C   UNK N   1      27.628  18.497   4.936  0.00  0.00    -0.029 A 
HETATM   24  C   UNK N   1      27.704  18.551   6.340  0.00  0.00     0.012 A 
HETATM   25  C   UNK N   1      27.641  19.768   7.024  0.00  0.00     0.001 A 
HETATM   26  C   UNK N   1      27.474  20.956   6.315  0.00  0.00     0.000 A 
HETATM   27  C   UNK N   1      27.351  20.924   4.926  0.00  0.00     0.001 A 
HETATM   28  C   UNK N   1      27.414  19.706   4.246  0.00  0.00     0.012 A 
ENDBRANCH   1  23
TORSDOF 9
ENDMDL
MODEL 9
REMARK VINA RESULT:      -5.9      2.720      5.980
REMARK  9 active torsions:
REMARK  status: ('A' for Active; 'I' for Inactive)
REMARK    1  A    between atoms: O_2  and  C_19 
REMARK    2  A    between atoms: O_2  and  C_26 
REMARK    3  A    between atoms: O_3  and  C_27 
REMARK    4  A    between atoms: C_4  and  C_6 
REMARK    5  A    between atoms: C_4  and  C_8 
REMARK    6  A    between atoms: C_5  and  C_7 
REMARK    7  A    between atoms: C_5  and  C_9 
REMARK    8  A    between atoms: C_6  and  C_12 
REMARK    9  A    between atoms: C_26  and  C_27 
ROOT
HETATM    1  C   UNK N   1      28.447  22.411  -6.977  0.00  0.00    -0.035 C 
HETATM    2  C   UNK N   1      28.970  23.024  -5.837  0.00  0.00    -0.009 C 
ENDROOT
BRANCH   2   3
HETATM    3  C   UNK N   1      30.177  22.451  -5.136  0.00  0.00    -0.024 A 
HETATM    4  C   UNK N   1      31.465  22.936  -5.416  0.00  0.00     0.015 A 
HETATM    5  C   UNK N   1      32.589  22.373  -4.804  0.00  0.00     0.037 A 
HETATM    6  C   UNK N   1      32.444  21.323  -3.891  0.00  0.00     0.068 A 
HETATM    7  C   UNK N   1      31.158  20.870  -3.563  0.00  0.00     0.037 A 
HETATM    8  C   UNK N   1      30.037  21.437  -4.171  0.00  0.00     0.015 A 
BRANCH   6   9
HETATM    9  O   UNK N   1      33.553  20.761  -3.351  0.00  0.00    -0.349 OA
BRANCH   9  10
HETATM   10  C   UNK N   1      34.579  20.242  -4.110  0.00  0.00     0.201 C 
BRANCH  10  11
HETATM   11  C   UNK N   1      34.185  18.872  -4.622  0.00  0.00     0.190 C 
BRANCH  11  12
HETATM   12  O   UNK N   1      33.657  18.117  -3.576  0.00  0.00    -0.399 OA
HETATM   13  H   UNK N   1      33.676  18.338  -2.632  0.00  0.00     0.209 HD
ENDBRANCH  11  12
ENDBRANCH  10  11
ENDBRANCH   9  10
ENDBRANCH   6   9
ENDBRANCH   2   3
BRANCH   2  14
HETATM   14  C   UNK N   1      28.341  24.267  -5.210  0.00  0.00    -0.025 A 
HETATM   15  C   UNK N   1      28.671  25.576  -5.615  0.00  0.00     0.012 A 
HETATM   16  C   UNK N   1      28.072  26.693  -5.029  0.00  0.00     0.001 A 
HETATM   17  C   UNK N   1      27.123  26.529  -4.021  0.00  0.00     0.000 A 
HETATM   18  C   UNK N   1      26.775  25.246  -3.602  0.00  0.00     0.001 A 
HETATM   19  C   UNK N   1      27.378  24.130  -4.191  0.00  0.00     0.012 A 
ENDBRANCH   2  14
BRANCH   1  20
HETATM   20  C   UNK N   1      27.172  22.926  -7.606  0.00  0.00     0.055 C 
BRANCH  20  21
HETATM   21  C   UNK N   1      25.935  22.234  -7.062  0.00  0.00     0.119 C 
HETATM   22 Cl   UNK N   1      25.488  20.912  -8.164  0.00  0.00    -0.130 Cl
ENDBRANCH  20  21
ENDBRANCH   1  20
BRANCH   1  23
HETATM   23  C   UNK N   1      29.115  21.273  -7.727  0.00  0.00    -0.029 A 
HETATM   24  C   UNK N   1      28.887  19.923  -7.402  0.00  0.00     0.012 A 
HETATM   25  C   UNK N   1      29.544  18.892  -8.077  0.00  0.00     0.001 A 
HETATM   26  C   UNK N   1      30.467  19.194  -9.077  0.00  0.00     0.000 A 
HETATM   27  C   UNK N   1      30.744  20.525  -9.387  0.00  0.00     0.001 A 
HETATM   28  C   UNK N   1      30.085  21.553  -8.709  0.00  0.00     0.012 A 
ENDBRANCH   1  23
TORSDOF 9
ENDMDL
