MODEL 1
REMARK VINA RESULT:      -7.0      0.000      0.000
REMARK  4 active torsions:
REMARK  status: ('A' for Active; 'I' for Inactive)
REMARK    1  A    between atoms: O_1  and  C_7 
REMARK    2  A    between atoms: N_3  and  C_6 
REMARK    3  A    between atoms: N_3  and  C_16 
REMARK       I    between atoms: N_4  and  C_17 
REMARK    4  A    between atoms: C_16  and  C_17 
ROOT
HETATM    1  O   UNK N   1      29.770  23.267  -1.945  0.00  0.00    -0.272 OA
HETATM    2  N   UNK N   1      30.161  22.366  -3.963  0.00  0.00    -0.334 N 
HETATM    3  N   UNK N   1      27.952  22.478  -6.685  0.00  0.00    -0.195 NA
HETATM    4  C   UNK N   1      29.713  23.378  -3.164  0.00  0.00     0.238 C 
HETATM    5  C   UNK N   1      30.244  22.435  -5.406  0.00  0.00     0.194 C 
HETATM    6  C   UNK N   1      30.709  21.171  -3.390  0.00  0.00     0.127 C 
HETATM    7  C   UNK N   1      30.906  21.136  -5.822  0.00  0.00     0.042 C 
HETATM    8  C   UNK N   1      31.329  20.417  -4.548  0.00  0.00     0.023 C 
HETATM    9  C   UNK N   1      28.943  22.457  -6.087  0.00  0.00     0.084 C 
ENDROOT
BRANCH   4  10
HETATM   10  C   UNK N   1      29.152  24.637  -3.738  0.00  0.00     0.218 C 
BRANCH  10  11
HETATM   11  N   UNK N   1      27.702  24.490  -3.816  0.00  0.00    -0.404 N 
HETATM   12  H   UNK N   1      27.188  23.709  -3.409  0.00  0.00     0.154 HD
BRANCH  11  13
HETATM   13  C   UNK N   1      27.070  25.588  -4.546  0.00  0.00     0.029 C 
HETATM   14  C   UNK N   1      26.507  26.650  -3.587  0.00  0.00     0.068 C 
HETATM   15  C   UNK N   1      25.891  27.817  -4.359  0.00  0.00     0.061 C 
HETATM   16  C   UNK N   1      26.978  28.464  -5.229  0.00  0.00     0.042 C 
HETATM   17  C   UNK N   1      24.762  27.285  -5.253  0.00  0.00     0.042 C 
HETATM   18  C   UNK N   1      27.546  27.424  -6.209  0.00  0.00    -0.009 C 
HETATM   19  C   UNK N   1      28.146  26.253  -5.418  0.00  0.00     0.035 C 
HETATM   20  C   UNK N   1      26.411  26.895  -7.100  0.00  0.00     0.009 C 
HETATM   21  C   UNK N   1      25.321  26.241  -6.235  0.00  0.00    -0.009 C 
HETATM   22  C   UNK N   1      25.936  25.071  -5.450  0.00  0.00     0.035 C 
BRANCH  15  23
HETATM   23  O   UNK N   1      25.383  28.758  -3.465  0.00  0.00    -0.390 OA
HETATM   24  H   UNK N   1      25.798  29.632  -3.391  0.00  0.00     0.210 HD
ENDBRANCH  15  23
ENDBRANCH  11  13
ENDBRANCH  10  11
ENDBRANCH   4  10
TORSDOF 4
ENDMDL
MODEL 2
REMARK VINA RESULT:      -6.8      1.444      2.124
REMARK  4 active torsions:
REMARK  status: ('A' for Active; 'I' for Inactive)
REMARK    1  A    between atoms: O_1  and  C_7 
REMARK    2  A    between atoms: N_3  and  C_6 
REMARK    3  A    between atoms: N_3  and  C_16 
REMARK       I    between atoms: N_4  and  C_17 
REMARK    4  A    between atoms: C_16  and  C_17 
ROOT
HETATM    1  O   UNK N   1      29.726  23.787  -6.649  0.00  0.00    -0.272 OA
HETATM    2  N   UNK N   1      30.495  22.392  -5.069  0.00  0.00    -0.334 N 
HETATM    3  N   UNK N   1      30.473  23.041  -1.622  0.00  0.00    -0.195 NA
HETATM    4  C   UNK N   1      29.566  23.269  -5.550  0.00  0.00     0.238 C 
HETATM    5  C   UNK N   1      30.355  21.642  -3.840  0.00  0.00     0.194 C 
HETATM    6  C   UNK N   1      31.657  22.060  -5.841  0.00  0.00     0.127 C 
HETATM    7  C   UNK N   1      31.565  20.728  -3.798  0.00  0.00     0.042 C 
HETATM    8  C   UNK N   1      32.296  20.889  -5.124  0.00  0.00     0.023 C 
HETATM    9  C   UNK N   1      30.426  22.457  -2.620  0.00  0.00     0.084 C 
ENDROOT
BRANCH   4  10
HETATM   10  C   UNK N   1      28.342  23.618  -4.770  0.00  0.00     0.218 C 
BRANCH  10  11
HETATM   11  N   UNK N   1      28.523  24.961  -4.226  0.00  0.00    -0.404 N 
HETATM   12  H   UNK N   1      29.208  25.195  -3.507  0.00  0.00     0.154 HD
BRANCH  11  13
HETATM   13  C   UNK N   1      27.610  25.932  -4.825  0.00  0.00     0.029 C 
HETATM   14  C   UNK N   1      26.912  26.784  -3.753  0.00  0.00     0.068 C 
HETATM   15  C   UNK N   1      25.995  27.829  -4.391  0.00  0.00     0.061 C 
HETATM   16  C   UNK N   1      26.840  28.751  -5.283  0.00  0.00     0.042 C 
HETATM   17  C   UNK N   1      24.938  27.112  -5.243  0.00  0.00     0.042 C 
HETATM   18  C   UNK N   1      27.535  27.921  -6.374  0.00  0.00    -0.009 C 
HETATM   19  C   UNK N   1      28.439  26.869  -5.717  0.00  0.00     0.035 C 
HETATM   20  C   UNK N   1      26.472  27.206  -7.223  0.00  0.00     0.009 C 
HETATM   21  C   UNK N   1      25.625  26.277  -6.337  0.00  0.00    -0.009 C 
HETATM   22  C   UNK N   1      26.543  25.229  -5.686  0.00  0.00     0.035 C 
BRANCH  15  23
HETATM   23  O   UNK N   1      25.372  28.580  -3.395  0.00  0.00    -0.390 OA
HETATM   24  H   UNK N   1      25.825  28.741  -2.553  0.00  0.00     0.210 HD
ENDBRANCH  15  23
ENDBRANCH  11  13
ENDBRANCH  10  11
ENDBRANCH   4  10
TORSDOF 4
ENDMDL
MODEL 3
REMARK VINA RESULT:      -6.7     14.814     17.981
REMARK  4 active torsions:
REMARK  status: ('A' for Active; 'I' for Inactive)
REMARK    1  A    between atoms: O_1  and  C_7 
REMARK    2  A    between atoms: N_3  and  C_6 
REMARK    3  A    between atoms: N_3  and  C_16 
REMARK       I    between atoms: N_4  and  C_17 
REMARK    4  A    between atoms: C_16  and  C_17 
ROOT
HETATM    1  O   UNK N   1      34.978  11.897   9.489  0.00  0.00    -0.272 OA
HETATM    2  N   UNK N   1      35.403  13.404  11.095  0.00  0.00    -0.334 N 
HETATM    3  N   UNK N   1      35.485  16.880  10.629  0.00  0.00    -0.195 NA
HETATM    4  C   UNK N   1      34.696  12.968  10.012  0.00  0.00     0.238 C 
HETATM    5  C   UNK N   1      35.087  14.594  11.856  0.00  0.00     0.194 C 
HETATM    6  C   UNK N   1      36.472  12.616  11.637  0.00  0.00     0.127 C 
HETATM    7  C   UNK N   1      36.065  14.589  13.014  0.00  0.00     0.042 C 
HETATM    8  C   UNK N   1      36.829  13.273  12.953  0.00  0.00     0.023 C 
HETATM    9  C   UNK N   1      35.322  15.853  11.138  0.00  0.00     0.084 C 
ENDROOT
BRANCH   4  10
HETATM   10  C   UNK N   1      33.570  13.764   9.440  0.00  0.00     0.218 C 
BRANCH  10  11
HETATM   11  N   UNK N   1      33.876  14.036   8.039  0.00  0.00    -0.404 N 
HETATM   12  H   UNK N   1      34.399  13.400   7.438  0.00  0.00     0.154 HD
BRANCH  11  13
HETATM   13  C   UNK N   1      33.350  15.326   7.595  0.00  0.00     0.029 C 
HETATM   14  C   UNK N   1      32.466  15.974   8.673  0.00  0.00     0.068 C 
HETATM   15  C   UNK N   1      31.960  17.344   8.220  0.00  0.00     0.061 C 
HETATM   16  C   UNK N   1      33.167  18.256   7.958  0.00  0.00     0.042 C 
HETATM   17  C   UNK N   1      31.149  17.174   6.926  0.00  0.00     0.042 C 
HETATM   18  C   UNK N   1      34.059  17.636   6.870  0.00  0.00    -0.009 C 
HETATM   19  C   UNK N   1      34.546  16.257   7.336  0.00  0.00     0.035 C 
HETATM   20  C   UNK N   1      33.242  17.469   5.579  0.00  0.00     0.009 C 
HETATM   21  C   UNK N   1      32.034  16.552   5.833  0.00  0.00    -0.009 C 
HETATM   22  C   UNK N   1      32.537  15.175   6.297  0.00  0.00     0.035 C 
BRANCH  15  23
HETATM   23  O   UNK N   1      31.155  17.901   9.213  0.00  0.00    -0.390 OA
HETATM   24  H   UNK N   1      30.567  18.644   9.002  0.00  0.00     0.210 HD
ENDBRANCH  15  23
ENDBRANCH  11  13
ENDBRANCH  10  11
ENDBRANCH   4  10
TORSDOF 4
ENDMDL
MODEL 4
REMARK VINA RESULT:      -6.6     17.444     21.502
REMARK  4 active torsions:
REMARK  status: ('A' for Active; 'I' for Inactive)
REMARK    1  A    between atoms: O_1  and  C_7 
REMARK    2  A    between atoms: N_3  and  C_6 
REMARK    3  A    between atoms: N_3  and  C_16 
REMARK       I    between atoms: N_4  and  C_17 
REMARK    4  A    between atoms: C_16  and  C_17 
ROOT
HETATM    1  O   UNK N   1      36.065  17.240  10.567  0.00  0.00    -0.272 OA
HETATM    2  N   UNK N   1      34.265  16.719   9.332  0.00  0.00    -0.334 N 
HETATM    3  N   UNK N   1      33.453  13.496   8.212  0.00  0.00    -0.195 NA
HETATM    4  C   UNK N   1      35.130  16.476  10.361  0.00  0.00     0.238 C 
HETATM    5  C   UNK N   1      33.070  15.948   9.066  0.00  0.00     0.194 C 
HETATM    6  C   UNK N   1      34.433  17.869   8.493  0.00  0.00     0.127 C 
HETATM    7  C   UNK N   1      32.388  16.667   7.918  0.00  0.00     0.042 C 
HETATM    8  C   UNK N   1      33.168  17.950   7.663  0.00  0.00     0.023 C 
HETATM    9  C   UNK N   1      33.322  14.582   8.590  0.00  0.00     0.084 C 
ENDROOT
BRANCH   4  10
HETATM   10  C   UNK N   1      34.967  15.292  11.256  0.00  0.00     0.218 C 
BRANCH  10  11
HETATM   11  N   UNK N   1      36.246  15.046  11.915  0.00  0.00    -0.404 N 
HETATM   12  H   UNK N   1      37.045  15.677  11.857  0.00  0.00     0.154 HD
BRANCH  11  13
HETATM   13  C   UNK N   1      36.252  13.791  12.665  0.00  0.00     0.029 C 
HETATM   14  C   UNK N   1      34.924  13.034  12.506  0.00  0.00     0.068 C 
HETATM   15  C   UNK N   1      34.958  11.701  13.254  0.00  0.00     0.061 C 
HETATM   16  C   UNK N   1      36.090  10.838  12.679  0.00  0.00     0.042 C 
HETATM   17  C   UNK N   1      35.217  11.970  14.743  0.00  0.00     0.042 C 
HETATM   18  C   UNK N   1      37.433  11.569  12.842  0.00  0.00    -0.009 C 
HETATM   19  C   UNK N   1      37.377  12.910  12.098  0.00  0.00     0.035 C 
HETATM   20  C   UNK N   1      37.687  11.836  14.334  0.00  0.00     0.009 C 
HETATM   21  C   UNK N   1      36.558  12.704  14.916  0.00  0.00    -0.009 C 
HETATM   22  C   UNK N   1      36.514  14.043  14.162  0.00  0.00     0.035 C 
BRANCH  15  23
HETATM   23  O   UNK N   1      33.739  11.041  13.097  0.00  0.00    -0.390 OA
HETATM   24  H   UNK N   1      32.907  11.530  13.193  0.00  0.00     0.210 HD
ENDBRANCH  15  23
ENDBRANCH  11  13
ENDBRANCH  10  11
ENDBRANCH   4  10
TORSDOF 4
ENDMDL
MODEL 5
REMARK VINA RESULT:      -6.6      1.164      2.114
REMARK  4 active torsions:
REMARK  status: ('A' for Active; 'I' for Inactive)
REMARK    1  A    between atoms: O_1  and  C_7 
REMARK    2  A    between atoms: N_3  and  C_6 
REMARK    3  A    between atoms: N_3  and  C_16 
REMARK       I    between atoms: N_4  and  C_17 
REMARK    4  A    between atoms: C_16  and  C_17 
ROOT
HETATM    1  O   UNK N   1      30.179  23.563  -2.064  0.00  0.00    -0.272 OA
HETATM    2  N   UNK N   1      30.401  22.473  -4.013  0.00  0.00    -0.334 N 
HETATM    3  N   UNK N   1      28.026  22.454  -6.595  0.00  0.00    -0.195 NA
HETATM    4  C   UNK N   1      30.048  23.571  -3.282  0.00  0.00     0.238 C 
HETATM    5  C   UNK N   1      30.392  22.413  -5.459  0.00  0.00     0.194 C 
HETATM    6  C   UNK N   1      30.934  21.307  -3.371  0.00  0.00     0.127 C 
HETATM    7  C   UNK N   1      30.972  21.053  -5.797  0.00  0.00     0.042 C 
HETATM    8  C   UNK N   1      31.445  20.427  -4.492  0.00  0.00     0.023 C 
HETATM    9  C   UNK N   1      29.052  22.438  -6.059  0.00  0.00     0.084 C 
ENDROOT
BRANCH   4  10
HETATM   10  C   UNK N   1      29.505  24.801  -3.931  0.00  0.00     0.218 C 
BRANCH  10  11
HETATM   11  N   UNK N   1      28.087  24.897  -3.597  0.00  0.00    -0.404 N 
HETATM   12  H   UNK N   1      27.601  24.240  -2.988  0.00  0.00     0.154 HD
BRANCH  11  13
HETATM   13  C   UNK N   1      27.442  26.043  -4.237  0.00  0.00     0.029 C 
HETATM   14  C   UNK N   1      26.821  25.655  -5.589  0.00  0.00     0.068 C 
HETATM   15  C   UNK N   1      26.107  26.847  -6.229  0.00  0.00     0.061 C 
HETATM   16  C   UNK N   1      24.988  27.317  -5.288  0.00  0.00     0.042 C 
HETATM   17  C   UNK N   1      27.120  27.983  -6.437  0.00  0.00     0.042 C 
HETATM   18  C   UNK N   1      25.588  27.726  -3.933  0.00  0.00    -0.009 C 
HETATM   19  C   UNK N   1      26.312  26.523  -3.313  0.00  0.00     0.035 C 
HETATM   20  C   UNK N   1      26.600  28.862  -4.148  0.00  0.00     0.009 C 
HETATM   21  C   UNK N   1      27.727  28.397  -5.085  0.00  0.00    -0.009 C 
HETATM   22  C   UNK N   1      28.443  27.193  -4.451  0.00  0.00     0.035 C 
BRANCH  15  23
HETATM   23  O   UNK N   1      25.563  26.468  -7.455  0.00  0.00    -0.390 OA
HETATM   24  H   UNK N   1      24.670  26.758  -7.701  0.00  0.00     0.210 HD
ENDBRANCH  15  23
ENDBRANCH  11  13
ENDBRANCH  10  11
ENDBRANCH   4  10
TORSDOF 4
ENDMDL
MODEL 6
REMARK VINA RESULT:      -6.5      2.201      3.152
REMARK  4 active torsions:
REMARK  status: ('A' for Active; 'I' for Inactive)
REMARK    1  A    between atoms: O_1  and  C_7 
REMARK    2  A    between atoms: N_3  and  C_6 
REMARK    3  A    between atoms: N_3  and  C_16 
REMARK       I    between atoms: N_4  and  C_17 
REMARK    4  A    between atoms: C_16  and  C_17 
ROOT
HETATM    1  O   UNK N   1      32.259  24.651  -5.899  0.00  0.00    -0.272 OA
HETATM    2  N   UNK N   1      31.302  22.957  -4.780  0.00  0.00    -0.334 N 
HETATM    3  N   UNK N   1      30.240  23.092  -1.439  0.00  0.00    -0.195 NA
HETATM    4  C   UNK N   1      31.384  24.275  -5.127  0.00  0.00     0.238 C 
HETATM    5  C   UNK N   1      30.249  22.387  -3.968  0.00  0.00     0.194 C 
HETATM    6  C   UNK N   1      32.226  22.000  -5.316  0.00  0.00     0.127 C 
HETATM    7  C   UNK N   1      30.522  20.895  -3.964  0.00  0.00     0.042 C 
HETATM    8  C   UNK N   1      31.672  20.645  -4.930  0.00  0.00     0.023 C 
HETATM    9  C   UNK N   1      30.275  22.803  -2.560  0.00  0.00     0.084 C 
ENDROOT
BRANCH   4  10
HETATM   10  C   UNK N   1      30.425  25.286  -4.592  0.00  0.00     0.218 C 
BRANCH  10  11
HETATM   11  N   UNK N   1      29.719  25.879  -5.724  0.00  0.00    -0.404 N 
HETATM   12  H   UNK N   1      30.180  26.202  -6.575  0.00  0.00     0.154 HD
BRANCH  11  13
HETATM   13  C   UNK N   1      28.277  25.961  -5.499  0.00  0.00     0.029 C 
HETATM   14  C   UNK N   1      27.503  25.061  -6.476  0.00  0.00     0.068 C 
HETATM   15  C   UNK N   1      26.000  25.115  -6.202  0.00  0.00     0.061 C 
HETATM   16  C   UNK N   1      25.739  24.626  -4.770  0.00  0.00     0.042 C 
HETATM   17  C   UNK N   1      25.517  26.565  -6.350  0.00  0.00     0.042 C 
HETATM   18  C   UNK N   1      26.491  25.522  -3.772  0.00  0.00    -0.009 C 
HETATM   19  C   UNK N   1      27.996  25.468  -4.070  0.00  0.00     0.035 C 
HETATM   20  C   UNK N   1      26.004  26.972  -3.925  0.00  0.00     0.009 C 
HETATM   21  C   UNK N   1      26.265  27.469  -5.356  0.00  0.00    -0.009 C 
HETATM   22  C   UNK N   1      27.775  27.410  -5.641  0.00  0.00     0.035 C 
BRANCH  15  23
HETATM   23  O   UNK N   1      25.326  24.296  -7.107  0.00  0.00    -0.390 OA
HETATM   24  H   UNK N   1      24.623  23.704  -6.797  0.00  0.00     0.210 HD
ENDBRANCH  15  23
ENDBRANCH  11  13
ENDBRANCH  10  11
ENDBRANCH   4  10
TORSDOF 4
ENDMDL
MODEL 7
REMARK VINA RESULT:      -6.5     15.583     16.927
REMARK  4 active torsions:
REMARK  status: ('A' for Active; 'I' for Inactive)
REMARK    1  A    between atoms: O_1  and  C_7 
REMARK    2  A    between atoms: N_3  and  C_6 
REMARK    3  A    between atoms: N_3  and  C_16 
REMARK       I    between atoms: N_4  and  C_17 
REMARK    4  A    between atoms: C_16  and  C_17 
ROOT
HETATM    1  O   UNK N   1      19.498  14.189   9.728  0.00  0.00    -0.272 OA
HETATM    2  N   UNK N   1      21.587  13.385   9.893  0.00  0.00    -0.334 N 
HETATM    3  N   UNK N   1      23.691  12.668   7.179  0.00  0.00    -0.195 NA
HETATM    4  C   UNK N   1      20.661  14.228   9.346  0.00  0.00     0.238 C 
HETATM    5  C   UNK N   1      23.003  13.421   9.598  0.00  0.00     0.194 C 
HETATM    6  C   UNK N   1      21.214  12.456  10.919  0.00  0.00     0.127 C 
HETATM    7  C   UNK N   1      23.621  12.393  10.525  0.00  0.00     0.042 C 
HETATM    8  C   UNK N   1      22.518  11.900  11.452  0.00  0.00     0.023 C 
HETATM    9  C   UNK N   1      23.350  12.993   8.237  0.00  0.00     0.084 C 
ENDROOT
BRANCH   4  10
HETATM   10  C   UNK N   1      21.030  15.213   8.287  0.00  0.00     0.218 C 
BRANCH  10  11
HETATM   11  N   UNK N   1      20.396  14.793   7.041  0.00  0.00    -0.404 N 
HETATM   12  H   UNK N   1      19.724  14.029   6.975  0.00  0.00     0.154 HD
BRANCH  11  13
HETATM   13  C   UNK N   1      20.834  15.592   5.898  0.00  0.00     0.029 C 
HETATM   14  C   UNK N   1      19.638  16.185   5.135  0.00  0.00     0.068 C 
HETATM   15  C   UNK N   1      20.107  17.059   3.970  0.00  0.00     0.061 C 
HETATM   16  C   UNK N   1      20.959  18.209   4.525  0.00  0.00     0.042 C 
HETATM   17  C   UNK N   1      20.951  16.204   3.013  0.00  0.00     0.042 C 
HETATM   18  C   UNK N   1      22.171  17.639   5.279  0.00  0.00    -0.009 C 
HETATM   19  C   UNK N   1      21.683  16.755   6.434  0.00  0.00     0.035 C 
HETATM   20  C   UNK N   1      23.012  16.785   4.316  0.00  0.00     0.009 C 
HETATM   21  C   UNK N   1      22.166  15.627   3.761  0.00  0.00    -0.009 C 
HETATM   22  C   UNK N   1      21.684  14.750   4.929  0.00  0.00     0.035 C 
BRANCH  15  23
HETATM   23  O   UNK N   1      19.002  17.575   3.294  0.00  0.00    -0.390 OA
HETATM   24  H   UNK N   1      18.250  17.001   3.082  0.00  0.00     0.210 HD
ENDBRANCH  15  23
ENDBRANCH  11  13
ENDBRANCH  10  11
ENDBRANCH   4  10
TORSDOF 4
ENDMDL
MODEL 8
REMARK VINA RESULT:      -6.5      2.067      6.875
REMARK  4 active torsions:
REMARK  status: ('A' for Active; 'I' for Inactive)
REMARK    1  A    between atoms: O_1  and  C_7 
REMARK    2  A    between atoms: N_3  and  C_6 
REMARK    3  A    between atoms: N_3  and  C_16 
REMARK       I    between atoms: N_4  and  C_17 
REMARK    4  A    between atoms: C_16  and  C_17 
ROOT
HETATM    1  O   UNK N   1      29.870  27.131  -5.081  0.00  0.00    -0.272 OA
HETATM    2  N   UNK N   1      27.708  27.313  -4.508  0.00  0.00    -0.334 N 
HETATM    3  N   UNK N   1      25.129  25.248  -5.688  0.00  0.00    -0.195 NA
HETATM    4  C   UNK N   1      28.829  26.573  -4.757  0.00  0.00     0.238 C 
HETATM    5  C   UNK N   1      26.461  26.770  -4.014  0.00  0.00     0.194 C 
HETATM    6  C   UNK N   1      27.737  28.742  -4.613  0.00  0.00     0.127 C 
HETATM    7  C   UNK N   1      25.573  27.978  -3.784  0.00  0.00     0.042 C 
HETATM    8  C   UNK N   1      26.427  29.216  -4.019  0.00  0.00     0.023 C 
HETATM    9  C   UNK N   1      25.744  25.924  -4.977  0.00  0.00     0.084 C 
ENDROOT
BRANCH   4  10
HETATM   10  C   UNK N   1      28.825  25.085  -4.639  0.00  0.00     0.218 C 
BRANCH  10  11
HETATM   11  N   UNK N   1      29.794  24.712  -3.613  0.00  0.00    -0.404 N 
HETATM   12  H   UNK N   1      29.902  25.207  -2.727  0.00  0.00     0.154 HD
BRANCH  11  13
HETATM   13  C   UNK N   1      30.594  23.551  -3.999  0.00  0.00     0.029 C 
HETATM   14  C   UNK N   1      31.237  22.879  -2.775  0.00  0.00     0.068 C 
HETATM   15  C   UNK N   1      32.031  21.637  -3.182  0.00  0.00     0.061 C 
HETATM   16  C   UNK N   1      31.078  20.636  -3.851  0.00  0.00     0.042 C 
HETATM   17  C   UNK N   1      33.128  22.049  -4.175  0.00  0.00     0.042 C 
HETATM   18  C   UNK N   1      30.434  21.282  -5.089  0.00  0.00    -0.009 C 
HETATM   19  C   UNK N   1      29.654  22.533  -4.664  0.00  0.00     0.035 C 
HETATM   20  C   UNK N   1      31.536  21.692  -6.078  0.00  0.00     0.009 C 
HETATM   21  C   UNK N   1      32.492  22.698  -5.417  0.00  0.00    -0.009 C 
HETATM   22  C   UNK N   1      31.698  23.946  -4.997  0.00  0.00     0.035 C 
BRANCH  15  23
HETATM   23  O   UNK N   1      32.608  21.055  -2.054  0.00  0.00    -0.390 OA
HETATM   24  H   UNK N   1      32.176  20.302  -1.622  0.00  0.00     0.210 HD
ENDBRANCH  15  23
ENDBRANCH  11  13
ENDBRANCH  10  11
ENDBRANCH   4  10
TORSDOF 4
ENDMDL
MODEL 9
REMARK VINA RESULT:      -6.3     18.590     22.547
REMARK  4 active torsions:
REMARK  status: ('A' for Active; 'I' for Inactive)
REMARK    1  A    between atoms: O_1  and  C_7 
REMARK    2  A    between atoms: N_3  and  C_6 
REMARK    3  A    between atoms: N_3  and  C_16 
REMARK       I    between atoms: N_4  and  C_17 
REMARK    4  A    between atoms: C_16  and  C_17 
ROOT
HETATM    1  O   UNK N   1      36.833  16.213  10.827  0.00  0.00    -0.272 OA
HETATM    2  N   UNK N   1      34.983  15.308   9.937  0.00  0.00    -0.334 N 
HETATM    3  N   UNK N   1      34.824  12.174   8.369  0.00  0.00    -0.195 NA
HETATM    4  C   UNK N   1      36.129  15.222  10.674  0.00  0.00     0.238 C 
HETATM    5  C   UNK N   1      34.024  14.235   9.784  0.00  0.00     0.194 C 
HETATM    6  C   UNK N   1      34.587  16.551   9.343  0.00  0.00     0.127 C 
HETATM    7  C   UNK N   1      32.882  14.841   8.992  0.00  0.00     0.042 C 
HETATM    8  C   UNK N   1      33.173  16.329   8.848  0.00  0.00     0.023 C 
HETATM    9  C   UNK N   1      34.506  13.100   8.987  0.00  0.00     0.084 C 
ENDROOT
BRANCH   4  10
HETATM   10  C   UNK N   1      36.553  13.941  11.314  0.00  0.00     0.218 C 
BRANCH  10  11
HETATM   11  N   UNK N   1      36.721  14.186  12.743  0.00  0.00    -0.404 N 
HETATM   12  H   UNK N   1      37.121  15.041  13.130  0.00  0.00     0.154 HD
BRANCH  11  13
HETATM   13  C   UNK N   1      36.255  13.065  13.557  0.00  0.00     0.029 C 
HETATM   14  C   UNK N   1      35.860  13.523  14.971  0.00  0.00     0.068 C 
HETATM   15  C   UNK N   1      35.328  12.353  15.800  0.00  0.00     0.061 C 
HETATM   16  C   UNK N   1      34.087  11.776  15.103  0.00  0.00     0.042 C 
HETATM   17  C   UNK N   1      36.415  11.273  15.896  0.00  0.00     0.042 C 
HETATM   18  C   UNK N   1      34.461  11.297  13.691  0.00  0.00    -0.009 C 
HETATM   19  C   UNK N   1      35.006  12.479  12.879  0.00  0.00     0.035 C 
HETATM   20  C   UNK N   1      35.550  10.217  13.795  0.00  0.00     0.009 C 
HETATM   21  C   UNK N   1      36.798  10.788  14.487  0.00  0.00    -0.009 C 
HETATM   22  C   UNK N   1      37.333  11.971  13.662  0.00  0.00     0.035 C 
BRANCH  15  23
HETATM   23  O   UNK N   1      34.987  12.796  17.077  0.00  0.00    -0.390 OA
HETATM   24  H   UNK N   1      34.199  12.444  17.519  0.00  0.00     0.210 HD
ENDBRANCH  15  23
ENDBRANCH  11  13
ENDBRANCH  10  11
ENDBRANCH   4  10
TORSDOF 4
ENDMDL
