MODEL 1
REMARK VINA RESULT:      -7.6      0.000      0.000
REMARK  13 active torsions:
REMARK  status: ('A' for Active; 'I' for Inactive)
REMARK    1  A    between atoms: C_8  and  C_5 
REMARK    2  A    between atoms: C_10  and  C_5 
REMARK    3  A    between atoms: C_27  and  C_8 
REMARK    4  A    between atoms: C_29  and  C_10 
REMARK    5  A    between atoms: C_23  and  C_16 
REMARK    6  A    between atoms: C_29  and  C_16 
REMARK    7  A    between atoms: O_35  and  C_22 
REMARK    8  A    between atoms: O_36  and  C_23 
REMARK    9  A    between atoms: C_25  and  O_39 
REMARK   10  A    between atoms: C_29  and  C_26 
REMARK   11  A    between atoms: O_39  and  C_26 
REMARK   12  A    between atoms: O_33  and  C_27 
REMARK   13  A    between atoms: C_29  and  O_34 
ROOT
HETATM    1  C   UNK N   1      18.540  11.682   3.254  0.00  0.00     0.033 C 
HETATM    2  C   UNK N   1      19.505  15.466   0.608  0.00  0.00     0.069 C 
HETATM    3  C   UNK N   1      19.276  12.681   4.136  0.00  0.00     0.048 C 
HETATM    4  C   UNK N   1      18.627  12.265   1.849  0.00  0.00     0.274 C 
HETATM    5  C   UNK N   1      19.863  14.031   0.824  0.00  0.00     0.278 C 
HETATM    6  C   UNK N   1      20.089  17.776   1.084  0.00  0.00     0.047 A 
HETATM    7  C   UNK N   1      21.028  17.311   3.675  0.00  0.00     0.048 A 
HETATM    8  C   UNK N   1      21.339  12.751   2.927  0.00  0.00     0.050 C 
HETATM    9  C   UNK N   1      21.200  20.748   2.723  0.00  0.00     0.352 A 
HETATM   10  C   UNK N   1      20.083  16.453   1.579  0.00  0.00    -0.047 A 
HETATM   11  C   UNK N   1      20.561  16.195   2.934  0.00  0.00    -0.039 A 
HETATM   12  C   UNK N   1      20.566  18.800   1.888  0.00  0.00     0.105 A 
HETATM   13  C   UNK N   1      21.020  18.572   3.111  0.00  0.00     0.105 A 
HETATM   14  C   UNK N   1      22.330  13.271   3.631  0.00  0.00     0.074 C 
HETATM   15  C   UNK N   1      20.541  14.871   3.747  0.00  0.00     0.098 C 
HETATM   16  C   UNK N   1      21.958  14.529   4.339  0.00  0.00     0.199 C 
HETATM   17  C   UNK N   1      20.067  13.518   3.144  0.00  0.00     0.190 C 
HETATM   18  N   UNK N   1      19.167  13.608   2.010  0.00  0.00     0.103 N 
HETATM   19  O   UNK N   1      20.650  20.099   1.613  0.00  0.00    -0.323 OA
HETATM   20  O   UNK N   1      21.419  19.726   3.650  0.00  0.00    -0.323 OA
ENDROOT
BRANCH  16  21
HETATM   21  O   UNK N   1      21.896  14.256   5.696  0.00  0.00    -0.306 OA
BRANCH  21  22
HETATM   22  C   UNK N   1      21.977  15.210   6.661  0.00  0.00     0.294 C 
HETATM   23  O   UNK N   1      22.984  15.901   6.715  0.00  0.00    -0.262 OA
BRANCH  22  24
HETATM   24  C   UNK N   1      20.831  15.486   7.626  0.00  0.00     0.154 C 
BRANCH  24  25
HETATM   25  C   UNK N   1      21.120  14.897   9.011  0.00  0.00     0.049 C 
BRANCH  25  26
HETATM   26  C   UNK N   1      21.240  13.380   9.081  0.00  0.00     0.006 C 
BRANCH  26  27
HETATM   27  C   UNK N   1      21.587  13.022  10.522  0.00  0.00     0.037 C 
BRANCH  27  28
HETATM   28  C   UNK N   1      22.973  12.392  10.684  0.00  0.00     0.051 C 
HETATM   29  C   UNK N   1      23.158  11.894  12.104  0.00  0.00     0.045 C 
HETATM   30  C   UNK N   1      23.086  11.218   9.736  0.00  0.00     0.045 C 
BRANCH  28  31
HETATM   31  O   UNK N   1      23.980  13.309  10.379  0.00  0.00    -0.391 OA
HETATM   32  H   UNK N   1      24.510  14.065  10.678  0.00  0.00     0.210 HD
ENDBRANCH  28  31
ENDBRANCH  27  28
ENDBRANCH  26  27
ENDBRANCH  25  26
ENDBRANCH  24  25
BRANCH  24  33
HETATM   33  C   UNK N   1      20.543  16.987   7.703  0.00  0.00     0.159 C 
BRANCH  33  34
HETATM   34  C   UNK N   1      19.474  17.368   8.684  0.00  0.00     0.261 C 
HETATM   35  O   UNK N   1      19.646  18.344   9.400  0.00  0.00    -0.265 OA
BRANCH  34  36
HETATM   36  O   UNK N   1      18.337  16.639   8.773  0.00  0.00    -0.326 OA
HETATM   37  C   UNK N   1      17.109  17.227   8.967  0.00  0.00     0.213 C 
ENDBRANCH  34  36
ENDBRANCH  33  34
ENDBRANCH  24  33
BRANCH  24  38
HETATM   38  O   UNK N   1      19.686  14.843   7.143  0.00  0.00    -0.379 OA
HETATM   39  H   UNK N   1      19.024  14.712   6.445  0.00  0.00     0.211 HD
ENDBRANCH  24  38
ENDBRANCH  22  24
ENDBRANCH  21  22
ENDBRANCH  16  21
BRANCH  14  40
HETATM   40  O   UNK N   1      23.540  12.676   3.794  0.00  0.00    -0.358 OA
HETATM   41  C   UNK N   1      23.783  11.368   3.433  0.00  0.00     0.209 C 
ENDBRANCH  14  40
TORSDOF 13
ENDMDL
MODEL 2
REMARK VINA RESULT:      -7.5     13.630     17.145
REMARK  13 active torsions:
REMARK  status: ('A' for Active; 'I' for Inactive)
REMARK    1  A    between atoms: C_8  and  C_5 
REMARK    2  A    between atoms: C_10  and  C_5 
REMARK    3  A    between atoms: C_27  and  C_8 
REMARK    4  A    between atoms: C_29  and  C_10 
REMARK    5  A    between atoms: C_23  and  C_16 
REMARK    6  A    between atoms: C_29  and  C_16 
REMARK    7  A    between atoms: O_35  and  C_22 
REMARK    8  A    between atoms: O_36  and  C_23 
REMARK    9  A    between atoms: C_25  and  O_39 
REMARK   10  A    between atoms: C_29  and  C_26 
REMARK   11  A    between atoms: O_39  and  C_26 
REMARK   12  A    between atoms: O_33  and  C_27 
REMARK   13  A    between atoms: C_29  and  O_34 
ROOT
HETATM    1  C   UNK N   1      34.017  10.340  12.258  0.00  0.00     0.033 C 
HETATM    2  C   UNK N   1      38.399  10.051  10.535  0.00  0.00     0.069 C 
HETATM    3  C   UNK N   1      34.351  11.685  11.628  0.00  0.00     0.048 C 
HETATM    4  C   UNK N   1      35.329   9.565  12.235  0.00  0.00     0.274 C 
HETATM    5  C   UNK N   1      37.611  10.113  11.804  0.00  0.00     0.278 C 
HETATM    6  C   UNK N   1      39.676  11.315   8.900  0.00  0.00     0.047 A 
HETATM    7  C   UNK N   1      38.134  13.641   9.061  0.00  0.00     0.048 A 
HETATM    8  C   UNK N   1      36.189  12.279  13.039  0.00  0.00     0.050 C 
HETATM    9  C   UNK N   1      40.806  13.898   6.708  0.00  0.00     0.352 A 
HETATM   10  C   UNK N   1      38.591  11.346   9.804  0.00  0.00    -0.047 A 
HETATM   11  C   UNK N   1      37.769  12.550   9.892  0.00  0.00    -0.039 A 
HETATM   12  C   UNK N   1      39.951  12.435   8.130  0.00  0.00     0.105 A 
HETATM   13  C   UNK N   1      39.224  13.538   8.219  0.00  0.00     0.105 A 
HETATM   14  C   UNK N   1      36.492  13.565  12.975  0.00  0.00     0.074 C 
HETATM   15  C   UNK N   1      36.464  12.791  10.700  0.00  0.00     0.098 C 
HETATM   16  C   UNK N   1      36.556  14.090  11.582  0.00  0.00     0.199 C 
HETATM   17  C   UNK N   1      35.869  11.736  11.676  0.00  0.00     0.190 C 
HETATM   18  N   UNK N   1      36.244  10.357  11.427  0.00  0.00     0.103 N 
HETATM   19  O   UNK N   1      40.914  12.604   7.228  0.00  0.00    -0.323 OA
HETATM   20  O   UNK N   1      39.712  14.452   7.377  0.00  0.00    -0.323 OA
ENDROOT
BRANCH  16  21
HETATM   21  O   UNK N   1      35.465  14.923  11.386  0.00  0.00    -0.306 OA
BRANCH  21  22
HETATM   22  C   UNK N   1      35.438  15.929  10.472  0.00  0.00     0.294 C 
HETATM   23  O   UNK N   1      36.196  16.875  10.625  0.00  0.00    -0.262 OA
BRANCH  22  24
HETATM   24  C   UNK N   1      34.548  15.877   9.236  0.00  0.00     0.154 C 
BRANCH  24  25
HETATM   25  C   UNK N   1      33.530  14.736   9.336  0.00  0.00     0.049 C 
BRANCH  25  26
HETATM   26  C   UNK N   1      33.178  14.037   8.029  0.00  0.00     0.006 C 
BRANCH  26  27
HETATM   27  C   UNK N   1      33.437  12.548   8.231  0.00  0.00     0.037 C 
BRANCH  27  28
HETATM   28  C   UNK N   1      34.491  11.972   7.282  0.00  0.00     0.051 C 
HETATM   29  C   UNK N   1      35.164  10.769   7.915  0.00  0.00     0.045 C 
HETATM   30  C   UNK N   1      33.806  11.532   6.006  0.00  0.00     0.045 C 
BRANCH  28  31
HETATM   31  O   UNK N   1      35.456  12.929   6.962  0.00  0.00    -0.391 OA
HETATM   32  H   UNK N   1      35.653  13.768   6.516  0.00  0.00     0.210 HD
ENDBRANCH  28  31
ENDBRANCH  27  28
ENDBRANCH  26  27
ENDBRANCH  25  26
ENDBRANCH  24  25
BRANCH  24  33
HETATM   33  C   UNK N   1      33.861  17.226   9.013  0.00  0.00     0.159 C 
BRANCH  33  34
HETATM   34  C   UNK N   1      34.558  18.127   8.038  0.00  0.00     0.261 C 
HETATM   35  O   UNK N   1      35.199  19.078   8.463  0.00  0.00    -0.265 OA
BRANCH  34  36
HETATM   36  O   UNK N   1      34.476  17.889   6.709  0.00  0.00    -0.326 OA
HETATM   37  C   UNK N   1      33.308  17.469   6.115  0.00  0.00     0.213 C 
ENDBRANCH  34  36
ENDBRANCH  33  34
ENDBRANCH  24  33
BRANCH  24  38
HETATM   38  O   UNK N   1      35.355  15.605   8.126  0.00  0.00    -0.379 OA
HETATM   39  H   UNK N   1      35.494  15.606   7.165  0.00  0.00     0.211 HD
ENDBRANCH  24  38
ENDBRANCH  22  24
ENDBRANCH  21  22
ENDBRANCH  16  21
BRANCH  14  40
HETATM   40  O   UNK N   1      36.626  14.367  14.063  0.00  0.00    -0.358 OA
HETATM   41  C   UNK N   1      36.873  13.877  15.326  0.00  0.00     0.209 C 
ENDBRANCH  14  40
TORSDOF 13
ENDMDL
MODEL 3
REMARK VINA RESULT:      -7.3     10.776     12.962
REMARK  13 active torsions:
REMARK  status: ('A' for Active; 'I' for Inactive)
REMARK    1  A    between atoms: C_8  and  C_5 
REMARK    2  A    between atoms: C_10  and  C_5 
REMARK    3  A    between atoms: C_27  and  C_8 
REMARK    4  A    between atoms: C_29  and  C_10 
REMARK    5  A    between atoms: C_23  and  C_16 
REMARK    6  A    between atoms: C_29  and  C_16 
REMARK    7  A    between atoms: O_35  and  C_22 
REMARK    8  A    between atoms: O_36  and  C_23 
REMARK    9  A    between atoms: C_25  and  O_39 
REMARK   10  A    between atoms: C_29  and  C_26 
REMARK   11  A    between atoms: O_39  and  C_26 
REMARK   12  A    between atoms: O_33  and  C_27 
REMARK   13  A    between atoms: C_29  and  O_34 
ROOT
HETATM    1  C   UNK N   1      32.869  12.302   3.108  0.00  0.00     0.033 C 
HETATM    2  C   UNK N   1      30.601  16.401   3.665  0.00  0.00     0.069 C 
HETATM    3  C   UNK N   1      32.877  12.632   4.594  0.00  0.00     0.048 C 
HETATM    4  C   UNK N   1      32.311  13.552   2.436  0.00  0.00     0.274 C 
HETATM    5  C   UNK N   1      31.857  15.788   3.135  0.00  0.00     0.278 C 
HETATM    6  C   UNK N   1      29.555  17.530   5.545  0.00  0.00     0.047 A 
HETATM    7  C   UNK N   1      30.970  16.162   7.530  0.00  0.00     0.048 A 
HETATM    8  C   UNK N   1      34.127  14.668   4.488  0.00  0.00     0.050 C 
HETATM    9  C   UNK N   1      28.638  18.520   8.851  0.00  0.00     0.352 A 
HETATM   10  C   UNK N   1      30.518  16.574   5.153  0.00  0.00    -0.047 A 
HETATM   11  C   UNK N   1      31.258  15.844   6.178  0.00  0.00    -0.039 A 
HETATM   12  C   UNK N   1      29.346  17.770   6.895  0.00  0.00     0.105 A 
HETATM   13  C   UNK N   1      30.027  17.127   7.831  0.00  0.00     0.105 A 
HETATM   14  C   UNK N   1      34.612  15.036   5.662  0.00  0.00     0.074 C 
HETATM   15  C   UNK N   1      32.263  14.670   6.015  0.00  0.00     0.098 C 
HETATM   16  C   UNK N   1      33.615  14.952   6.767  0.00  0.00     0.199 C 
HETATM   17  C   UNK N   1      32.728  14.144   4.626  0.00  0.00     0.190 C 
HETATM   18  N   UNK N   1      31.830  14.401   3.516  0.00  0.00     0.103 N 
HETATM   19  O   UNK N   1      28.493  18.617   7.464  0.00  0.00    -0.323 OA
HETATM   20  O   UNK N   1      29.632  17.556   9.031  0.00  0.00    -0.323 OA
ENDROOT
BRANCH  16  21
HETATM   21  O   UNK N   1      33.976  13.896   7.590  0.00  0.00    -0.306 OA
BRANCH  21  22
HETATM   22  C   UNK N   1      33.527  13.747   8.865  0.00  0.00     0.294 C 
HETATM   23  O   UNK N   1      32.541  13.052   9.058  0.00  0.00    -0.262 OA
BRANCH  22  24
HETATM   24  C   UNK N   1      34.252  14.361  10.057  0.00  0.00     0.154 C 
BRANCH  24  25
HETATM   25  C   UNK N   1      34.843  13.275  10.963  0.00  0.00     0.049 C 
BRANCH  25  26
HETATM   26  C   UNK N   1      36.185  13.598  11.607  0.00  0.00     0.006 C 
BRANCH  26  27
HETATM   27  C   UNK N   1      35.897  14.123  13.009  0.00  0.00     0.037 C 
BRANCH  27  28
HETATM   28  C   UNK N   1      36.185  13.108  14.118  0.00  0.00     0.051 C 
HETATM   29  C   UNK N   1      34.902  12.424  14.548  0.00  0.00     0.045 C 
HETATM   30  C   UNK N   1      37.140  12.063  13.583  0.00  0.00     0.045 C 
BRANCH  28  31
HETATM   31  O   UNK N   1      36.774  13.725  15.223  0.00  0.00    -0.391 OA
HETATM   32  H   UNK N   1      37.297  13.615  16.034  0.00  0.00     0.210 HD
ENDBRANCH  28  31
ENDBRANCH  27  28
ENDBRANCH  26  27
ENDBRANCH  25  26
ENDBRANCH  24  25
BRANCH  24  33
HETATM   33  C   UNK N   1      35.326  15.343   9.584  0.00  0.00     0.159 C 
BRANCH  33  34
HETATM   34  C   UNK N   1      35.003  16.787   9.834  0.00  0.00     0.261 C 
HETATM   35  O   UNK N   1      35.649  17.403  10.669  0.00  0.00    -0.265 OA
BRANCH  34  36
HETATM   36  O   UNK N   1      34.010  17.394   9.143  0.00  0.00    -0.326 OA
HETATM   37  C   UNK N   1      34.268  18.331   8.169  0.00  0.00     0.213 C 
ENDBRANCH  34  36
ENDBRANCH  33  34
ENDBRANCH  24  33
BRANCH  24  38
HETATM   38  O   UNK N   1      33.318  15.065  10.824  0.00  0.00    -0.379 OA
HETATM   39  H   UNK N   1      32.979  15.348  11.688  0.00  0.00     0.211 HD
ENDBRANCH  24  38
ENDBRANCH  22  24
ENDBRANCH  21  22
ENDBRANCH  16  21
BRANCH  14  40
HETATM   40  O   UNK N   1      35.914  15.357   5.879  0.00  0.00    -0.358 OA
HETATM   41  C   UNK N   1      36.945  14.464   5.686  0.00  0.00     0.209 C 
ENDBRANCH  14  40
TORSDOF 13
ENDMDL
MODEL 4
REMARK VINA RESULT:      -7.2     13.224     16.982
REMARK  13 active torsions:
REMARK  status: ('A' for Active; 'I' for Inactive)
REMARK    1  A    between atoms: C_8  and  C_5 
REMARK    2  A    between atoms: C_10  and  C_5 
REMARK    3  A    between atoms: C_27  and  C_8 
REMARK    4  A    between atoms: C_29  and  C_10 
REMARK    5  A    between atoms: C_23  and  C_16 
REMARK    6  A    between atoms: C_29  and  C_16 
REMARK    7  A    between atoms: O_35  and  C_22 
REMARK    8  A    between atoms: O_36  and  C_23 
REMARK    9  A    between atoms: C_25  and  O_39 
REMARK   10  A    between atoms: C_29  and  C_26 
REMARK   11  A    between atoms: O_39  and  C_26 
REMARK   12  A    between atoms: O_33  and  C_27 
REMARK   13  A    between atoms: C_29  and  O_34 
ROOT
HETATM    1  C   UNK N   1      34.128  10.015  12.526  0.00  0.00     0.033 C 
HETATM    2  C   UNK N   1      38.452   9.733  10.660  0.00  0.00     0.069 C 
HETATM    3  C   UNK N   1      34.440  11.361  11.887  0.00  0.00     0.048 C 
HETATM    4  C   UNK N   1      35.439   9.241  12.459  0.00  0.00     0.274 C 
HETATM    5  C   UNK N   1      37.706   9.792  11.954  0.00  0.00     0.278 C 
HETATM    6  C   UNK N   1      39.674  11.000   8.986  0.00  0.00     0.047 A 
HETATM    7  C   UNK N   1      38.135  13.324   9.200  0.00  0.00     0.048 A 
HETATM    8  C   UNK N   1      36.322  11.955  13.237  0.00  0.00     0.050 C 
HETATM    9  C   UNK N   1      40.729  13.588   6.762  0.00  0.00     0.352 A 
HETATM   10  C   UNK N   1      38.618  11.029   9.924  0.00  0.00    -0.047 A 
HETATM   11  C   UNK N   1      37.799  12.232  10.041  0.00  0.00    -0.039 A 
HETATM   12  C   UNK N   1      39.922  12.121   8.209  0.00  0.00     0.105 A 
HETATM   13  C   UNK N   1      39.197  13.223   8.322  0.00  0.00     0.105 A 
HETATM   14  C   UNK N   1      36.622  13.241  13.166  0.00  0.00     0.074 C 
HETATM   15  C   UNK N   1      36.520  12.471  10.892  0.00  0.00     0.098 C 
HETATM   16  C   UNK N   1      36.639  13.768  11.772  0.00  0.00     0.199 C 
HETATM   17  C   UNK N   1      35.958  11.413  11.885  0.00  0.00     0.190 C 
HETATM   18  N   UNK N   1      36.327  10.035  11.623  0.00  0.00     0.103 N 
HETATM   19  O   UNK N   1      40.855  12.293   7.276  0.00  0.00    -0.323 OA
HETATM   20  O   UNK N   1      39.656  14.139   7.466  0.00  0.00    -0.323 OA
ENDROOT
BRANCH  16  21
HETATM   21  O   UNK N   1      35.542  14.600  11.613  0.00  0.00    -0.306 OA
BRANCH  21  22
HETATM   22  C   UNK N   1      35.494  15.623  10.718  0.00  0.00     0.294 C 
HETATM   23  O   UNK N   1      36.420  16.419  10.694  0.00  0.00    -0.262 OA
BRANCH  22  24
HETATM   24  C   UNK N   1      34.362  15.762   9.708  0.00  0.00     0.154 C 
BRANCH  24  25
HETATM   25  C   UNK N   1      34.308  17.182   9.131  0.00  0.00     0.049 C 
BRANCH  25  26
HETATM   26  C   UNK N   1      33.327  17.402   7.986  0.00  0.00     0.006 C 
BRANCH  26  27
HETATM   27  C   UNK N   1      32.231  18.327   8.505  0.00  0.00     0.037 C 
BRANCH  27  28
HETATM   28  C   UNK N   1      30.846  17.677   8.546  0.00  0.00     0.051 C 
HETATM   29  C   UNK N   1      29.840  18.627   9.167  0.00  0.00     0.045 C 
HETATM   30  C   UNK N   1      30.413  17.366   7.129  0.00  0.00     0.045 C 
BRANCH  28  31
HETATM   31  O   UNK N   1      30.871  16.487   9.275  0.00  0.00    -0.391 OA
HETATM   32  H   UNK N   1      30.958  16.068  10.146  0.00  0.00     0.210 HD
ENDBRANCH  28  31
ENDBRANCH  27  28
ENDBRANCH  26  27
ENDBRANCH  25  26
ENDBRANCH  24  25
BRANCH  24  33
HETATM   33  C   UNK N   1      34.494  14.711   8.604  0.00  0.00     0.159 C 
BRANCH  33  34
HETATM   34  C   UNK N   1      33.343  13.754   8.513  0.00  0.00     0.261 C 
HETATM   35  O   UNK N   1      33.437  12.661   9.052  0.00  0.00    -0.265 OA
BRANCH  34  36
HETATM   36  O   UNK N   1      32.219  14.099   7.843  0.00  0.00    -0.326 OA
HETATM   37  C   UNK N   1      32.187  14.184   6.470  0.00  0.00     0.213 C 
ENDBRANCH  34  36
ENDBRANCH  33  34
ENDBRANCH  24  33
BRANCH  24  38
HETATM   38  O   UNK N   1      33.150  15.550  10.375  0.00  0.00    -0.379 OA
HETATM   39  H   UNK N   1      32.556  14.972  10.879  0.00  0.00     0.211 HD
ENDBRANCH  24  38
ENDBRANCH  22  24
ENDBRANCH  21  22
ENDBRANCH  16  21
BRANCH  14  40
HETATM   40  O   UNK N   1      36.791  14.042  14.250  0.00  0.00    -0.358 OA
HETATM   41  C   UNK N   1      36.731  13.571  15.543  0.00  0.00     0.209 C 
ENDBRANCH  14  40
TORSDOF 13
ENDMDL
MODEL 5
REMARK VINA RESULT:      -7.2     14.997     17.462
REMARK  13 active torsions:
REMARK  status: ('A' for Active; 'I' for Inactive)
REMARK    1  A    between atoms: C_8  and  C_5 
REMARK    2  A    between atoms: C_10  and  C_5 
REMARK    3  A    between atoms: C_27  and  C_8 
REMARK    4  A    between atoms: C_29  and  C_10 
REMARK    5  A    between atoms: C_23  and  C_16 
REMARK    6  A    between atoms: C_29  and  C_16 
REMARK    7  A    between atoms: O_35  and  C_22 
REMARK    8  A    between atoms: O_36  and  C_23 
REMARK    9  A    between atoms: C_25  and  O_39 
REMARK   10  A    between atoms: C_29  and  C_26 
REMARK   11  A    between atoms: O_39  and  C_26 
REMARK   12  A    between atoms: O_33  and  C_27 
REMARK   13  A    between atoms: C_29  and  O_34 
ROOT
HETATM    1  C   UNK N   1      32.098  21.681  -2.640  0.00  0.00     0.033 C 
HETATM    2  C   UNK N   1      30.973  20.868  -7.149  0.00  0.00     0.069 C 
HETATM    3  C   UNK N   1      30.742  22.322  -2.896  0.00  0.00     0.048 C 
HETATM    4  C   UNK N   1      32.585  21.239  -4.015  0.00  0.00     0.274 C 
HETATM    5  C   UNK N   1      31.895  21.644  -6.264  0.00  0.00     0.278 C 
HETATM    6  C   UNK N   1      28.907  20.910  -8.425  0.00  0.00     0.047 A 
HETATM    7  C   UNK N   1      27.513  22.579  -6.668  0.00  0.00     0.048 A 
HETATM    8  C   UNK N   1      31.419  23.903  -4.559  0.00  0.00     0.050 C 
HETATM    9  C   UNK N   1      25.557  21.565  -9.478  0.00  0.00     0.352 A 
HETATM   10  C   UNK N   1      29.573  21.390  -7.276  0.00  0.00    -0.047 A 
HETATM   11  C   UNK N   1      28.855  22.254  -6.343  0.00  0.00    -0.039 A 
HETATM   12  C   UNK N   1      27.592  21.285  -8.655  0.00  0.00     0.105 A 
HETATM   13  C   UNK N   1      26.940  22.085  -7.824  0.00  0.00     0.105 A 
HETATM   14  C   UNK N   1      30.530  24.865  -4.747  0.00  0.00     0.074 C 
HETATM   15  C   UNK N   1      29.312  22.804  -4.963  0.00  0.00     0.098 C 
HETATM   16  C   UNK N   1      29.132  24.364  -4.868  0.00  0.00     0.199 C 
HETATM   17  C   UNK N   1      30.742  22.573  -4.395  0.00  0.00     0.190 C 
HETATM   18  N   UNK N   1      31.453  21.420  -4.913  0.00  0.00     0.103 N 
HETATM   19  O   UNK N   1      26.796  20.942  -9.664  0.00  0.00    -0.323 OA
HETATM   20  O   UNK N   1      25.704  22.284  -8.289  0.00  0.00    -0.323 OA
ENDROOT
BRANCH  16  21
HETATM   21  O   UNK N   1      28.442  24.733  -3.724  0.00  0.00    -0.306 OA
BRANCH  21  22
HETATM   22  C   UNK N   1      27.145  25.141  -3.723  0.00  0.00     0.294 C 
HETATM   23  O   UNK N   1      26.319  24.458  -3.137  0.00  0.00    -0.262 OA
BRANCH  22  24
HETATM   24  C   UNK N   1      26.708  26.450  -4.369  0.00  0.00     0.154 C 
BRANCH  24  25
HETATM   25  C   UNK N   1      25.889  26.193  -5.639  0.00  0.00     0.049 C 
BRANCH  25  26
HETATM   26  C   UNK N   1      26.340  26.939  -6.889  0.00  0.00     0.006 C 
BRANCH  26  27
HETATM   27  C   UNK N   1      26.945  25.907  -7.835  0.00  0.00     0.037 C 
BRANCH  27  28
HETATM   28  C   UNK N   1      28.341  26.280  -8.340  0.00  0.00     0.051 C 
HETATM   29  C   UNK N   1      29.034  25.058  -8.912  0.00  0.00     0.045 C 
HETATM   30  C   UNK N   1      28.202  27.318  -9.432  0.00  0.00     0.045 C 
BRANCH  28  31
HETATM   31  O   UNK N   1      29.120  26.816  -7.313  0.00  0.00    -0.391 OA
HETATM   32  H   UNK N   1      29.902  27.340  -7.073  0.00  0.00     0.210 HD
ENDBRANCH  28  31
ENDBRANCH  27  28
ENDBRANCH  26  27
ENDBRANCH  25  26
ENDBRANCH  24  25
BRANCH  24  33
HETATM   33  C   UNK N   1      25.936  27.312  -3.368  0.00  0.00     0.159 C 
BRANCH  33  34
HETATM   34  C   UNK N   1      26.467  28.705  -3.206  0.00  0.00     0.261 C 
HETATM   35  O   UNK N   1      26.115  29.570  -3.995  0.00  0.00    -0.265 OA
BRANCH  34  36
HETATM   36  O   UNK N   1      27.323  28.998  -2.199  0.00  0.00    -0.326 OA
HETATM   37  C   UNK N   1      28.088  30.141  -2.203  0.00  0.00     0.213 C 
ENDBRANCH  34  36
ENDBRANCH  33  34
ENDBRANCH  24  33
BRANCH  24  38
HETATM   38  O   UNK N   1      27.854  27.150  -4.761  0.00  0.00    -0.379 OA
HETATM   39  H   UNK N   1      28.427  27.505  -5.460  0.00  0.00     0.211 HD
ENDBRANCH  24  38
ENDBRANCH  22  24
ENDBRANCH  21  22
ENDBRANCH  16  21
BRANCH  14  40
HETATM   40  O   UNK N   1      30.829  26.190  -4.723  0.00  0.00    -0.358 OA
HETATM   41  C   UNK N   1      31.197  26.852  -3.572  0.00  0.00     0.209 C 
ENDBRANCH  14  40
TORSDOF 13
ENDMDL
MODEL 6
REMARK VINA RESULT:      -7.1      4.330      7.460
REMARK  13 active torsions:
REMARK  status: ('A' for Active; 'I' for Inactive)
REMARK    1  A    between atoms: C_8  and  C_5 
REMARK    2  A    between atoms: C_10  and  C_5 
REMARK    3  A    between atoms: C_27  and  C_8 
REMARK    4  A    between atoms: C_29  and  C_10 
REMARK    5  A    between atoms: C_23  and  C_16 
REMARK    6  A    between atoms: C_29  and  C_16 
REMARK    7  A    between atoms: O_35  and  C_22 
REMARK    8  A    between atoms: O_36  and  C_23 
REMARK    9  A    between atoms: C_25  and  O_39 
REMARK   10  A    between atoms: C_29  and  C_26 
REMARK   11  A    between atoms: O_39  and  C_26 
REMARK   12  A    between atoms: O_33  and  C_27 
REMARK   13  A    between atoms: C_29  and  O_34 
ROOT
HETATM    1  C   UNK N   1      24.201  11.940  11.241  0.00  0.00     0.033 C 
HETATM    2  C   UNK N   1      20.740  14.562   9.397  0.00  0.00     0.069 C 
HETATM    3  C   UNK N   1      24.720  12.532   9.938  0.00  0.00     0.048 C 
HETATM    4  C   UNK N   1      22.719  12.292  11.264  0.00  0.00     0.274 C 
HETATM    5  C   UNK N   1      21.159  13.154   9.676  0.00  0.00     0.278 C 
HETATM    6  C   UNK N   1      20.641  16.337   7.742  0.00  0.00     0.047 A 
HETATM    7  C   UNK N   1      23.053  15.695   6.483  0.00  0.00     0.048 A 
HETATM    8  C   UNK N   1      23.159  11.502   8.448  0.00  0.00     0.050 C 
HETATM    9  C   UNK N   1      21.438  18.534   5.041  0.00  0.00     0.352 A 
HETATM   10  C   UNK N   1      21.376  15.226   8.212  0.00  0.00    -0.047 A 
HETATM   11  C   UNK N   1      22.642  14.884   7.572  0.00  0.00    -0.039 A 
HETATM   12  C   UNK N   1      21.128  17.068   6.669  0.00  0.00     0.105 A 
HETATM   13  C   UNK N   1      22.266  16.753   6.070  0.00  0.00     0.105 A 
HETATM   14  C   UNK N   1      23.552  11.539   7.185  0.00  0.00     0.074 C 
HETATM   15  C   UNK N   1      23.686  13.805   7.973  0.00  0.00     0.098 C 
HETATM   16  C   UNK N   1      24.059  12.874   6.761  0.00  0.00     0.199 C 
HETATM   17  C   UNK N   1      23.456  12.801   9.139  0.00  0.00     0.190 C 
HETATM   18  N   UNK N   1      22.513  13.217  10.160  0.00  0.00     0.103 N 
HETATM   19  O   UNK N   1      20.596  18.139   6.086  0.00  0.00    -0.323 OA
HETATM   20  O   UNK N   1      22.488  17.614   5.073  0.00  0.00    -0.323 OA
ENDROOT
BRANCH  16  21
HETATM   21  O   UNK N   1      25.431  12.778   6.589  0.00  0.00    -0.306 OA
BRANCH  21  22
HETATM   22  C   UNK N   1      26.074  13.133   5.445  0.00  0.00     0.294 C 
HETATM   23  O   UNK N   1      26.038  12.365   4.495  0.00  0.00    -0.262 OA
BRANCH  22  24
HETATM   24  C   UNK N   1      26.774  14.478   5.292  0.00  0.00     0.154 C 
BRANCH  24  25
HETATM   25  C   UNK N   1      26.687  15.296   6.585  0.00  0.00     0.049 C 
BRANCH  25  26
HETATM   26  C   UNK N   1      27.281  16.698   6.531  0.00  0.00     0.006 C 
BRANCH  26  27
HETATM   27  C   UNK N   1      28.249  16.822   7.703  0.00  0.00     0.037 C 
BRANCH  27  28
HETATM   28  C   UNK N   1      28.283  18.218   8.329  0.00  0.00     0.051 C 
HETATM   29  C   UNK N   1      29.696  18.570   8.749  0.00  0.00     0.045 C 
HETATM   30  C   UNK N   1      27.815  19.223   7.298  0.00  0.00     0.045 C 
BRANCH  28  31
HETATM   31  O   UNK N   1      27.437  18.293   9.438  0.00  0.00    -0.391 OA
HETATM   32  H   UNK N   1      27.066  18.848  10.142  0.00  0.00     0.210 HD
ENDBRANCH  28  31
ENDBRANCH  27  28
ENDBRANCH  26  27
ENDBRANCH  25  26
ENDBRANCH  24  25
BRANCH  24  33
HETATM   33  C   UNK N   1      28.225  14.280   4.849  0.00  0.00     0.159 C 
BRANCH  33  34
HETATM   34  C   UNK N   1      28.510  14.708   3.440  0.00  0.00     0.261 C 
HETATM   35  O   UNK N   1      28.561  13.860   2.561  0.00  0.00    -0.265 OA
BRANCH  34  36
HETATM   36  O   UNK N   1      28.709  16.015   3.150  0.00  0.00    -0.326 OA
HETATM   37  C   UNK N   1      29.872  16.668   3.489  0.00  0.00     0.213 C 
ENDBRANCH  34  36
ENDBRANCH  33  34
ENDBRANCH  24  33
BRANCH  24  38
HETATM   38  O   UNK N   1      26.107  15.210   4.303  0.00  0.00    -0.379 OA
HETATM   39  H   UNK N   1      25.625  16.004   4.025  0.00  0.00     0.211 HD
ENDBRANCH  24  38
ENDBRANCH  22  24
ENDBRANCH  21  22
ENDBRANCH  16  21
BRANCH  14  40
HETATM   40  O   UNK N   1      23.599  10.451   6.373  0.00  0.00    -0.358 OA
HETATM   41  C   UNK N   1      24.057   9.222   6.797  0.00  0.00     0.209 C 
ENDBRANCH  14  40
TORSDOF 13
ENDMDL
MODEL 7
REMARK VINA RESULT:      -7.1     12.150     16.269
REMARK  13 active torsions:
REMARK  status: ('A' for Active; 'I' for Inactive)
REMARK    1  A    between atoms: C_8  and  C_5 
REMARK    2  A    between atoms: C_10  and  C_5 
REMARK    3  A    between atoms: C_27  and  C_8 
REMARK    4  A    between atoms: C_29  and  C_10 
REMARK    5  A    between atoms: C_23  and  C_16 
REMARK    6  A    between atoms: C_29  and  C_16 
REMARK    7  A    between atoms: O_35  and  C_22 
REMARK    8  A    between atoms: O_36  and  C_23 
REMARK    9  A    between atoms: C_25  and  O_39 
REMARK   10  A    between atoms: C_29  and  C_26 
REMARK   11  A    between atoms: O_39  and  C_26 
REMARK   12  A    between atoms: O_33  and  C_27 
REMARK   13  A    between atoms: C_29  and  O_34 
ROOT
HETATM    1  C   UNK N   1      36.407  14.518  14.017  0.00  0.00     0.033 C 
HETATM    2  C   UNK N   1      34.639  10.248  13.068  0.00  0.00     0.069 C 
HETATM    3  C   UNK N   1      36.021  14.499  12.544  0.00  0.00     0.048 C 
HETATM    4  C   UNK N   1      36.242  13.075  14.480  0.00  0.00     0.274 C 
HETATM    5  C   UNK N   1      35.903  10.977  13.393  0.00  0.00     0.278 C 
HETATM    6  C   UNK N   1      33.245   9.333  11.301  0.00  0.00     0.047 A 
HETATM    7  C   UNK N   1      33.820  11.319   9.419  0.00  0.00     0.048 A 
HETATM    8  C   UNK N   1      37.505  12.767  11.823  0.00  0.00     0.050 C 
HETATM    9  C   UNK N   1      31.536   8.859   8.202  0.00  0.00     0.352 A 
HETATM   10  C   UNK N   1      34.146  10.362  11.657  0.00  0.00    -0.047 A 
HETATM   11  C   UNK N   1      34.448  11.412  10.689  0.00  0.00    -0.039 A 
HETATM   12  C   UNK N   1      32.683   9.330  10.034  0.00  0.00     0.105 A 
HETATM   13  C   UNK N   1      32.967  10.267   9.143  0.00  0.00     0.105 A 
HETATM   14  C   UNK N   1      37.668  12.742  10.511  0.00  0.00     0.074 C 
HETATM   15  C   UNK N   1      35.292  12.704  10.872  0.00  0.00     0.098 C 
HETATM   16  C   UNK N   1      36.388  12.848   9.753  0.00  0.00     0.199 C 
HETATM   17  C   UNK N   1      36.071  13.024  12.181  0.00  0.00     0.190 C 
HETATM   18  N   UNK N   1      35.581  12.380  13.385  0.00  0.00     0.103 N 
HETATM   19  O   UNK N   1      31.820   8.462   9.512  0.00  0.00    -0.323 OA
HETATM   20  O   UNK N   1      32.297  10.016   8.016  0.00  0.00    -0.323 OA
ENDROOT
BRANCH  16  21
HETATM   21  O   UNK N   1      36.347  14.096   9.151  0.00  0.00    -0.306 OA
BRANCH  21  22
HETATM   22  C   UNK N   1      36.063  14.289   7.835  0.00  0.00     0.294 C 
HETATM   23  O   UNK N   1      36.800  13.785   7.000  0.00  0.00    -0.262 OA
BRANCH  22  24
HETATM   24  C   UNK N   1      34.826  15.052   7.377  0.00  0.00     0.154 C 
BRANCH  24  25
HETATM   25  C   UNK N   1      33.972  14.201   6.430  0.00  0.00     0.049 C 
BRANCH  25  26
HETATM   26  C   UNK N   1      33.687  14.805   5.061  0.00  0.00     0.006 C 
BRANCH  26  27
HETATM   27  C   UNK N   1      32.381  15.584   5.176  0.00  0.00     0.037 C 
BRANCH  27  28
HETATM   28  C   UNK N   1      32.450  16.993   4.581  0.00  0.00     0.051 C 
HETATM   29  C   UNK N   1      32.787  16.922   3.105  0.00  0.00     0.045 C 
HETATM   30  C   UNK N   1      31.098  17.654   4.742  0.00  0.00     0.045 C 
BRANCH  28  31
HETATM   31  O   UNK N   1      33.405  17.769   5.239  0.00  0.00    -0.391 OA
HETATM   32  H   UNK N   1      33.915  17.916   6.052  0.00  0.00     0.210 HD
ENDBRANCH  28  31
ENDBRANCH  27  28
ENDBRANCH  26  27
ENDBRANCH  25  26
ENDBRANCH  24  25
BRANCH  24  33
HETATM   33  C   UNK N   1      34.017  15.536   8.582  0.00  0.00     0.159 C 
BRANCH  33  34
HETATM   34  C   UNK N   1      33.984  17.026   8.752  0.00  0.00     0.261 C 
HETATM   35  O   UNK N   1      34.789  17.555   9.506  0.00  0.00    -0.265 OA
BRANCH  34  36
HETATM   36  O   UNK N   1      33.075  17.770   8.081  0.00  0.00    -0.326 OA
HETATM   37  C   UNK N   1      31.754  17.825   8.463  0.00  0.00     0.213 C 
ENDBRANCH  34  36
ENDBRANCH  33  34
ENDBRANCH  24  33
BRANCH  24  38
HETATM   38  O   UNK N   1      35.246  16.171   6.649  0.00  0.00    -0.379 OA
HETATM   39  H   UNK N   1      35.545  16.571   5.818  0.00  0.00     0.211 HD
ENDBRANCH  24  38
ENDBRANCH  22  24
ENDBRANCH  21  22
ENDBRANCH  16  21
BRANCH  14  40
HETATM   40  O   UNK N   1      38.879  12.733   9.895  0.00  0.00    -0.358 OA
HETATM   41  C   UNK N   1      39.195  11.853   8.883  0.00  0.00     0.209 C 
ENDBRANCH  14  40
TORSDOF 13
ENDMDL
MODEL 8
REMARK VINA RESULT:      -6.9      8.658     11.001
REMARK  13 active torsions:
REMARK  status: ('A' for Active; 'I' for Inactive)
REMARK    1  A    between atoms: C_8  and  C_5 
REMARK    2  A    between atoms: C_10  and  C_5 
REMARK    3  A    between atoms: C_27  and  C_8 
REMARK    4  A    between atoms: C_29  and  C_10 
REMARK    5  A    between atoms: C_23  and  C_16 
REMARK    6  A    between atoms: C_29  and  C_16 
REMARK    7  A    between atoms: O_35  and  C_22 
REMARK    8  A    between atoms: O_36  and  C_23 
REMARK    9  A    between atoms: C_25  and  O_39 
REMARK   10  A    between atoms: C_29  and  C_26 
REMARK   11  A    between atoms: O_39  and  C_26 
REMARK   12  A    between atoms: O_33  and  C_27 
REMARK   13  A    between atoms: C_29  and  O_34 
ROOT
HETATM    1  C   UNK N   1      26.756  20.583   4.549  0.00  0.00     0.033 C 
HETATM    2  C   UNK N   1      25.855  16.255   2.902  0.00  0.00     0.069 C 
HETATM    3  C   UNK N   1      28.056  19.791   4.606  0.00  0.00     0.048 C 
HETATM    4  C   UNK N   1      25.692  19.556   4.179  0.00  0.00     0.274 C 
HETATM    5  C   UNK N   1      25.610  17.174   4.055  0.00  0.00     0.278 C 
HETATM    6  C   UNK N   1      27.218  14.442   2.031  0.00  0.00     0.047 A 
HETATM    7  C   UNK N   1      29.603  15.270   3.233  0.00  0.00     0.048 A 
HETATM    8  C   UNK N   1      27.358  18.093   6.139  0.00  0.00     0.050 C 
HETATM    9  C   UNK N   1      29.982  12.313   1.269  0.00  0.00     0.352 A 
HETATM   10  C   UNK N   1      27.202  15.597   2.845  0.00  0.00    -0.047 A 
HETATM   11  C   UNK N   1      28.441  16.048   3.471  0.00  0.00    -0.039 A 
HETATM   12  C   UNK N   1      28.407  13.750   1.860  0.00  0.00     0.105 A 
HETATM   13  C   UNK N   1      29.531  14.140   2.441  0.00  0.00     0.105 A 
HETATM   14  C   UNK N   1      28.372  17.433   6.672  0.00  0.00     0.074 C 
HETATM   15  C   UNK N   1      28.713  17.337   4.295  0.00  0.00     0.098 C 
HETATM   16  C   UNK N   1      29.397  17.015   5.674  0.00  0.00     0.199 C 
HETATM   17  C   UNK N   1      27.592  18.346   4.678  0.00  0.00     0.190 C 
HETATM   18  N   UNK N   1      26.417  18.343   3.827  0.00  0.00     0.103 N 
HETATM   19  O   UNK N   1      28.632  12.655   1.139  0.00  0.00    -0.323 OA
HETATM   20  O   UNK N   1      30.510  13.293   2.112  0.00  0.00    -0.323 OA
ENDROOT
BRANCH  16  21
HETATM   21  O   UNK N   1      30.532  17.783   5.877  0.00  0.00    -0.306 OA
BRANCH  21  22
HETATM   22  C   UNK N   1      31.796  17.339   5.642  0.00  0.00     0.294 C 
HETATM   23  O   UNK N   1      32.285  17.529   4.538  0.00  0.00    -0.262 OA
BRANCH  22  24
HETATM   24  C   UNK N   1      32.637  16.677   6.727  0.00  0.00     0.154 C 
BRANCH  24  25
HETATM   25  C   UNK N   1      33.025  17.683   7.816  0.00  0.00     0.049 C 
BRANCH  25  26
HETATM   26  C   UNK N   1      34.488  17.681   8.239  0.00  0.00     0.006 C 
BRANCH  26  27
HETATM   27  C   UNK N   1      34.552  17.069   9.634  0.00  0.00     0.037 C 
BRANCH  27  28
HETATM   28  C   UNK N   1      35.072  15.629   9.652  0.00  0.00     0.051 C 
HETATM   29  C   UNK N   1      36.286  15.522  10.554  0.00  0.00     0.045 C 
HETATM   30  C   UNK N   1      33.983  14.726  10.189  0.00  0.00     0.045 C 
BRANCH  28  31
HETATM   31  O   UNK N   1      35.411  15.202   8.367  0.00  0.00    -0.391 OA
HETATM   32  H   UNK N   1      35.902  15.387   7.550  0.00  0.00     0.210 HD
ENDBRANCH  28  31
ENDBRANCH  27  28
ENDBRANCH  26  27
ENDBRANCH  25  26
ENDBRANCH  24  25
BRANCH  24  33
HETATM   33  C   UNK N   1      31.903  15.469   7.312  0.00  0.00     0.159 C 
BRANCH  33  34
HETATM   34  C   UNK N   1      32.225  14.162   6.649  0.00  0.00     0.261 C 
HETATM   35  O   UNK N   1      31.427  13.689   5.852  0.00  0.00    -0.265 OA
BRANCH  34  36
HETATM   36  O   UNK N   1      33.381  13.519   6.931  0.00  0.00    -0.326 OA
HETATM   37  C   UNK N   1      33.877  12.522   6.122  0.00  0.00     0.213 C 
ENDBRANCH  34  36
ENDBRANCH  33  34
ENDBRANCH  24  33
BRANCH  24  38
HETATM   38  O   UNK N   1      33.829  16.229   6.146  0.00  0.00    -0.379 OA
HETATM   39  H   UNK N   1      34.632  16.404   5.629  0.00  0.00     0.211 HD
ENDBRANCH  24  38
ENDBRANCH  22  24
ENDBRANCH  21  22
ENDBRANCH  16  21
BRANCH  14  40
HETATM   40  O   UNK N   1      28.535  17.241   8.007  0.00  0.00    -0.358 OA
HETATM   41  C   UNK N   1      28.378  18.251   8.930  0.00  0.00     0.209 C 
ENDBRANCH  14  40
TORSDOF 13
ENDMDL
MODEL 9
REMARK VINA RESULT:      -6.8      5.584      7.254
REMARK  13 active torsions:
REMARK  status: ('A' for Active; 'I' for Inactive)
REMARK    1  A    between atoms: C_8  and  C_5 
REMARK    2  A    between atoms: C_10  and  C_5 
REMARK    3  A    between atoms: C_27  and  C_8 
REMARK    4  A    between atoms: C_29  and  C_10 
REMARK    5  A    between atoms: C_23  and  C_16 
REMARK    6  A    between atoms: C_29  and  C_16 
REMARK    7  A    between atoms: O_35  and  C_22 
REMARK    8  A    between atoms: O_36  and  C_23 
REMARK    9  A    between atoms: C_25  and  O_39 
REMARK   10  A    between atoms: C_29  and  C_26 
REMARK   11  A    between atoms: O_39  and  C_26 
REMARK   12  A    between atoms: O_33  and  C_27 
REMARK   13  A    between atoms: C_29  and  O_34 
ROOT
HETATM    1  C   UNK N   1      24.244  13.072   8.216  0.00  0.00     0.033 C 
HETATM    2  C   UNK N   1      20.985  15.071   5.451  0.00  0.00     0.069 C 
HETATM    3  C   UNK N   1      24.896  14.261   7.526  0.00  0.00     0.048 C 
HETATM    4  C   UNK N   1      22.883  12.932   7.545  0.00  0.00     0.274 C 
HETATM    5  C   UNK N   1      21.850  13.861   5.603  0.00  0.00     0.278 C 
HETATM    6  C   UNK N   1      20.743  17.248   4.400  0.00  0.00     0.047 A 
HETATM    7  C   UNK N   1      23.460  17.905   4.463  0.00  0.00     0.048 A 
HETATM    8  C   UNK N   1      24.679  13.509   5.266  0.00  0.00     0.050 C 
HETATM    9  C   UNK N   1      21.434  20.472   3.030  0.00  0.00     0.352 A 
HETATM   10  C   UNK N   1      21.655  16.310   4.935  0.00  0.00    -0.047 A 
HETATM   11  C   UNK N   1      23.075  16.643   4.984  0.00  0.00    -0.039 A 
HETATM   12  C   UNK N   1      21.219  18.456   3.914  0.00  0.00     0.105 A 
HETATM   13  C   UNK N   1      22.508  18.758   3.937  0.00  0.00     0.105 A 
HETATM   14  C   UNK N   1      25.465  14.164   4.428  0.00  0.00     0.074 C 
HETATM   15  C   UNK N   1      24.247  15.852   5.629  0.00  0.00     0.098 C 
HETATM   16  C   UNK N   1      25.434  15.642   4.618  0.00  0.00     0.199 C 
HETATM   17  C   UNK N   1      24.065  14.444   6.267  0.00  0.00     0.190 C 
HETATM   18  N   UNK N   1      22.725  14.119   6.716  0.00  0.00     0.103 N 
HETATM   19  O   UNK N   1      20.532  19.463   3.381  0.00  0.00    -0.323 OA
HETATM   20  O   UNK N   1      22.682  19.970   3.405  0.00  0.00    -0.323 OA
ENDROOT
BRANCH  16  21
HETATM   21  O   UNK N   1      26.648  16.030   5.163  0.00  0.00    -0.306 OA
BRANCH  21  22
HETATM   22  C   UNK N   1      27.385  17.073   4.695  0.00  0.00     0.294 C 
HETATM   23  O   UNK N   1      27.471  17.230   3.487  0.00  0.00    -0.262 OA
BRANCH  22  24
HETATM   24  C   UNK N   1      28.042  18.083   5.628  0.00  0.00     0.154 C 
BRANCH  24  25
HETATM   25  C   UNK N   1      29.318  17.508   6.255  0.00  0.00     0.049 C 
BRANCH  25  26
HETATM   26  C   UNK N   1      30.511  17.353   5.320  0.00  0.00     0.006 C 
BRANCH  26  27
HETATM   27  C   UNK N   1      31.741  17.132   6.194  0.00  0.00     0.037 C 
BRANCH  27  28
HETATM   28  C   UNK N   1      33.052  17.064   5.407  0.00  0.00     0.051 C 
HETATM   29  C   UNK N   1      33.567  15.639   5.370  0.00  0.00     0.045 C 
HETATM   30  C   UNK N   1      32.791  17.525   3.989  0.00  0.00     0.045 C 
BRANCH  28  31
HETATM   31  O   UNK N   1      34.022  17.894   5.972  0.00  0.00    -0.391 OA
HETATM   32  H   UNK N   1      34.804  17.959   6.543  0.00  0.00     0.210 HD
ENDBRANCH  28  31
ENDBRANCH  27  28
ENDBRANCH  26  27
ENDBRANCH  25  26
ENDBRANCH  24  25
BRANCH  24  33
HETATM   33  C   UNK N   1      28.321  19.394   4.890  0.00  0.00     0.159 C 
BRANCH  33  34
HETATM   34  C   UNK N   1      27.310  20.475   5.136  0.00  0.00     0.261 C 
HETATM   35  O   UNK N   1      27.566  21.353   5.947  0.00  0.00    -0.265 OA
BRANCH  34  36
HETATM   36  O   UNK N   1      26.133  20.474   4.467  0.00  0.00    -0.326 OA
HETATM   37  C   UNK N   1      26.076  20.477   3.093  0.00  0.00     0.213 C 
ENDBRANCH  34  36
ENDBRANCH  33  34
ENDBRANCH  24  33
BRANCH  24  38
HETATM   38  O   UNK N   1      27.159  18.349   6.680  0.00  0.00    -0.379 OA
HETATM   39  H   UNK N   1      26.603  18.970   7.177  0.00  0.00     0.211 HD
ENDBRANCH  24  38
ENDBRANCH  22  24
ENDBRANCH  21  22
ENDBRANCH  16  21
BRANCH  14  40
HETATM   40  O   UNK N   1      26.307  13.561   3.548  0.00  0.00    -0.358 OA
HETATM   41  C   UNK N   1      26.299  12.203   3.319  0.00  0.00     0.209 C 
ENDBRANCH  14  40
TORSDOF 13
ENDMDL
