REMARK  7 active torsions:
REMARK  status: ('A' for Active; 'I' for Inactive)
REMARK    1  A    between atoms: O_1  and  C_21 
REMARK    2  A    between atoms: O_3  and  C_31 
REMARK    3  A    between atoms: O_4  and  C_42 
REMARK    4  A    between atoms: C_11  and  C_21 
REMARK    5  A    between atoms: C_13  and  C_19 
REMARK    6  A    between atoms: C_28  and  C_29 
REMARK    7  A    between atoms: C_33  and  C_42 
ROOT
HETATM    1  N   UNK N   1       9.453   4.509  -0.123  0.00  0.00     0.095 N 
HETATM    2  N   UNK N   1       7.597   1.200   1.836  0.00  0.00    -0.357 N 
HETATM    3  C   UNK N   1      10.059   4.011   1.157  0.00  0.00     0.251 C 
HETATM    4  C   UNK N   1       9.551   2.576   1.526  0.00  0.00     0.122 C 
HETATM    5  C   UNK N   1      10.481   2.402  -0.877  0.00  0.00     0.016 C 
HETATM    6  C   UNK N   1      11.581   3.890   0.866  0.00  0.00     0.021 C 
HETATM    7  C   UNK N   1       9.725   1.697   0.236  0.00  0.00     0.035 C 
HETATM    8  C   UNK N   1      11.815   2.902  -0.307  0.00  0.00     0.013 C 
HETATM    9  C   UNK N   1       9.640   3.607  -1.272  0.00  0.00     0.277 C 
HETATM   10  C   UNK N   1       8.079   2.448   1.785  0.00  0.00     0.038 C 
HETATM   11  C   UNK N   1       8.094   5.042  -0.184  0.00  0.00     0.277 C 
HETATM   12  C   UNK N   1       7.105   3.329   1.304  0.00  0.00    -0.020 C 
HETATM   13  C   UNK N   1       7.253   4.779   1.030  0.00  0.00     0.072 C 
HETATM   14  C   UNK N   1       6.110   2.512   0.824  0.00  0.00     0.002 C 
HETATM   15  C   UNK N   1       6.448   1.260   1.215  0.00  0.00     0.044 C 
HETATM   16  C   UNK N   1       5.094   2.737  -0.109  0.00  0.00     0.051 C 
HETATM   17  C   UNK N   1       5.886   0.177   0.701  0.00  0.00     0.041 C 
HETATM   18  C   UNK N   1       4.971   0.288  -0.343  0.00  0.00    -0.013 C 
HETATM   19  C   UNK N   1       4.519   1.585  -0.743  0.00  0.00     0.076 C 
HETATM   20  H   UNK N   1       8.016   0.411   2.249  0.00  0.00     0.166 HD
ENDROOT
BRANCH  18  21
HETATM   21  C   UNK N   1       4.552  -1.035  -0.934  0.00  0.00     0.072 C 
HETATM   22  C   UNK N   1       3.911  -1.590   0.299  0.00  0.00     0.025 C 
HETATM   23  C   UNK N   1       2.549  -2.097   0.392  0.00  0.00     0.033 C 
HETATM   24  C   UNK N   1       2.791  -3.557   0.757  0.00  0.00     0.127 C 
HETATM   25  C   UNK N   1       1.680  -1.956  -0.840  0.00  0.00    -0.051 C 
HETATM   26  C   UNK N   1       3.112  -4.418  -0.512  0.00  0.00     0.241 C 
HETATM   27  N   UNK N   1       1.996  -4.256  -1.473  0.00  0.00     0.093 N 
HETATM   28  C   UNK N   1       4.493  -4.300  -1.260  0.00  0.00     0.078 C 
HETATM   29  C   UNK N   1       1.950  -2.884  -1.983  0.00  0.00     0.306 C 
HETATM   30  C   UNK N   1       2.118  -5.170  -2.602  0.00  0.00     0.310 C 
HETATM   31  C   UNK N   1       5.687  -3.379  -1.079  0.00  0.00    -0.020 A 
HETATM   32  C   UNK N   1       5.749  -1.977  -1.085  0.00  0.00     0.025 A 
HETATM   33  C   UNK N   1       6.990  -3.795  -0.851  0.00  0.00    -0.001 A 
HETATM   34  N   UNK N   1       7.037  -1.565  -0.929  0.00  0.00    -0.358 N 
HETATM   35  C   UNK N   1       7.772  -2.674  -0.773  0.00  0.00     0.043 A 
HETATM   36  H   UNK N   1       7.365  -0.637  -0.931  0.00  0.00     0.166 HD
HETATM   37  C   UNK N   1       9.133  -2.729  -0.485  0.00  0.00     0.030 A 
HETATM   38  C   UNK N   1       9.705  -3.994  -0.271  0.00  0.00     0.002 A 
HETATM   39  C   UNK N   1       8.909  -5.159  -0.360  0.00  0.00     0.001 A 
HETATM   40  C   UNK N   1       7.533  -5.067  -0.660  0.00  0.00     0.014 A 
HETATM   41  C   UNK N   1       0.652  -1.096  -0.918  0.00  0.00    -0.026 C 
HETATM   42  C   UNK N   1       0.298  -0.138   0.177  0.00  0.00     0.036 C 
BRANCH  24  43
HETATM   43  C   UNK N   1       1.614  -4.031   1.573  0.00  0.00     0.265 C 
HETATM   44  O   UNK N   1       0.915  -4.957   1.188  0.00  0.00    -0.265 OA
BRANCH  43  45
HETATM   45  O   UNK N   1       1.347  -3.403   2.747  0.00  0.00    -0.326 OA
HETATM   46  C   UNK N   1       0.294  -3.752   3.557  0.00  0.00     0.213 C 
ENDBRANCH  43  45
ENDBRANCH  24  43
ENDBRANCH  18  21
BRANCH  19  47
HETATM   47  O   UNK N   1       3.599   1.707  -1.726  0.00  0.00    -0.355 OA
HETATM   48  C   UNK N   1       3.155   2.925  -2.191  0.00  0.00     0.210 C 
ENDBRANCH  19  47
BRANCH   4  49
HETATM   49  C   UNK N   1      10.346   1.824   2.592  0.00  0.00     0.275 C 
HETATM   50  O   UNK N   1       9.890   1.686   3.720  0.00  0.00    -0.264 OA
BRANCH  49  51
HETATM   51  O   UNK N   1      11.432   1.099   2.204  0.00  0.00    -0.326 OA
HETATM   52  C   UNK N   1      11.988   0.104   2.972  0.00  0.00     0.213 C 
ENDBRANCH  49  51
ENDBRANCH   4  49
BRANCH   6  53
HETATM   53  C   UNK N   1      12.195   5.231   0.481  0.00  0.00     0.002 C 
HETATM   54  C   UNK N   1      12.097   6.231   1.615  0.00  0.00     0.005 C 
ENDBRANCH   6  53
TORSDOF 7
