MODEL 1
REMARK VINA RESULT:      -5.5      0.000      0.000
REMARK  6 active torsions:
REMARK  status: ('A' for Active; 'I' for Inactive)
REMARK       I    between atoms: N_2  and  C_9 
REMARK    1  A    between atoms: N_2  and  C_12 
REMARK    2  A    between atoms: N_2  and  C_13 
REMARK    3  A    between atoms: N_3  and  C_7 
REMARK    4  A    between atoms: C_4  and  C_8 
REMARK    5  A    between atoms: C_4  and  C_9 
REMARK    6  A    between atoms: C_5  and  C_7 
ROOT
HETATM    1  C   UNK N   1      26.645  25.375  -4.718  0.00  0.00     0.073 A 
HETATM    2  C   UNK N   1      26.288  24.823  -6.119  0.00  0.00     0.027 A 
HETATM    3  C   UNK N   1      25.233  24.902  -5.030  0.00  0.00     0.032 A 
ENDROOT
BRANCH   1   4
HETATM    4  C   UNK N   1      26.740  26.902  -4.710  0.00  0.00    -0.040 A 
HETATM    5  C   UNK N   1      26.123  27.644  -3.680  0.00  0.00     0.008 A 
HETATM    6  C   UNK N   1      26.215  29.037  -3.640  0.00  0.00     0.001 A 
HETATM    7  C   UNK N   1      26.930  29.715  -4.627  0.00  0.00     0.000 A 
HETATM    8  C   UNK N   1      27.537  28.999  -5.659  0.00  0.00     0.001 A 
HETATM    9  C   UNK N   1      27.436  27.605  -5.701  0.00  0.00     0.008 A 
ENDBRANCH   1   4
BRANCH   1  10
HETATM   10  C   UNK N   1      27.304  24.437  -3.673  0.00  0.00     0.233 C 
HETATM   11  O   UNK N   1      26.570  23.892  -2.868  0.00  0.00    -0.272 OA
HETATM   12  N   UNK N   1      28.663  24.222  -3.582  0.00  0.00    -0.352 N 
BRANCH  12  13
HETATM   13  C   UNK N   1      29.596  24.781  -4.535  0.00  0.00     0.121 C 
HETATM   14  C   UNK N   1      30.329  25.975  -3.916  0.00  0.00     0.026 C 
ENDBRANCH  12  13
BRANCH  12  15
HETATM   15  C   UNK N   1      29.152  23.392  -2.474  0.00  0.00     0.121 C 
HETATM   16  C   UNK N   1      30.234  22.385  -2.855  0.00  0.00     0.026 C 
ENDBRANCH  12  15
ENDBRANCH   1  10
BRANCH   2  17
HETATM   17  C   UNK N   1      26.587  23.363  -6.409  0.00  0.00     0.117 C 
BRANCH  17  18
HETATM   18  N   UNK N   1      25.336  22.652  -6.607  0.00  0.00    -0.430 N 
HETATM   19  H   UNK N   1      25.127  21.822  -6.053  0.00  0.00     0.149 HD
HETATM   20  H   UNK N   1      24.667  22.984  -7.302  0.00  0.00     0.149 HD
ENDBRANCH  17  18
ENDBRANCH   2  17
TORSDOF 6
ENDMDL
MODEL 2
REMARK VINA RESULT:      -5.4     27.007     30.132
REMARK  6 active torsions:
REMARK  status: ('A' for Active; 'I' for Inactive)
REMARK       I    between atoms: N_2  and  C_9 
REMARK    1  A    between atoms: N_2  and  C_12 
REMARK    2  A    between atoms: N_2  and  C_13 
REMARK    3  A    between atoms: N_3  and  C_7 
REMARK    4  A    between atoms: C_4  and  C_8 
REMARK    5  A    between atoms: C_4  and  C_9 
REMARK    6  A    between atoms: C_5  and  C_7 
ROOT
HETATM    1  C   UNK N   1      35.678  10.119  19.970  0.00  0.00     0.073 A 
HETATM    2  C   UNK N   1      36.821  10.343  20.988  0.00  0.00     0.027 A 
HETATM    3  C   UNK N   1      37.014   9.414  19.803  0.00  0.00     0.032 A 
ENDROOT
BRANCH   1   4
HETATM    4  C   UNK N   1      35.534  11.294  19.001  0.00  0.00    -0.040 A 
HETATM    5  C   UNK N   1      35.640  11.081  17.609  0.00  0.00     0.008 A 
HETATM    6  C   UNK N   1      35.491  12.134  16.704  0.00  0.00     0.001 A 
HETATM    7  C   UNK N   1      35.228  13.421  17.173  0.00  0.00     0.000 A 
HETATM    8  C   UNK N   1      35.130  13.653  18.545  0.00  0.00     0.001 A 
HETATM    9  C   UNK N   1      35.289  12.597  19.449  0.00  0.00     0.008 A 
ENDBRANCH   1   4
BRANCH   1  10
HETATM   10  C   UNK N   1      34.565   9.087  20.288  0.00  0.00     0.233 C 
HETATM   11  O   UNK N   1      34.664   7.983  19.782  0.00  0.00    -0.272 OA
HETATM   12  N   UNK N   1      33.461   9.361  21.067  0.00  0.00    -0.352 N 
BRANCH  12  13
HETATM   13  C   UNK N   1      33.298  10.624  21.753  0.00  0.00     0.121 C 
HETATM   14  C   UNK N   1      32.874  10.384  23.205  0.00  0.00     0.026 C 
ENDBRANCH  12  13
BRANCH  12  15
HETATM   15  C   UNK N   1      32.435   8.318  21.193  0.00  0.00     0.121 C 
HETATM   16  C   UNK N   1      31.224   8.496  20.281  0.00  0.00     0.026 C 
ENDBRANCH  12  15
ENDBRANCH   1  10
BRANCH   2  17
HETATM   17  C   UNK N   1      36.814   9.520  22.264  0.00  0.00     0.117 C 
BRANCH  17  18
HETATM   18  N   UNK N   1      37.242  10.356  23.372  0.00  0.00    -0.430 N 
HETATM   19  H   UNK N   1      36.826  10.234  24.294  0.00  0.00     0.149 HD
HETATM   20  H   UNK N   1      37.960  11.066  23.225  0.00  0.00     0.149 HD
ENDBRANCH  17  18
ENDBRANCH   2  17
TORSDOF 6
ENDMDL
MODEL 3
REMARK VINA RESULT:      -5.2     13.139     15.073
REMARK  6 active torsions:
REMARK  status: ('A' for Active; 'I' for Inactive)
REMARK       I    between atoms: N_2  and  C_9 
REMARK    1  A    between atoms: N_2  and  C_12 
REMARK    2  A    between atoms: N_2  and  C_13 
REMARK    3  A    between atoms: N_3  and  C_7 
REMARK    4  A    between atoms: C_4  and  C_8 
REMARK    5  A    between atoms: C_4  and  C_9 
REMARK    6  A    between atoms: C_5  and  C_7 
ROOT
HETATM    1  C   UNK N   1      31.244  16.700   6.231  0.00  0.00     0.073 A 
HETATM    2  C   UNK N   1      31.175  17.512   4.917  0.00  0.00     0.027 A 
HETATM    3  C   UNK N   1      30.444  16.188   5.044  0.00  0.00     0.032 A 
ENDROOT
BRANCH   1   4
HETATM    4  C   UNK N   1      30.336  17.284   7.315  0.00  0.00    -0.040 A 
HETATM    5  C   UNK N   1      28.940  17.075   7.258  0.00  0.00     0.008 A 
HETATM    6  C   UNK N   1      28.094  17.580   8.247  0.00  0.00     0.001 A 
HETATM    7  C   UNK N   1      28.627  18.299   9.316  0.00  0.00     0.000 A 
HETATM    8  C   UNK N   1      30.002  18.524   9.385  0.00  0.00     0.001 A 
HETATM    9  C   UNK N   1      30.846  18.025   8.387  0.00  0.00     0.008 A 
ENDBRANCH   1   4
BRANCH   1  10
HETATM   10  C   UNK N   1      32.461  15.774   6.494  0.00  0.00     0.233 C 
HETATM   11  O   UNK N   1      32.288  14.574   6.377  0.00  0.00    -0.272 OA
HETATM   12  N   UNK N   1      33.702  16.229   6.888  0.00  0.00    -0.352 N 
BRANCH  12  13
HETATM   13  C   UNK N   1      34.007  17.640   6.990  0.00  0.00     0.121 C 
HETATM   14  C   UNK N   1      34.507  17.969   8.400  0.00  0.00     0.026 C 
ENDBRANCH  12  13
BRANCH  12  15
HETATM   15  C   UNK N   1      34.729  15.229   7.204  0.00  0.00     0.121 C 
HETATM   16  C   UNK N   1      35.716  14.944   6.075  0.00  0.00     0.026 C 
ENDBRANCH  12  15
ENDBRANCH   1  10
BRANCH   2  17
HETATM   17  C   UNK N   1      32.308  17.355   3.919  0.00  0.00     0.117 C 
BRANCH  17  18
HETATM   18  N   UNK N   1      31.751  17.224   2.583  0.00  0.00    -0.430 N 
HETATM   19  H   UNK N   1      31.922  16.380   2.039  0.00  0.00     0.149 HD
HETATM   20  H   UNK N   1      31.188  17.979   2.191  0.00  0.00     0.149 HD
ENDBRANCH  17  18
ENDBRANCH   2  17
TORSDOF 6
ENDMDL
MODEL 4
REMARK VINA RESULT:      -5.2      1.573      2.172
REMARK  6 active torsions:
REMARK  status: ('A' for Active; 'I' for Inactive)
REMARK       I    between atoms: N_2  and  C_9 
REMARK    1  A    between atoms: N_2  and  C_12 
REMARK    2  A    between atoms: N_2  and  C_13 
REMARK    3  A    between atoms: N_3  and  C_7 
REMARK    4  A    between atoms: C_4  and  C_8 
REMARK    5  A    between atoms: C_4  and  C_9 
REMARK    6  A    between atoms: C_5  and  C_7 
ROOT
HETATM    1  C   UNK N   1      26.328  26.767  -5.297  0.00  0.00     0.073 A 
HETATM    2  C   UNK N   1      25.759  26.588  -6.724  0.00  0.00     0.027 A 
HETATM    3  C   UNK N   1      24.832  26.620  -5.523  0.00  0.00     0.032 A 
ENDROOT
BRANCH   1   4
HETATM    4  C   UNK N   1      26.716  28.219  -5.012  0.00  0.00    -0.040 A 
HETATM    5  C   UNK N   1      27.677  28.867  -5.819  0.00  0.00     0.008 A 
HETATM    6  C   UNK N   1      28.032  30.198  -5.592  0.00  0.00     0.001 A 
HETATM    7  C   UNK N   1      27.429  30.910  -4.555  0.00  0.00     0.000 A 
HETATM    8  C   UNK N   1      26.486  30.284  -3.740  0.00  0.00     0.001 A 
HETATM    9  C   UNK N   1      26.140  28.948  -3.965  0.00  0.00     0.008 A 
ENDBRANCH   1   4
BRANCH   1  10
HETATM   10  C   UNK N   1      26.877  25.533  -4.534  0.00  0.00     0.233 C 
HETATM   11  O   UNK N   1      26.132  24.992  -3.736  0.00  0.00    -0.272 OA
HETATM   12  N   UNK N   1      28.159  25.049  -4.677  0.00  0.00    -0.352 N 
BRANCH  12  13
HETATM   13  C   UNK N   1      29.084  25.595  -5.646  0.00  0.00     0.121 C 
HETATM   14  C   UNK N   1      29.324  24.585  -6.772  0.00  0.00     0.026 C 
ENDBRANCH  12  13
BRANCH  12  15
HETATM   15  C   UNK N   1      28.573  23.939  -3.810  0.00  0.00     0.121 C 
HETATM   16  C   UNK N   1      29.946  24.106  -3.163  0.00  0.00     0.026 C 
ENDBRANCH  12  15
ENDBRANCH   1  10
BRANCH   2  17
HETATM   17  C   UNK N   1      25.746  25.192  -7.319  0.00  0.00     0.117 C 
BRANCH  17  18
HETATM   18  N   UNK N   1      26.199  25.258  -8.698  0.00  0.00    -0.430 N 
HETATM   19  H   UNK N   1      25.731  25.876  -9.360  0.00  0.00     0.149 HD
HETATM   20  H   UNK N   1      26.985  24.684  -9.003  0.00  0.00     0.149 HD
ENDBRANCH  17  18
ENDBRANCH   2  17
TORSDOF 6
ENDMDL
MODEL 5
REMARK VINA RESULT:      -5.1     10.667     13.728
REMARK  6 active torsions:
REMARK  status: ('A' for Active; 'I' for Inactive)
REMARK       I    between atoms: N_2  and  C_9 
REMARK    1  A    between atoms: N_2  and  C_12 
REMARK    2  A    between atoms: N_2  and  C_13 
REMARK    3  A    between atoms: N_3  and  C_7 
REMARK    4  A    between atoms: C_4  and  C_8 
REMARK    5  A    between atoms: C_4  and  C_9 
REMARK    6  A    between atoms: C_5  and  C_7 
ROOT
HETATM    1  C   UNK N   1      27.865  17.296   5.889  0.00  0.00     0.073 A 
HETATM    2  C   UNK N   1      26.763  16.321   6.368  0.00  0.00     0.027 A 
HETATM    3  C   UNK N   1      27.897  15.830   5.487  0.00  0.00     0.032 A 
ENDROOT
BRANCH   1   4
HETATM    4  C   UNK N   1      28.879  17.602   6.993  0.00  0.00    -0.040 A 
HETATM    5  C   UNK N   1      30.226  17.202   6.847  0.00  0.00     0.008 A 
HETATM    6  C   UNK N   1      31.174  17.489   7.831  0.00  0.00     0.001 A 
HETATM    7  C   UNK N   1      30.796  18.185   8.979  0.00  0.00     0.000 A 
HETATM    8  C   UNK N   1      29.467  18.580   9.145  0.00  0.00     0.001 A 
HETATM    9  C   UNK N   1      28.519  18.282   8.161  0.00  0.00     0.008 A 
ENDBRANCH   1   4
BRANCH   1  10
HETATM   10  C   UNK N   1      27.608  18.186   4.645  0.00  0.00     0.233 C 
HETATM   11  O   UNK N   1      28.004  17.772   3.569  0.00  0.00    -0.272 OA
HETATM   12  N   UNK N   1      27.003  19.423   4.696  0.00  0.00    -0.352 N 
BRANCH  12  13
HETATM   13  C   UNK N   1      26.451  19.959   5.921  0.00  0.00     0.121 C 
HETATM   14  C   UNK N   1      27.149  21.274   6.282  0.00  0.00     0.026 C 
ENDBRANCH  12  13
BRANCH  12  15
HETATM   15  C   UNK N   1      26.924  20.199   3.452  0.00  0.00     0.121 C 
HETATM   16  C   UNK N   1      25.516  20.363   2.885  0.00  0.00     0.026 C 
ENDBRANCH  12  15
ENDBRANCH   1  10
BRANCH   2  17
HETATM   17  C   UNK N   1      25.467  16.264   5.579  0.00  0.00     0.117 C 
BRANCH  17  18
HETATM   18  N   UNK N   1      24.405  15.779   6.443  0.00  0.00    -0.430 N 
HETATM   19  H   UNK N   1      24.489  14.869   6.895  0.00  0.00     0.149 HD
HETATM   20  H   UNK N   1      23.573  16.350   6.596  0.00  0.00     0.149 HD
ENDBRANCH  17  18
ENDBRANCH   2  17
TORSDOF 6
ENDMDL
MODEL 6
REMARK VINA RESULT:      -5.0     13.004     15.765
REMARK  6 active torsions:
REMARK  status: ('A' for Active; 'I' for Inactive)
REMARK       I    between atoms: N_2  and  C_9 
REMARK    1  A    between atoms: N_2  and  C_12 
REMARK    2  A    between atoms: N_2  and  C_13 
REMARK    3  A    between atoms: N_3  and  C_7 
REMARK    4  A    between atoms: C_4  and  C_8 
REMARK    5  A    between atoms: C_4  and  C_9 
REMARK    6  A    between atoms: C_5  and  C_7 
ROOT
HETATM    1  C   UNK N   1      32.386  17.109   7.534  0.00  0.00     0.073 A 
HETATM    2  C   UNK N   1      33.080  16.280   8.641  0.00  0.00     0.027 A 
HETATM    3  C   UNK N   1      33.394  17.756   8.471  0.00  0.00     0.032 A 
ENDROOT
BRANCH   1   4
HETATM    4  C   UNK N   1      30.949  17.477   7.908  0.00  0.00    -0.040 A 
HETATM    5  C   UNK N   1      30.698  18.307   9.022  0.00  0.00     0.008 A 
HETATM    6  C   UNK N   1      29.396  18.674   9.370  0.00  0.00     0.001 A 
HETATM    7  C   UNK N   1      28.320  18.221   8.608  0.00  0.00     0.000 A 
HETATM    8  C   UNK N   1      28.547  17.392   7.509  0.00  0.00     0.001 A 
HETATM    9  C   UNK N   1      29.852  17.019   7.169  0.00  0.00     0.008 A 
ENDBRANCH   1   4
BRANCH   1  10
HETATM   10  C   UNK N   1      32.948  17.073   6.088  0.00  0.00     0.233 C 
HETATM   11  O   UNK N   1      33.670  17.993   5.745  0.00  0.00    -0.272 OA
HETATM   12  N   UNK N   1      32.644  16.091   5.169  0.00  0.00    -0.352 N 
BRANCH  12  13
HETATM   13  C   UNK N   1      31.846  14.935   5.514  0.00  0.00     0.121 C 
HETATM   14  C   UNK N   1      32.703  13.668   5.457  0.00  0.00     0.026 C 
ENDBRANCH  12  13
BRANCH  12  15
HETATM   15  C   UNK N   1      33.164  16.246   3.805  0.00  0.00     0.121 C 
HETATM   16  C   UNK N   1      32.211  16.933   2.829  0.00  0.00     0.026 C 
ENDBRANCH  12  15
ENDBRANCH   1  10
BRANCH   2  17
HETATM   17  C   UNK N   1      34.307  15.470   8.264  0.00  0.00     0.117 C 
BRANCH  17  18
HETATM   18  N   UNK N   1      35.265  15.522   9.355  0.00  0.00    -0.430 N 
HETATM   19  H   UNK N   1      35.470  14.682   9.895  0.00  0.00     0.149 HD
HETATM   20  H   UNK N   1      35.732  16.401   9.580  0.00  0.00     0.149 HD
ENDBRANCH  17  18
ENDBRANCH   2  17
TORSDOF 6
ENDMDL
MODEL 7
REMARK VINA RESULT:      -5.0     21.645     24.536
REMARK  6 active torsions:
REMARK  status: ('A' for Active; 'I' for Inactive)
REMARK       I    between atoms: N_2  and  C_9 
REMARK    1  A    between atoms: N_2  and  C_12 
REMARK    2  A    between atoms: N_2  and  C_13 
REMARK    3  A    between atoms: N_3  and  C_7 
REMARK    4  A    between atoms: C_4  and  C_8 
REMARK    5  A    between atoms: C_4  and  C_9 
REMARK    6  A    between atoms: C_5  and  C_7 
ROOT
HETATM    1  C   UNK N   1      36.017  12.430  14.832  0.00  0.00     0.073 A 
HETATM    2  C   UNK N   1      34.670  11.678  14.947  0.00  0.00     0.027 A 
HETATM    3  C   UNK N   1      35.953  11.045  15.457  0.00  0.00     0.032 A 
ENDROOT
BRANCH   1   4
HETATM    4  C   UNK N   1      36.156  13.523  15.893  0.00  0.00    -0.040 A 
HETATM    5  C   UNK N   1      37.063  14.588  15.699  0.00  0.00     0.008 A 
HETATM    6  C   UNK N   1      37.192  15.608  16.644  0.00  0.00     0.001 A 
HETATM    7  C   UNK N   1      36.412  15.587  17.800  0.00  0.00     0.000 A 
HETATM    8  C   UNK N   1      35.518  14.537  18.014  0.00  0.00     0.001 A 
HETATM    9  C   UNK N   1      35.399  13.512  17.070  0.00  0.00     0.008 A 
ENDBRANCH   1   4
BRANCH   1  10
HETATM   10  C   UNK N   1      36.809  12.379  13.499  0.00  0.00     0.233 C 
HETATM   11  O   UNK N   1      37.746  11.602  13.434  0.00  0.00    -0.272 OA
HETATM   12  N   UNK N   1      36.539  13.184  12.413  0.00  0.00    -0.352 N 
BRANCH  12  13
HETATM   13  C   UNK N   1      35.409  14.087  12.387  0.00  0.00     0.121 C 
HETATM   14  C   UNK N   1      35.856  15.476  11.919  0.00  0.00     0.026 C 
ENDBRANCH  12  13
BRANCH  12  15
HETATM   15  C   UNK N   1      37.441  13.100  11.257  0.00  0.00     0.121 C 
HETATM   16  C   UNK N   1      36.882  12.333  10.062  0.00  0.00     0.026 C 
ENDBRANCH  12  15
ENDBRANCH   1  10
BRANCH   2  17
HETATM   17  C   UNK N   1      34.183  10.897  13.740  0.00  0.00     0.117 C 
BRANCH  17  18
HETATM   18  N   UNK N   1      34.700   9.541  13.810  0.00  0.00    -0.430 N 
HETATM   19  H   UNK N   1      35.308   9.265  14.580  0.00  0.00     0.149 HD
HETATM   20  H   UNK N   1      34.455   8.865  13.087  0.00  0.00     0.149 HD
ENDBRANCH  17  18
ENDBRANCH   2  17
TORSDOF 6
ENDMDL
MODEL 8
REMARK VINA RESULT:      -5.0     16.331     18.671
REMARK  6 active torsions:
REMARK  status: ('A' for Active; 'I' for Inactive)
REMARK       I    between atoms: N_2  and  C_9 
REMARK    1  A    between atoms: N_2  and  C_12 
REMARK    2  A    between atoms: N_2  and  C_13 
REMARK    3  A    between atoms: N_3  and  C_7 
REMARK    4  A    between atoms: C_4  and  C_8 
REMARK    5  A    between atoms: C_4  and  C_9 
REMARK    6  A    between atoms: C_5  and  C_7 
ROOT
HETATM    1  C   UNK N   1      21.482  13.982   8.709  0.00  0.00     0.073 A 
HETATM    2  C   UNK N   1      21.089  15.388   9.223  0.00  0.00     0.027 A 
HETATM    3  C   UNK N   1      20.139  14.214   9.383  0.00  0.00     0.032 A 
ENDROOT
BRANCH   1   4
HETATM    4  C   UNK N   1      22.471  13.285   9.646  0.00  0.00    -0.040 A 
HETATM    5  C   UNK N   1      22.005  12.635  10.810  0.00  0.00     0.008 A 
HETATM    6  C   UNK N   1      22.886  11.973  11.668  0.00  0.00     0.001 A 
HETATM    7  C   UNK N   1      24.249  11.944  11.377  0.00  0.00     0.000 A 
HETATM    8  C   UNK N   1      24.729  12.590  10.237  0.00  0.00     0.001 A 
HETATM    9  C   UNK N   1      23.845  13.259   9.385  0.00  0.00     0.008 A 
ENDBRANCH   1   4
BRANCH   1  10
HETATM   10  C   UNK N   1      21.276  13.632   7.212  0.00  0.00     0.233 C 
HETATM   11  O   UNK N   1      20.293  12.973   6.922  0.00  0.00    -0.272 OA
HETATM   12  N   UNK N   1      22.157  13.984   6.212  0.00  0.00    -0.352 N 
BRANCH  12  13
HETATM   13  C   UNK N   1      23.314  14.816   6.463  0.00  0.00     0.121 C 
HETATM   14  C   UNK N   1      23.189  16.136   5.697  0.00  0.00     0.026 C 
ENDBRANCH  12  13
BRANCH  12  15
HETATM   15  C   UNK N   1      21.886  13.491   4.856  0.00  0.00     0.121 C 
HETATM   16  C   UNK N   1      22.876  12.449   4.342  0.00  0.00     0.026 C 
ENDBRANCH  12  15
ENDBRANCH   1  10
BRANCH   2  17
HETATM   17  C   UNK N   1      20.495  16.371   8.231  0.00  0.00     0.117 C 
BRANCH  17  18
HETATM   18  N   UNK N   1      19.279  16.936   8.792  0.00  0.00    -0.430 N 
HETATM   19  H   UNK N   1      19.068  17.924   8.661  0.00  0.00     0.149 HD
HETATM   20  H   UNK N   1      18.638  16.342   9.317  0.00  0.00     0.149 HD
ENDBRANCH  17  18
ENDBRANCH   2  17
TORSDOF 6
ENDMDL
MODEL 9
REMARK VINA RESULT:      -4.9     23.664     26.089
REMARK  6 active torsions:
REMARK  status: ('A' for Active; 'I' for Inactive)
REMARK       I    between atoms: N_2  and  C_9 
REMARK    1  A    between atoms: N_2  and  C_12 
REMARK    2  A    between atoms: N_2  and  C_13 
REMARK    3  A    between atoms: N_3  and  C_7 
REMARK    4  A    between atoms: C_4  and  C_8 
REMARK    5  A    between atoms: C_4  and  C_9 
REMARK    6  A    between atoms: C_5  and  C_7 
ROOT
HETATM    1  C   UNK N   1      35.045  10.943  15.252  0.00  0.00     0.073 A 
HETATM    2  C   UNK N   1      34.287  11.742  14.166  0.00  0.00     0.027 A 
HETATM    3  C   UNK N   1      33.613  10.586  14.886  0.00  0.00     0.032 A 
ENDROOT
BRANCH   1   4
HETATM    4  C   UNK N   1      35.117  11.702  16.578  0.00  0.00    -0.040 A 
HETATM    5  C   UNK N   1      35.229  10.994  17.795  0.00  0.00     0.008 A 
HETATM    6  C   UNK N   1      35.317  11.666  19.016  0.00  0.00     0.001 A 
HETATM    7  C   UNK N   1      35.301  13.060  19.044  0.00  0.00     0.000 A 
HETATM    8  C   UNK N   1      35.180  13.777  17.853  0.00  0.00     0.001 A 
HETATM    9  C   UNK N   1      35.083  13.100  16.633  0.00  0.00     0.008 A 
ENDBRANCH   1   4
BRANCH   1  10
HETATM   10  C   UNK N   1      36.005   9.800  14.828  0.00  0.00     0.233 C 
HETATM   11  O   UNK N   1      35.569   8.663  14.856  0.00  0.00    -0.272 OA
HETATM   12  N   UNK N   1      37.321   9.996  14.467  0.00  0.00    -0.352 N 
BRANCH  12  13
HETATM   13  C   UNK N   1      37.899  11.317  14.350  0.00  0.00     0.121 C 
HETATM   14  C   UNK N   1      37.885  11.770  12.887  0.00  0.00     0.026 C 
ENDBRANCH  12  13
BRANCH  12  15
HETATM   15  C   UNK N   1      38.140   8.809  14.194  0.00  0.00     0.121 C 
HETATM   16  C   UNK N   1      39.554   8.857  14.769  0.00  0.00     0.026 C 
ENDBRANCH  12  15
ENDBRANCH   1  10
BRANCH   2  17
HETATM   17  C   UNK N   1      34.503  11.357  12.714  0.00  0.00     0.117 C 
BRANCH  17  18
HETATM   18  N   UNK N   1      34.526  12.562  11.901  0.00  0.00    -0.430 N 
HETATM   19  H   UNK N   1      34.781  13.456  12.320  0.00  0.00     0.149 HD
HETATM   20  H   UNK N   1      34.287  12.511  10.911  0.00  0.00     0.149 HD
ENDBRANCH  17  18
ENDBRANCH   2  17
TORSDOF 6
ENDMDL
