MODEL 1
REMARK VINA RESULT:      -6.8      0.000      0.000
REMARK  7 active torsions:
REMARK  status: ('A' for Active; 'I' for Inactive)
REMARK    1  A    between atoms: O_2  and  C_20 
REMARK    2  A    between atoms: O_2  and  C_21 
REMARK    3  A    between atoms: N_4  and  C_7 
REMARK    4  A    between atoms: N_4  and  C_8 
REMARK    5  A    between atoms: N_5  and  C_10 
REMARK       I    between atoms: N_5  and  C_20 
REMARK    6  A    between atoms: N_6  and  C_12 
REMARK    7  A    between atoms: C_7  and  C_9 
ROOT
HETATM    1  C   UNK N   1      28.245  17.752   4.399  0.00  0.00     0.030 A 
HETATM    2  C   UNK N   1      25.809  19.129   4.070  0.00  0.00     0.063 A 
HETATM    3  C   UNK N   1      28.085  19.035   4.937  0.00  0.00     0.060 A 
HETATM    4  C   UNK N   1      26.872  19.722   4.781  0.00  0.00     0.055 A 
HETATM    5  C   UNK N   1      27.193  17.170   3.684  0.00  0.00     0.031 A 
HETATM    6  C   UNK N   1      25.993  17.855   3.513  0.00  0.00     0.034 A 
ENDROOT
BRANCH   1   7
HETATM    7  N   UNK N   1      29.419  17.010   4.678  0.00  0.00    -0.386 N 
HETATM    8  H   UNK N   1      30.019  16.744   3.943  0.00  0.00     0.160 HD
BRANCH   7   9
HETATM    9  C   UNK N   1      29.737  16.643   6.039  0.00  0.00     0.158 C 
BRANCH   9  10
HETATM   10  C   UNK N   1      31.055  17.159   6.499  0.00  0.00    -0.040 A 
HETATM   11  C   UNK N   1      32.127  17.192   5.602  0.00  0.00     0.012 A 
HETATM   12  C   UNK N   1      33.400  17.567   6.043  0.00  0.00     0.043 A 
HETATM   13  C   UNK N   1      33.603  17.901   7.386  0.00  0.00     0.116 A 
HETATM   14  F   UNK N   1      34.840  18.243   7.816  0.00  0.00    -0.206 F 
HETATM   15  C   UNK N   1      32.531  17.869   8.285  0.00  0.00     0.043 A 
HETATM   16  C   UNK N   1      31.258  17.493   7.844  0.00  0.00     0.012 A 
ENDBRANCH   9  10
ENDBRANCH   7   9
ENDBRANCH   1   7
BRANCH   4  17
HETATM   17  N   UNK N   1      26.711  20.990   5.377  0.00  0.00    -0.397 N 
HETATM   18  H   UNK N   1      26.205  21.697   4.916  0.00  0.00     0.156 HD
HETATM   19  H   UNK N   1      27.109  21.169   6.260  0.00  0.00     0.156 HD
ENDBRANCH   4  17
BRANCH   2  20
HETATM   20  N   UNK N   1      24.553  19.806   3.978  0.00  0.00    -0.301 N 
HETATM   21  C   UNK N   1      24.148  20.588   2.938  0.00  0.00     0.365 C 
HETATM   22  O   UNK N   1      24.896  20.828   2.002  0.00  0.00    -0.238 OA
HETATM   23  H   UNK N   1      23.928  19.698   4.731  0.00  0.00     0.171 HD
BRANCH  21  24
HETATM   24  O   UNK N   1      22.883  21.077   2.937  0.00  0.00    -0.304 OA
BRANCH  24  25
HETATM   25  C   UNK N   1      21.829  20.364   2.411  0.00  0.00     0.176 C 
HETATM   26  C   UNK N   1      20.731  20.237   3.445  0.00  0.00     0.034 C 
ENDBRANCH  24  25
ENDBRANCH  21  24
ENDBRANCH   2  20
TORSDOF 7
ENDMDL
MODEL 2
REMARK VINA RESULT:      -6.7      8.299     11.813
REMARK  7 active torsions:
REMARK  status: ('A' for Active; 'I' for Inactive)
REMARK    1  A    between atoms: O_2  and  C_20 
REMARK    2  A    between atoms: O_2  and  C_21 
REMARK    3  A    between atoms: N_4  and  C_7 
REMARK    4  A    between atoms: N_4  and  C_8 
REMARK    5  A    between atoms: N_5  and  C_10 
REMARK       I    between atoms: N_5  and  C_20 
REMARK    6  A    between atoms: N_6  and  C_12 
REMARK    7  A    between atoms: C_7  and  C_9 
ROOT
HETATM    1  C   UNK N   1      36.291  13.539  12.111  0.00  0.00     0.030 A 
HETATM    2  C   UNK N   1      35.414  14.990   9.861  0.00  0.00     0.063 A 
HETATM    3  C   UNK N   1      34.955  13.945  12.014  0.00  0.00     0.060 A 
HETATM    4  C   UNK N   1      34.512  14.663  10.892  0.00  0.00     0.055 A 
HETATM    5  C   UNK N   1      37.188  13.875  11.091  0.00  0.00     0.031 A 
HETATM    6  C   UNK N   1      36.756  14.601   9.984  0.00  0.00     0.034 A 
ENDROOT
BRANCH   1   7
HETATM    7  N   UNK N   1      36.699  12.699  13.175  0.00  0.00    -0.386 N 
HETATM    8  H   UNK N   1      37.582  12.262  13.147  0.00  0.00     0.160 HD
BRANCH   7   9
HETATM    9  C   UNK N   1      35.823  12.481  14.303  0.00  0.00     0.158 C 
BRANCH   9  10
HETATM   10  C   UNK N   1      36.083  13.402  15.443  0.00  0.00    -0.040 A 
HETATM   11  C   UNK N   1      35.291  13.307  16.592  0.00  0.00     0.012 A 
HETATM   12  C   UNK N   1      35.445  14.233  17.629  0.00  0.00     0.043 A 
HETATM   13  C   UNK N   1      36.385  15.262  17.512  0.00  0.00     0.116 A 
HETATM   14  F   UNK N   1      36.518  16.170  18.506  0.00  0.00    -0.206 F 
HETATM   15  C   UNK N   1      37.178  15.358  16.363  0.00  0.00     0.043 A 
HETATM   16  C   UNK N   1      37.024  14.431  15.326  0.00  0.00     0.012 A 
ENDBRANCH   9  10
ENDBRANCH   7   9
ENDBRANCH   1   7
BRANCH   4  17
HETATM   17  N   UNK N   1      33.150  15.014  10.788  0.00  0.00    -0.397 N 
HETATM   18  H   UNK N   1      32.681  14.938   9.926  0.00  0.00     0.156 HD
HETATM   19  H   UNK N   1      32.666  15.338  11.582  0.00  0.00     0.156 HD
ENDBRANCH   4  17
BRANCH   2  20
HETATM   20  N   UNK N   1      34.938  15.658   8.689  0.00  0.00    -0.301 N 
HETATM   21  C   UNK N   1      34.861  17.009   8.522  0.00  0.00     0.365 C 
HETATM   22  O   UNK N   1      35.142  17.773   9.434  0.00  0.00    -0.238 OA
HETATM   23  H   UNK N   1      34.642  15.093   7.939  0.00  0.00     0.171 HD
BRANCH  21  24
HETATM   24  O   UNK N   1      34.494  17.502   7.313  0.00  0.00    -0.304 OA
BRANCH  24  25
HETATM   25  C   UNK N   1      34.025  16.686   6.308  0.00  0.00     0.176 C 
HETATM   26  C   UNK N   1      33.313  17.520   5.265  0.00  0.00     0.034 C 
ENDBRANCH  24  25
ENDBRANCH  21  24
ENDBRANCH   2  20
TORSDOF 7
ENDMDL
MODEL 3
REMARK VINA RESULT:      -6.6      1.764      2.224
REMARK  7 active torsions:
REMARK  status: ('A' for Active; 'I' for Inactive)
REMARK    1  A    between atoms: O_2  and  C_20 
REMARK    2  A    between atoms: O_2  and  C_21 
REMARK    3  A    between atoms: N_4  and  C_7 
REMARK    4  A    between atoms: N_4  and  C_8 
REMARK    5  A    between atoms: N_5  and  C_10 
REMARK       I    between atoms: N_5  and  C_20 
REMARK    6  A    between atoms: N_6  and  C_12 
REMARK    7  A    between atoms: C_7  and  C_9 
ROOT
HETATM    1  C   UNK N   1      27.800  17.491   4.325  0.00  0.00     0.030 A 
HETATM    2  C   UNK N   1      25.408  18.931   3.946  0.00  0.00     0.063 A 
HETATM    3  C   UNK N   1      27.738  18.849   4.657  0.00  0.00     0.060 A 
HETATM    4  C   UNK N   1      26.547  19.569   4.476  0.00  0.00     0.055 A 
HETATM    5  C   UNK N   1      26.671  16.861   3.788  0.00  0.00     0.031 A 
HETATM    6  C   UNK N   1      25.493  17.577   3.591  0.00  0.00     0.034 A 
ENDROOT
BRANCH   1   7
HETATM    7  N   UNK N   1      28.958  16.738   4.639  0.00  0.00    -0.386 N 
HETATM    8  H   UNK N   1      29.706  16.696   3.999  0.00  0.00     0.160 HD
BRANCH   7   9
HETATM    9  C   UNK N   1      29.043  16.031   5.896  0.00  0.00     0.158 C 
BRANCH   9  10
HETATM   10  C   UNK N   1      29.221  16.928   7.070  0.00  0.00    -0.040 A 
HETATM   11  C   UNK N   1      30.508  17.348   7.420  0.00  0.00     0.012 A 
HETATM   12  C   UNK N   1      30.710  18.099   8.582  0.00  0.00     0.043 A 
HETATM   13  C   UNK N   1      29.624  18.421   9.402  0.00  0.00     0.116 A 
HETATM   14  F   UNK N   1      29.823  19.129  10.538  0.00  0.00    -0.206 F 
HETATM   15  C   UNK N   1      28.335  18.002   9.054  0.00  0.00     0.043 A 
HETATM   16  C   UNK N   1      28.134  17.251   7.891  0.00  0.00     0.012 A 
ENDBRANCH   9  10
ENDBRANCH   7   9
ENDBRANCH   1   7
BRANCH   4  17
HETATM   17  N   UNK N   1      26.489  20.923   4.869  0.00  0.00    -0.397 N 
HETATM   18  H   UNK N   1      27.102  21.269   5.556  0.00  0.00     0.156 HD
HETATM   19  H   UNK N   1      25.830  21.524   4.453  0.00  0.00     0.156 HD
ENDBRANCH   4  17
BRANCH   2  20
HETATM   20  N   UNK N   1      24.180  19.654   3.833  0.00  0.00    -0.301 N 
HETATM   21  C   UNK N   1      23.903  20.606   2.897  0.00  0.00     0.365 C 
HETATM   22  O   UNK N   1      24.754  20.970   2.098  0.00  0.00    -0.238 OA
HETATM   23  H   UNK N   1      23.474  19.446   4.486  0.00  0.00     0.171 HD
BRANCH  21  24
HETATM   24  O   UNK N   1      22.653  21.129   2.841  0.00  0.00    -0.304 OA
BRANCH  24  25
HETATM   25  C   UNK N   1      21.591  20.418   2.328  0.00  0.00     0.176 C 
HETATM   26  C   UNK N   1      20.585  20.141   3.424  0.00  0.00     0.034 C 
ENDBRANCH  24  25
ENDBRANCH  21  24
ENDBRANCH   2  20
TORSDOF 7
ENDMDL
MODEL 4
REMARK VINA RESULT:      -6.6      9.241     12.640
REMARK  7 active torsions:
REMARK  status: ('A' for Active; 'I' for Inactive)
REMARK    1  A    between atoms: O_2  and  C_20 
REMARK    2  A    between atoms: O_2  and  C_21 
REMARK    3  A    between atoms: N_4  and  C_7 
REMARK    4  A    between atoms: N_4  and  C_8 
REMARK    5  A    between atoms: N_5  and  C_10 
REMARK       I    between atoms: N_5  and  C_20 
REMARK    6  A    between atoms: N_6  and  C_12 
REMARK    7  A    between atoms: C_7  and  C_9 
ROOT
HETATM    1  C   UNK N   1      36.542  13.340  12.680  0.00  0.00     0.030 A 
HETATM    2  C   UNK N   1      35.473  14.665  10.436  0.00  0.00     0.063 A 
HETATM    3  C   UNK N   1      37.242  13.344  11.469  0.00  0.00     0.060 A 
HETATM    4  C   UNK N   1      36.717  14.008  10.349  0.00  0.00     0.055 A 
HETATM    5  C   UNK N   1      35.302  13.983  12.761  0.00  0.00     0.031 A 
HETATM    6  C   UNK N   1      34.769  14.628  11.648  0.00  0.00     0.034 A 
ENDROOT
BRANCH   1   7
HETATM    7  N   UNK N   1      37.140  12.789  13.841  0.00  0.00    -0.386 N 
HETATM    8  H   UNK N   1      37.997  13.144  14.169  0.00  0.00     0.160 HD
BRANCH   7   9
HETATM    9  C   UNK N   1      36.491  11.705  14.543  0.00  0.00     0.158 C 
BRANCH   9  10
HETATM   10  C   UNK N   1      36.116  12.046  15.942  0.00  0.00    -0.040 A 
HETATM   11  C   UNK N   1      35.981  11.019  16.882  0.00  0.00     0.012 A 
HETATM   12  C   UNK N   1      35.522  11.304  18.172  0.00  0.00     0.043 A 
HETATM   13  C   UNK N   1      35.187  12.617  18.519  0.00  0.00     0.116 A 
HETATM   14  F   UNK N   1      34.722  12.888  19.761  0.00  0.00    -0.206 F 
HETATM   15  C   UNK N   1      35.322  13.645  17.580  0.00  0.00     0.043 A 
HETATM   16  C   UNK N   1      35.782  13.360  16.290  0.00  0.00     0.012 A 
ENDBRANCH   9  10
ENDBRANCH   7   9
ENDBRANCH   1   7
BRANCH   4  17
HETATM   17  N   UNK N   1      37.464  14.048   9.153  0.00  0.00    -0.397 N 
HETATM   18  H   UNK N   1      37.238  13.451   8.405  0.00  0.00     0.156 HD
HETATM   19  H   UNK N   1      38.216  14.677   9.068  0.00  0.00     0.156 HD
ENDBRANCH   4  17
BRANCH   2  20
HETATM   20  N   UNK N   1      34.981  15.399   9.312  0.00  0.00    -0.301 N 
HETATM   21  C   UNK N   1      35.008  16.756   9.177  0.00  0.00     0.365 C 
HETATM   22  O   UNK N   1      35.412  17.470  10.083  0.00  0.00    -0.238 OA
HETATM   23  H   UNK N   1      34.589  14.881   8.573  0.00  0.00     0.171 HD
BRANCH  21  24
HETATM   24  O   UNK N   1      34.607  17.308   8.005  0.00  0.00    -0.304 OA
BRANCH  24  25
HETATM   25  C   UNK N   1      33.634  18.281   7.956  0.00  0.00     0.176 C 
HETATM   26  C   UNK N   1      32.307  17.701   8.393  0.00  0.00     0.034 C 
ENDBRANCH  24  25
ENDBRANCH  21  24
ENDBRANCH   2  20
TORSDOF 7
ENDMDL
MODEL 5
REMARK VINA RESULT:      -6.4      5.056      9.327
REMARK  7 active torsions:
REMARK  status: ('A' for Active; 'I' for Inactive)
REMARK    1  A    between atoms: O_2  and  C_20 
REMARK    2  A    between atoms: O_2  and  C_21 
REMARK    3  A    between atoms: N_4  and  C_7 
REMARK    4  A    between atoms: N_4  and  C_8 
REMARK    5  A    between atoms: N_5  and  C_10 
REMARK       I    between atoms: N_5  and  C_20 
REMARK    6  A    between atoms: N_6  and  C_12 
REMARK    7  A    between atoms: C_7  and  C_9 
ROOT
HETATM    1  C   UNK N   1      29.504  17.484   6.839  0.00  0.00     0.030 A 
HETATM    2  C   UNK N   1      31.900  17.325   8.311  0.00  0.00     0.063 A 
HETATM    3  C   UNK N   1      30.576  16.727   6.354  0.00  0.00     0.060 A 
HETATM    4  C   UNK N   1      31.770  16.640   7.086  0.00  0.00     0.055 A 
HETATM    5  C   UNK N   1      29.639  18.173   8.049  0.00  0.00     0.031 A 
HETATM    6  C   UNK N   1      30.827  18.103   8.771  0.00  0.00     0.034 A 
ENDROOT
BRANCH   1   7
HETATM    7  N   UNK N   1      28.257  17.457   6.166  0.00  0.00    -0.386 N 
HETATM    8  H   UNK N   1      27.420  17.413   6.683  0.00  0.00     0.160 HD
BRANCH   7   9
HETATM    9  C   UNK N   1      28.213  17.492   4.723  0.00  0.00     0.158 C 
BRANCH   9  10
HETATM   10  C   UNK N   1      27.130  18.358   4.183  0.00  0.00    -0.040 A 
HETATM   11  C   UNK N   1      27.421  19.683   3.841  0.00  0.00     0.012 A 
HETATM   12  C   UNK N   1      26.397  20.545   3.438  0.00  0.00     0.043 A 
HETATM   13  C   UNK N   1      25.077  20.085   3.387  0.00  0.00     0.116 A 
HETATM   14  F   UNK N   1      24.083  20.926   3.017  0.00  0.00    -0.206 F 
HETATM   15  C   UNK N   1      24.784  18.760   3.728  0.00  0.00     0.043 A 
HETATM   16  C   UNK N   1      25.809  17.897   4.131  0.00  0.00     0.012 A 
ENDBRANCH   9  10
ENDBRANCH   7   9
ENDBRANCH   1   7
BRANCH   4  17
HETATM   17  N   UNK N   1      32.819  15.827   6.608  0.00  0.00    -0.397 N 
HETATM   18  H   UNK N   1      33.559  15.567   7.203  0.00  0.00     0.156 HD
HETATM   19  H   UNK N   1      32.811  15.519   5.673  0.00  0.00     0.156 HD
ENDBRANCH   4  17
BRANCH   2  20
HETATM   20  N   UNK N   1      33.093  17.172   9.085  0.00  0.00    -0.301 N 
HETATM   21  C   UNK N   1      34.298  17.745   8.806  0.00  0.00     0.365 C 
HETATM   22  O   UNK N   1      34.462  18.403   7.790  0.00  0.00    -0.238 OA
HETATM   23  H   UNK N   1      33.039  16.604   9.887  0.00  0.00     0.171 HD
BRANCH  21  24
HETATM   24  O   UNK N   1      35.315  17.601   9.693  0.00  0.00    -0.304 OA
BRANCH  24  25
HETATM   25  C   UNK N   1      35.315  16.605  10.643  0.00  0.00     0.176 C 
HETATM   26  C   UNK N   1      36.064  15.399  10.117  0.00  0.00     0.034 C 
ENDBRANCH  24  25
ENDBRANCH  21  24
ENDBRANCH   2  20
TORSDOF 7
ENDMDL
MODEL 6
REMARK VINA RESULT:      -6.4      5.808      9.936
REMARK  7 active torsions:
REMARK  status: ('A' for Active; 'I' for Inactive)
REMARK    1  A    between atoms: O_2  and  C_20 
REMARK    2  A    between atoms: O_2  and  C_21 
REMARK    3  A    between atoms: N_4  and  C_7 
REMARK    4  A    between atoms: N_4  and  C_8 
REMARK    5  A    between atoms: N_5  and  C_10 
REMARK       I    between atoms: N_5  and  C_20 
REMARK    6  A    between atoms: N_6  and  C_12 
REMARK    7  A    between atoms: C_7  and  C_9 
ROOT
HETATM    1  C   UNK N   1      31.842  16.706   6.708  0.00  0.00     0.030 A 
HETATM    2  C   UNK N   1      33.852  15.853   8.487  0.00  0.00     0.063 A 
HETATM    3  C   UNK N   1      31.496  16.160   7.949  0.00  0.00     0.060 A 
HETATM    4  C   UNK N   1      32.493  15.739   8.841  0.00  0.00     0.055 A 
HETATM    5  C   UNK N   1      33.191  16.807   6.353  0.00  0.00     0.031 A 
HETATM    6  C   UNK N   1      34.184  16.376   7.228  0.00  0.00     0.034 A 
ENDROOT
BRANCH   1   7
HETATM    7  N   UNK N   1      30.838  17.254   5.872  0.00  0.00    -0.386 N 
HETATM    8  H   UNK N   1      31.092  17.766   5.070  0.00  0.00     0.160 HD
BRANCH   7   9
HETATM    9  C   UNK N   1      29.443  17.063   6.195  0.00  0.00     0.158 C 
BRANCH   9  10
HETATM   10  C   UNK N   1      28.640  18.314   6.121  0.00  0.00    -0.040 A 
HETATM   11  C   UNK N   1      28.458  18.936   4.882  0.00  0.00     0.012 A 
HETATM   12  C   UNK N   1      27.803  20.169   4.804  0.00  0.00     0.043 A 
HETATM   13  C   UNK N   1      27.338  20.786   5.970  0.00  0.00     0.116 A 
HETATM   14  F   UNK N   1      26.723  21.990   5.897  0.00  0.00    -0.206 F 
HETATM   15  C   UNK N   1      27.519  20.166   7.211  0.00  0.00     0.043 A 
HETATM   16  C   UNK N   1      28.175  18.932   7.288  0.00  0.00     0.012 A 
ENDBRANCH   9  10
ENDBRANCH   7   9
ENDBRANCH   1   7
BRANCH   4  17
HETATM   17  N   UNK N   1      32.126  15.243  10.110  0.00  0.00    -0.397 N 
HETATM   18  H   UNK N   1      31.622  14.401  10.188  0.00  0.00     0.156 HD
HETATM   19  H   UNK N   1      32.374  15.742  10.921  0.00  0.00     0.156 HD
ENDBRANCH   4  17
BRANCH   2  20
HETATM   20  N   UNK N   1      34.863  15.489   9.431  0.00  0.00    -0.301 N 
HETATM   21  C   UNK N   1      35.524  16.350  10.257  0.00  0.00     0.365 C 
HETATM   22  O   UNK N   1      35.333  17.555  10.192  0.00  0.00    -0.238 OA
HETATM   23  H   UNK N   1      35.102  14.536   9.489  0.00  0.00     0.171 HD
BRANCH  21  24
HETATM   24  O   UNK N   1      36.379  15.847  11.182  0.00  0.00    -0.304 OA
BRANCH  24  25
HETATM   25  C   UNK N   1      36.262  14.559  11.656  0.00  0.00     0.176 C 
HETATM   26  C   UNK N   1      36.085  14.583  13.159  0.00  0.00     0.034 C 
ENDBRANCH  24  25
ENDBRANCH  21  24
ENDBRANCH   2  20
TORSDOF 7
ENDMDL
MODEL 7
REMARK VINA RESULT:      -6.4      9.032     12.267
REMARK  7 active torsions:
REMARK  status: ('A' for Active; 'I' for Inactive)
REMARK    1  A    between atoms: O_2  and  C_20 
REMARK    2  A    between atoms: O_2  and  C_21 
REMARK    3  A    between atoms: N_4  and  C_7 
REMARK    4  A    between atoms: N_4  and  C_8 
REMARK    5  A    between atoms: N_5  and  C_10 
REMARK       I    between atoms: N_5  and  C_20 
REMARK    6  A    between atoms: N_6  and  C_12 
REMARK    7  A    between atoms: C_7  and  C_9 
ROOT
HETATM    1  C   UNK N   1      36.205  13.783  12.749  0.00  0.00     0.030 A 
HETATM    2  C   UNK N   1      34.680  14.530  10.501  0.00  0.00     0.063 A 
HETATM    3  C   UNK N   1      36.049  15.136  12.424  0.00  0.00     0.060 A 
HETATM    4  C   UNK N   1      35.286  15.513  11.309  0.00  0.00     0.055 A 
HETATM    5  C   UNK N   1      35.612  12.808  11.939  0.00  0.00     0.031 A 
HETATM    6  C   UNK N   1      34.868  13.178  10.822  0.00  0.00     0.034 A 
ENDROOT
BRANCH   1   7
HETATM    7  N   UNK N   1      36.859  13.415  13.950  0.00  0.00    -0.386 N 
HETATM    8  H   UNK N   1      37.532  14.015  14.348  0.00  0.00     0.160 HD
BRANCH   7   9
HETATM    9  C   UNK N   1      36.540  12.161  14.593  0.00  0.00     0.158 C 
BRANCH   9  10
HETATM   10  C   UNK N   1      35.984  12.321  15.963  0.00  0.00    -0.040 A 
HETATM   11  C   UNK N   1      35.669  13.602  16.427  0.00  0.00     0.012 A 
HETATM   12  C   UNK N   1      35.250  13.787  17.749  0.00  0.00     0.043 A 
HETATM   13  C   UNK N   1      35.156  12.690  18.611  0.00  0.00     0.116 A 
HETATM   14  F   UNK N   1      34.771  12.872  19.896  0.00  0.00    -0.206 F 
HETATM   15  C   UNK N   1      35.470  11.407  18.148  0.00  0.00     0.043 A 
HETATM   16  C   UNK N   1      35.889  11.222  16.826  0.00  0.00     0.012 A 
ENDBRANCH   9  10
ENDBRANCH   7   9
ENDBRANCH   1   7
BRANCH   4  17
HETATM   17  N   UNK N   1      35.095  16.883  11.031  0.00  0.00    -0.397 N 
HETATM   18  H   UNK N   1      35.124  17.211  10.104  0.00  0.00     0.156 HD
HETATM   19  H   UNK N   1      34.932  17.513  11.769  0.00  0.00     0.156 HD
ENDBRANCH   4  17
BRANCH   2  20
HETATM   20  N   UNK N   1      33.844  14.926   9.410  0.00  0.00    -0.301 N 
HETATM   21  C   UNK N   1      34.228  15.001   8.104  0.00  0.00     0.365 C 
HETATM   22  O   UNK N   1      35.386  14.789   7.775  0.00  0.00    -0.238 OA
HETATM   23  H   UNK N   1      32.913  15.166   9.621  0.00  0.00     0.171 HD
BRANCH  21  24
HETATM   24  O   UNK N   1      33.295  15.284   7.161  0.00  0.00    -0.304 OA
BRANCH  24  25
HETATM   25  C   UNK N   1      32.673  16.511   7.099  0.00  0.00     0.176 C 
HETATM   26  C   UNK N   1      33.608  17.527   6.480  0.00  0.00     0.034 C 
ENDBRANCH  24  25
ENDBRANCH  21  24
ENDBRANCH   2  20
TORSDOF 7
ENDMDL
MODEL 8
REMARK VINA RESULT:      -6.3     14.673     18.005
REMARK  7 active torsions:
REMARK  status: ('A' for Active; 'I' for Inactive)
REMARK    1  A    between atoms: O_2  and  C_20 
REMARK    2  A    between atoms: O_2  and  C_21 
REMARK    3  A    between atoms: N_4  and  C_7 
REMARK    4  A    between atoms: N_4  and  C_8 
REMARK    5  A    between atoms: N_5  and  C_10 
REMARK       I    between atoms: N_5  and  C_20 
REMARK    6  A    between atoms: N_6  and  C_12 
REMARK    7  A    between atoms: C_7  and  C_9 
ROOT
HETATM    1  C   UNK N   1      34.935  11.051  20.030  0.00  0.00     0.030 A 
HETATM    2  C   UNK N   1      35.477  12.248  17.538  0.00  0.00     0.063 A 
HETATM    3  C   UNK N   1      35.017  12.444  19.923  0.00  0.00     0.060 A 
HETATM    4  C   UNK N   1      35.281  13.045  18.683  0.00  0.00     0.055 A 
HETATM    5  C   UNK N   1      35.142  10.260  18.894  0.00  0.00     0.031 A 
HETATM    6  C   UNK N   1      35.420  10.852  17.666  0.00  0.00     0.034 A 
ENDROOT
BRANCH   1   7
HETATM    7  N   UNK N   1      34.533  10.458  21.252  0.00  0.00    -0.386 N 
HETATM    8  H   UNK N   1      35.186   9.959  21.796  0.00  0.00     0.160 HD
BRANCH   7   9
HETATM    9  C   UNK N   1      33.166  10.583  21.702  0.00  0.00     0.158 C 
BRANCH   9  10
HETATM   10  C   UNK N   1      32.368   9.339  21.528  0.00  0.00    -0.040 A 
HETATM   11  C   UNK N   1      32.464   8.326  22.487  0.00  0.00     0.012 A 
HETATM   12  C   UNK N   1      31.810   7.106  22.288  0.00  0.00     0.043 A 
HETATM   13  C   UNK N   1      31.067   6.895  21.122  0.00  0.00     0.116 A 
HETATM   14  F   UNK N   1      30.453   5.706  20.920  0.00  0.00    -0.206 F 
HETATM   15  C   UNK N   1      30.969   7.908  20.162  0.00  0.00     0.043 A 
HETATM   16  C   UNK N   1      31.623   9.128  20.362  0.00  0.00     0.012 A 
ENDBRANCH   9  10
ENDBRANCH   7   9
ENDBRANCH   1   7
BRANCH   4  17
HETATM   17  N   UNK N   1      35.304  14.452  18.586  0.00  0.00    -0.397 N 
HETATM   18  H   UNK N   1      34.476  14.952  18.402  0.00  0.00     0.156 HD
HETATM   19  H   UNK N   1      36.153  14.936  18.701  0.00  0.00     0.156 HD
ENDBRANCH   4  17
BRANCH   2  20
HETATM   20  N   UNK N   1      35.672  12.871  16.266  0.00  0.00    -0.301 N 
HETATM   21  C   UNK N   1      34.797  12.834  15.222  0.00  0.00     0.365 C 
HETATM   22  O   UNK N   1      33.769  12.176  15.285  0.00  0.00    -0.238 OA
HETATM   23  H   UNK N   1      36.511  13.369  16.134  0.00  0.00     0.171 HD
BRANCH  21  24
HETATM   24  O   UNK N   1      35.065  13.567  14.113  0.00  0.00    -0.304 OA
BRANCH  24  25
HETATM   25  C   UNK N   1      36.352  13.905  13.759  0.00  0.00     0.176 C 
HETATM   26  C   UNK N   1      36.773  13.112  12.541  0.00  0.00     0.034 C 
ENDBRANCH  24  25
ENDBRANCH  21  24
ENDBRANCH   2  20
TORSDOF 7
ENDMDL
MODEL 9
REMARK VINA RESULT:      -6.2      7.250     11.575
REMARK  7 active torsions:
REMARK  status: ('A' for Active; 'I' for Inactive)
REMARK    1  A    between atoms: O_2  and  C_20 
REMARK    2  A    between atoms: O_2  and  C_21 
REMARK    3  A    between atoms: N_4  and  C_7 
REMARK    4  A    between atoms: N_4  and  C_8 
REMARK    5  A    between atoms: N_5  and  C_10 
REMARK       I    between atoms: N_5  and  C_20 
REMARK    6  A    between atoms: N_6  and  C_12 
REMARK    7  A    between atoms: C_7  and  C_9 
ROOT
HETATM    1  C   UNK N   1      34.429  16.326   8.365  0.00  0.00     0.030 A 
HETATM    2  C   UNK N   1      35.906  15.377  10.569  0.00  0.00     0.063 A 
HETATM    3  C   UNK N   1      34.993  15.045   8.334  0.00  0.00     0.060 A 
HETATM    4  C   UNK N   1      35.724  14.565   9.431  0.00  0.00     0.055 A 
HETATM    5  C   UNK N   1      34.620  17.134   9.491  0.00  0.00     0.031 A 
HETATM    6  C   UNK N   1      35.359  16.669  10.575  0.00  0.00     0.034 A 
ENDROOT
BRANCH   1   7
HETATM    7  N   UNK N   1      33.578  16.750   7.315  0.00  0.00    -0.386 N 
HETATM    8  H   UNK N   1      33.830  17.524   6.760  0.00  0.00     0.160 HD
BRANCH   7   9
HETATM    9  C   UNK N   1      32.341  16.048   7.058  0.00  0.00     0.158 C 
BRANCH   9  10
HETATM   10  C   UNK N   1      31.129  16.834   7.413  0.00  0.00    -0.040 A 
HETATM   11  C   UNK N   1      30.111  16.985   6.466  0.00  0.00     0.012 A 
HETATM   12  C   UNK N   1      29.015  17.810   6.738  0.00  0.00     0.043 A 
HETATM   13  C   UNK N   1      28.942  18.494   7.955  0.00  0.00     0.116 A 
HETATM   14  F   UNK N   1      27.891  19.309   8.209  0.00  0.00    -0.206 F 
HETATM   15  C   UNK N   1      29.959  18.345   8.904  0.00  0.00     0.043 A 
HETATM   16  C   UNK N   1      31.055  17.519   8.632  0.00  0.00     0.012 A 
ENDBRANCH   9  10
ENDBRANCH   7   9
ENDBRANCH   1   7
BRANCH   4  17
HETATM   17  N   UNK N   1      36.237  13.252   9.402  0.00  0.00    -0.397 N 
HETATM   18  H   UNK N   1      35.628  12.479   9.401  0.00  0.00     0.156 HD
HETATM   19  H   UNK N   1      37.211  13.108   9.384  0.00  0.00     0.156 HD
ENDBRANCH   4  17
BRANCH   2  20
HETATM   20  N   UNK N   1      36.590  14.853  11.710  0.00  0.00    -0.301 N 
HETATM   21  C   UNK N   1      36.013  14.158  12.731  0.00  0.00     0.365 C 
HETATM   22  O   UNK N   1      34.803  13.989  12.772  0.00  0.00    -0.238 OA
HETATM   23  H   UNK N   1      37.560  15.008  11.763  0.00  0.00     0.171 HD
BRANCH  21  24
HETATM   24  O   UNK N   1      36.805  13.624  13.693  0.00  0.00    -0.304 OA
BRANCH  24  25
HETATM   25  C   UNK N   1      36.498  13.732  15.031  0.00  0.00     0.176 C 
HETATM   26  C   UNK N   1      37.194  14.940  15.619  0.00  0.00     0.034 C 
ENDBRANCH  24  25
ENDBRANCH  21  24
ENDBRANCH   2  20
TORSDOF 7
ENDMDL
