MODEL 1
REMARK VINA RESULT:      -7.3      0.000      0.000
REMARK  7 active torsions:
REMARK  status: ('A' for Active; 'I' for Inactive)
REMARK    1  A    between atoms: O_3  and  C_12 
REMARK    2  A    between atoms: O_3  and  C_14 
REMARK    3  A    between atoms: O_5  and  C_18 
REMARK    4  A    between atoms: O_5  and  C_21 
REMARK    5  A    between atoms: C_7  and  C_11 
REMARK    6  A    between atoms: C_8  and  C_12 
REMARK    7  A    between atoms: C_14  and  C_15 
ROOT
HETATM    1  C   UNK N   1      26.810  24.659  -3.681  0.00  0.00    -0.031 A 
HETATM    2  C   UNK N   1      26.301  24.039  -4.824  0.00  0.00     0.046 A 
HETATM    3  C   UNK N   1      26.626  26.033  -3.492  0.00  0.00     0.009 A 
HETATM    4  C   UNK N   1      25.631  24.790  -5.789  0.00  0.00     0.076 A 
HETATM    5  C   UNK N   1      25.927  26.785  -4.439  0.00  0.00     0.003 A 
HETATM    6  C   UNK N   1      25.439  26.168  -5.595  0.00  0.00     0.037 A 
ENDROOT
BRANCH   1   7
HETATM    7  C   UNK N   1      27.590  23.866  -2.689  0.00  0.00     0.217 C 
BRANCH   7   8
HETATM    8  O   UNK N   1      28.933  23.882  -2.997  0.00  0.00    -0.317 OA
BRANCH   8   9
HETATM    9  C   UNK N   1      29.809  22.926  -2.586  0.00  0.00     0.264 C 
HETATM   10  O   UNK N   1      30.379  23.069  -1.517  0.00  0.00    -0.265 OA
BRANCH   9  11
HETATM   11  C   UNK N   1      30.137  21.725  -3.448  0.00  0.00     0.102 A 
HETATM   12  C   UNK N   1      30.353  22.035  -4.929  0.00  0.00    -0.027 A 
HETATM   13  C   UNK N   1      31.556  21.862  -4.012  0.00  0.00     0.034 A 
HETATM   14  C   UNK N   1      30.078  20.903  -5.909  0.00  0.00     0.016 C 
HETATM   15  C   UNK N   1      30.209  23.463  -5.431  0.00  0.00     0.016 C 
BRANCH  13  16
HETATM   16  C   UNK N   1      32.155  20.484  -3.996  0.00  0.00     0.016 C 
HETATM   17  C   UNK N   1      33.458  20.267  -4.195  0.00  0.00     0.100 C 
HETATM   18 Cl   UNK N   1      34.580  21.585  -4.518  0.00  0.00    -0.071 Cl
HETATM   19 Cl   UNK N   1      34.066  18.623  -4.136  0.00  0.00    -0.071 Cl
ENDBRANCH  13  16
ENDBRANCH   9  11
ENDBRANCH   8   9
ENDBRANCH   7   8
ENDBRANCH   1   7
BRANCH   4  20
HETATM   20  O   UNK N   1      25.221  24.179  -6.925  0.00  0.00    -0.311 OA
BRANCH  20  21
HETATM   21  C   UNK N   1      25.814  23.071  -7.440  0.00  0.00     0.076 A 
HETATM   22  C   UNK N   1      25.116  21.853  -7.563  0.00  0.00     0.037 A 
HETATM   23  C   UNK N   1      25.724  20.747  -8.159  0.00  0.00     0.003 A 
HETATM   24  C   UNK N   1      27.029  20.847  -8.643  0.00  0.00     0.000 A 
HETATM   25  C   UNK N   1      27.730  22.051  -8.524  0.00  0.00     0.003 A 
HETATM   26  C   UNK N   1      27.122  23.161  -7.927  0.00  0.00     0.037 A 
ENDBRANCH  20  21
ENDBRANCH   4  20
TORSDOF 7
ENDMDL
MODEL 2
REMARK VINA RESULT:      -7.2     10.461     12.907
REMARK  7 active torsions:
REMARK  status: ('A' for Active; 'I' for Inactive)
REMARK    1  A    between atoms: O_3  and  C_12 
REMARK    2  A    between atoms: O_3  and  C_14 
REMARK    3  A    between atoms: O_5  and  C_18 
REMARK    4  A    between atoms: O_5  and  C_21 
REMARK    5  A    between atoms: C_7  and  C_11 
REMARK    6  A    between atoms: C_8  and  C_12 
REMARK    7  A    between atoms: C_14  and  C_15 
ROOT
HETATM    1  C   UNK N   1      30.686  17.841   8.324  0.00  0.00    -0.031 A 
HETATM    2  C   UNK N   1      29.989  17.370   7.210  0.00  0.00     0.046 A 
HETATM    3  C   UNK N   1      29.984  18.287   9.449  0.00  0.00     0.009 A 
HETATM    4  C   UNK N   1      28.594  17.367   7.205  0.00  0.00     0.076 A 
HETATM    5  C   UNK N   1      28.588  18.256   9.463  0.00  0.00     0.003 A 
HETATM    6  C   UNK N   1      27.890  17.808   8.338  0.00  0.00     0.037 A 
ENDROOT
BRANCH   1   7
HETATM    7  C   UNK N   1      32.174  17.912   8.294  0.00  0.00     0.217 C 
BRANCH   7   8
HETATM    8  O   UNK N   1      32.689  17.018   7.381  0.00  0.00    -0.317 OA
BRANCH   8   9
HETATM    9  C   UNK N   1      33.446  17.388   6.314  0.00  0.00     0.264 C 
HETATM   10  O   UNK N   1      34.500  17.970   6.512  0.00  0.00    -0.265 OA
BRANCH   9  11
HETATM   11  C   UNK N   1      32.985  17.151   4.890  0.00  0.00     0.102 A 
HETATM   12  C   UNK N   1      33.511  15.867   4.249  0.00  0.00    -0.027 A 
HETATM   13  C   UNK N   1      32.105  15.898   4.831  0.00  0.00     0.034 A 
HETATM   14  C   UNK N   1      33.617  15.858   2.730  0.00  0.00     0.016 C 
HETATM   15  C   UNK N   1      34.442  14.957   5.034  0.00  0.00     0.016 C 
BRANCH  13  16
HETATM   16  C   UNK N   1      31.010  16.192   3.845  0.00  0.00     0.016 C 
HETATM   17  C   UNK N   1      29.876  15.489   3.801  0.00  0.00     0.100 C 
HETATM   18 Cl   UNK N   1      29.582  14.135   4.888  0.00  0.00    -0.071 Cl
HETATM   19 Cl   UNK N   1      28.648  15.924   2.627  0.00  0.00    -0.071 Cl
ENDBRANCH  13  16
ENDBRANCH   9  11
ENDBRANCH   8   9
ENDBRANCH   7   8
ENDBRANCH   1   7
BRANCH   4  20
HETATM   20  O   UNK N   1      27.944  16.983   6.081  0.00  0.00    -0.311 OA
BRANCH  20  21
HETATM   21  C   UNK N   1      27.303  17.846   5.251  0.00  0.00     0.076 A 
HETATM   22  C   UNK N   1      25.920  17.736   5.003  0.00  0.00     0.037 A 
HETATM   23  C   UNK N   1      25.269  18.676   4.202  0.00  0.00     0.003 A 
HETATM   24  C   UNK N   1      25.990  19.734   3.646  0.00  0.00     0.000 A 
HETATM   25  C   UNK N   1      27.362  19.849   3.885  0.00  0.00     0.003 A 
HETATM   26  C   UNK N   1      28.016  18.909   4.689  0.00  0.00     0.037 A 
ENDBRANCH  20  21
ENDBRANCH   4  20
TORSDOF 7
ENDMDL
MODEL 3
REMARK VINA RESULT:      -7.2      1.982      4.395
REMARK  7 active torsions:
REMARK  status: ('A' for Active; 'I' for Inactive)
REMARK    1  A    between atoms: O_3  and  C_12 
REMARK    2  A    between atoms: O_3  and  C_14 
REMARK    3  A    between atoms: O_5  and  C_18 
REMARK    4  A    between atoms: O_5  and  C_21 
REMARK    5  A    between atoms: C_7  and  C_11 
REMARK    6  A    between atoms: C_8  and  C_12 
REMARK    7  A    between atoms: C_14  and  C_15 
ROOT
HETATM    1  C   UNK N   1      26.883  24.367  -3.974  0.00  0.00    -0.031 A 
HETATM    2  C   UNK N   1      26.625  25.735  -3.873  0.00  0.00     0.046 A 
HETATM    3  C   UNK N   1      26.491  23.666  -5.120  0.00  0.00     0.009 A 
HETATM    4  C   UNK N   1      25.956  26.401  -4.900  0.00  0.00     0.076 A 
HETATM    5  C   UNK N   1      25.849  24.333  -6.166  0.00  0.00     0.003 A 
HETATM    6  C   UNK N   1      25.570  25.698  -6.053  0.00  0.00     0.037 A 
ENDROOT
BRANCH   1   7
HETATM    7  C   UNK N   1      27.531  23.646  -2.842  0.00  0.00     0.217 C 
BRANCH   7   8
HETATM    8  O   UNK N   1      28.873  23.953  -2.771  0.00  0.00    -0.317 OA
BRANCH   8   9
HETATM    9  C   UNK N   1      29.838  23.036  -2.494  0.00  0.00     0.264 C 
HETATM   10  O   UNK N   1      30.520  23.181  -1.494  0.00  0.00    -0.265 OA
BRANCH   9  11
HETATM   11  C   UNK N   1      30.126  21.878  -3.428  0.00  0.00     0.102 A 
HETATM   12  C   UNK N   1      30.419  22.274  -4.875  0.00  0.00    -0.027 A 
HETATM   13  C   UNK N   1      31.572  21.962  -3.931  0.00  0.00     0.034 A 
HETATM   14  C   UNK N   1      30.114  21.232  -5.942  0.00  0.00     0.016 C 
HETATM   15  C   UNK N   1      30.382  23.739  -5.279  0.00  0.00     0.016 C 
BRANCH  13  16
HETATM   16  C   UNK N   1      32.084  20.551  -3.992  0.00  0.00     0.016 C 
HETATM   17  C   UNK N   1      33.380  20.265  -4.146  0.00  0.00     0.100 C 
HETATM   18 Cl   UNK N   1      34.595  21.528  -4.316  0.00  0.00    -0.071 Cl
HETATM   19 Cl   UNK N   1      33.883  18.586  -4.184  0.00  0.00    -0.071 Cl
ENDBRANCH  13  16
ENDBRANCH   9  11
ENDBRANCH   8   9
ENDBRANCH   7   8
ENDBRANCH   1   7
BRANCH   4  20
HETATM   20  O   UNK N   1      25.647  27.709  -4.739  0.00  0.00    -0.311 OA
BRANCH  20  21
HETATM   21  C   UNK N   1      26.544  28.717  -4.882  0.00  0.00     0.076 A 
HETATM   22  C   UNK N   1      27.475  28.729  -5.941  0.00  0.00     0.037 A 
HETATM   23  C   UNK N   1      28.341  29.811  -6.109  0.00  0.00     0.003 A 
HETATM   24  C   UNK N   1      28.283  30.891  -5.227  0.00  0.00     0.000 A 
HETATM   25  C   UNK N   1      27.365  30.887  -4.173  0.00  0.00     0.003 A 
HETATM   26  C   UNK N   1      26.495  29.804  -4.004  0.00  0.00     0.037 A 
ENDBRANCH  20  21
ENDBRANCH   4  20
TORSDOF 7
ENDMDL
MODEL 4
REMARK VINA RESULT:      -7.2      4.149      6.726
REMARK  7 active torsions:
REMARK  status: ('A' for Active; 'I' for Inactive)
REMARK    1  A    between atoms: O_3  and  C_12 
REMARK    2  A    between atoms: O_3  and  C_14 
REMARK    3  A    between atoms: O_5  and  C_18 
REMARK    4  A    between atoms: O_5  and  C_21 
REMARK    5  A    between atoms: C_7  and  C_11 
REMARK    6  A    between atoms: C_8  and  C_12 
REMARK    7  A    between atoms: C_14  and  C_15 
ROOT
HETATM    1  C   UNK N   1      25.906  27.698  -4.066  0.00  0.00    -0.031 A 
HETATM    2  C   UNK N   1      26.384  26.592  -3.361  0.00  0.00     0.046 A 
HETATM    3  C   UNK N   1      25.253  27.516  -5.290  0.00  0.00     0.009 A 
HETATM    4  C   UNK N   1      26.235  25.308  -3.885  0.00  0.00     0.076 A 
HETATM    5  C   UNK N   1      25.071  26.231  -5.805  0.00  0.00     0.003 A 
HETATM    6  C   UNK N   1      25.573  25.126  -5.110  0.00  0.00     0.037 A 
ENDROOT
BRANCH   1   7
HETATM    7  C   UNK N   1      26.134  29.073  -3.536  0.00  0.00     0.217 C 
BRANCH   7   8
HETATM    8  O   UNK N   1      26.612  29.905  -4.525  0.00  0.00    -0.317 OA
BRANCH   8   9
HETATM    9  C   UNK N   1      27.914  30.286  -4.620  0.00  0.00     0.264 C 
HETATM   10  O   UNK N   1      28.391  30.979  -3.737  0.00  0.00    -0.265 OA
BRANCH   9  11
HETATM   11  C   UNK N   1      28.764  29.922  -5.820  0.00  0.00     0.102 A 
HETATM   12  C   UNK N   1      29.746  28.773  -5.589  0.00  0.00    -0.027 A 
HETATM   13  C   UNK N   1      28.422  28.504  -6.290  0.00  0.00     0.034 A 
HETATM   14  C   UNK N   1      30.992  28.756  -6.463  0.00  0.00     0.016 C 
HETATM   15  C   UNK N   1      29.824  28.109  -4.224  0.00  0.00     0.016 C 
BRANCH  13  16
HETATM   16  C   UNK N   1      28.475  28.528  -7.791  0.00  0.00     0.016 C 
HETATM   17  C   UNK N   1      28.331  27.426  -8.531  0.00  0.00     0.100 C 
HETATM   18 Cl   UNK N   1      28.089  25.842  -7.800  0.00  0.00    -0.071 Cl
HETATM   19 Cl   UNK N   1      28.388  27.559 -10.279  0.00  0.00    -0.071 Cl
ENDBRANCH  13  16
ENDBRANCH   9  11
ENDBRANCH   8   9
ENDBRANCH   7   8
ENDBRANCH   1   7
BRANCH   4  20
HETATM   20  O   UNK N   1      26.781  24.263  -3.221  0.00  0.00    -0.311 OA
BRANCH  20  21
HETATM   21  C   UNK N   1      28.109  23.984  -3.219  0.00  0.00     0.076 A 
HETATM   22  C   UNK N   1      28.974  24.513  -4.199  0.00  0.00     0.037 A 
HETATM   23  C   UNK N   1      30.347  24.269  -4.137  0.00  0.00     0.003 A 
HETATM   24  C   UNK N   1      30.870  23.501  -3.096  0.00  0.00     0.000 A 
HETATM   25  C   UNK N   1      30.020  22.970  -2.121  0.00  0.00     0.003 A 
HETATM   26  C   UNK N   1      28.644  23.214  -2.181  0.00  0.00     0.037 A 
ENDBRANCH  20  21
ENDBRANCH   4  20
TORSDOF 7
ENDMDL
MODEL 5
REMARK VINA RESULT:      -7.2      3.230      5.580
REMARK  7 active torsions:
REMARK  status: ('A' for Active; 'I' for Inactive)
REMARK    1  A    between atoms: O_3  and  C_12 
REMARK    2  A    between atoms: O_3  and  C_14 
REMARK    3  A    between atoms: O_5  and  C_18 
REMARK    4  A    between atoms: O_5  and  C_21 
REMARK    5  A    between atoms: C_7  and  C_11 
REMARK    6  A    between atoms: C_8  and  C_12 
REMARK    7  A    between atoms: C_14  and  C_15 
ROOT
HETATM    1  C   UNK N   1      30.151  24.031  -4.347  0.00  0.00    -0.031 A 
HETATM    2  C   UNK N   1      28.787  24.322  -4.386  0.00  0.00     0.046 A 
HETATM    3  C   UNK N   1      30.693  23.371  -3.238  0.00  0.00     0.009 A 
HETATM    4  C   UNK N   1      27.965  23.979  -3.312  0.00  0.00     0.076 A 
HETATM    5  C   UNK N   1      29.870  22.995  -2.174  0.00  0.00     0.003 A 
HETATM    6  C   UNK N   1      28.508  23.309  -2.203  0.00  0.00     0.037 A 
ENDROOT
BRANCH   1   7
HETATM    7  C   UNK N   1      31.037  24.467  -5.464  0.00  0.00     0.217 C 
BRANCH   7   8
HETATM    8  O   UNK N   1      30.644  23.891  -6.652  0.00  0.00    -0.317 OA
BRANCH   8   9
HETATM    9  C   UNK N   1      31.210  22.764  -7.163  0.00  0.00     0.264 C 
HETATM   10  O   UNK N   1      32.425  22.662  -7.162  0.00  0.00    -0.265 OA
BRANCH   9  11
HETATM   11  C   UNK N   1      30.372  21.666  -7.785  0.00  0.00     0.102 A 
HETATM   12  C   UNK N   1      30.053  20.494  -6.855  0.00  0.00    -0.027 A 
HETATM   13  C   UNK N   1      29.014  21.584  -7.079  0.00  0.00     0.034 A 
HETATM   14  C   UNK N   1      29.783  19.152  -7.520  0.00  0.00     0.016 C 
HETATM   15  C   UNK N   1      30.591  20.491  -5.434  0.00  0.00     0.016 C 
BRANCH  13  16
HETATM   16  C   UNK N   1      27.997  21.289  -8.144  0.00  0.00     0.016 C 
HETATM   17  C   UNK N   1      26.723  21.678  -8.046  0.00  0.00     0.100 C 
HETATM   18 Cl   UNK N   1      26.124  22.550  -6.638  0.00  0.00    -0.071 Cl
HETATM   19 Cl   UNK N   1      25.615  21.305  -9.353  0.00  0.00    -0.071 Cl
ENDBRANCH  13  16
ENDBRANCH   9  11
ENDBRANCH   8   9
ENDBRANCH   7   8
ENDBRANCH   1   7
BRANCH   4  20
HETATM   20  O   UNK N   1      26.663  24.346  -3.341  0.00  0.00    -0.311 OA
BRANCH  20  21
HETATM   21  C   UNK N   1      26.221  25.507  -3.889  0.00  0.00     0.076 A 
HETATM   22  C   UNK N   1      25.567  25.529  -5.137  0.00  0.00     0.037 A 
HETATM   23  C   UNK N   1      25.059  26.724  -5.648  0.00  0.00     0.003 A 
HETATM   24  C   UNK N   1      25.193  27.906  -4.917  0.00  0.00     0.000 A 
HETATM   25  C   UNK N   1      25.841  27.894  -3.679  0.00  0.00     0.003 A 
HETATM   26  C   UNK N   1      26.350  26.696  -3.165  0.00  0.00     0.037 A 
ENDBRANCH  20  21
ENDBRANCH   4  20
TORSDOF 7
ENDMDL
MODEL 6
REMARK VINA RESULT:      -7.1      3.000      4.038
REMARK  7 active torsions:
REMARK  status: ('A' for Active; 'I' for Inactive)
REMARK    1  A    between atoms: O_3  and  C_12 
REMARK    2  A    between atoms: O_3  and  C_14 
REMARK    3  A    between atoms: O_5  and  C_18 
REMARK    4  A    between atoms: O_5  and  C_21 
REMARK    5  A    between atoms: C_7  and  C_11 
REMARK    6  A    between atoms: C_8  and  C_12 
REMARK    7  A    between atoms: C_14  and  C_15 
ROOT
HETATM    1  C   UNK N   1      26.800  24.697  -3.730  0.00  0.00    -0.031 A 
HETATM    2  C   UNK N   1      26.339  24.081  -4.894  0.00  0.00     0.046 A 
HETATM    3  C   UNK N   1      26.545  26.055  -3.511  0.00  0.00     0.009 A 
HETATM    4  C   UNK N   1      25.647  24.821  -5.853  0.00  0.00     0.076 A 
HETATM    5  C   UNK N   1      25.825  26.795  -4.451  0.00  0.00     0.003 A 
HETATM    6  C   UNK N   1      25.385  26.183  -5.629  0.00  0.00     0.037 A 
ENDROOT
BRANCH   1   7
HETATM    7  C   UNK N   1      27.602  23.918  -2.744  0.00  0.00     0.217 C 
BRANCH   7   8
HETATM    8  O   UNK N   1      28.799  23.516  -3.296  0.00  0.00    -0.317 OA
BRANCH   8   9
HETATM    9  C   UNK N   1      29.997  24.074  -2.977  0.00  0.00     0.264 C 
HETATM   10  O   UNK N   1      30.724  23.499  -2.185  0.00  0.00    -0.265 OA
BRANCH   9  11
HETATM   11  C   UNK N   1      30.422  25.418  -3.534  0.00  0.00     0.102 A 
HETATM   12  C   UNK N   1      31.501  25.354  -4.616  0.00  0.00    -0.027 A 
HETATM   13  C   UNK N   1      30.041  25.511  -5.016  0.00  0.00     0.034 A 
HETATM   14  C   UNK N   1      32.383  26.585  -4.771  0.00  0.00     0.016 C 
HETATM   15  C   UNK N   1      32.074  24.009  -5.033  0.00  0.00     0.016 C 
BRANCH  13  16
HETATM   16  C   UNK N   1      29.589  26.924  -5.252  0.00  0.00     0.016 C 
HETATM   17  C   UNK N   1      28.926  27.291  -6.351  0.00  0.00     0.100 C 
HETATM   18 Cl   UNK N   1      28.547  26.144  -7.632  0.00  0.00    -0.071 Cl
HETATM   19 Cl   UNK N   1      28.423  28.962  -6.525  0.00  0.00    -0.071 Cl
ENDBRANCH  13  16
ENDBRANCH   9  11
ENDBRANCH   8   9
ENDBRANCH   7   8
ENDBRANCH   1   7
BRANCH   4  20
HETATM   20  O   UNK N   1      25.284  24.219  -7.009  0.00  0.00    -0.311 OA
BRANCH  20  21
HETATM   21  C   UNK N   1      25.805  23.041  -7.439  0.00  0.00     0.076 A 
HETATM   22  C   UNK N   1      25.002  21.891  -7.585  0.00  0.00     0.037 A 
HETATM   23  C   UNK N   1      25.544  20.711  -8.096  0.00  0.00     0.003 A 
HETATM   24  C   UNK N   1      26.888  20.667  -8.469  0.00  0.00     0.000 A 
HETATM   25  C   UNK N   1      27.692  21.802  -8.326  0.00  0.00     0.003 A 
HETATM   26  C   UNK N   1      27.150  22.986  -7.816  0.00  0.00     0.037 A 
ENDBRANCH  20  21
ENDBRANCH   4  20
TORSDOF 7
ENDMDL
MODEL 7
REMARK VINA RESULT:      -6.9      3.875      7.220
REMARK  7 active torsions:
REMARK  status: ('A' for Active; 'I' for Inactive)
REMARK    1  A    between atoms: O_3  and  C_12 
REMARK    2  A    between atoms: O_3  and  C_14 
REMARK    3  A    between atoms: O_5  and  C_18 
REMARK    4  A    between atoms: O_5  and  C_21 
REMARK    5  A    between atoms: C_7  and  C_11 
REMARK    6  A    between atoms: C_8  and  C_12 
REMARK    7  A    between atoms: C_14  and  C_15 
ROOT
HETATM    1  C   UNK N   1      30.207  25.001  -3.701  0.00  0.00    -0.031 A 
HETATM    2  C   UNK N   1      29.997  26.345  -3.387  0.00  0.00     0.046 A 
HETATM    3  C   UNK N   1      31.344  24.624  -4.425  0.00  0.00     0.009 A 
HETATM    4  C   UNK N   1      30.902  27.316  -3.814  0.00  0.00     0.076 A 
HETATM    5  C   UNK N   1      32.271  25.587  -4.828  0.00  0.00     0.003 A 
HETATM    6  C   UNK N   1      32.046  26.935  -4.534  0.00  0.00     0.037 A 
ENDROOT
BRANCH   1   7
HETATM    7  C   UNK N   1      29.198  23.977  -3.306  0.00  0.00     0.217 C 
BRANCH   7   8
HETATM    8  O   UNK N   1      28.230  23.845  -4.278  0.00  0.00    -0.317 OA
BRANCH   8   9
HETATM    9  C   UNK N   1      26.948  24.271  -4.122  0.00  0.00     0.264 C 
HETATM   10  O   UNK N   1      26.325  23.918  -3.136  0.00  0.00    -0.265 OA
BRANCH   9  11
HETATM   11  C   UNK N   1      26.260  25.121  -5.171  0.00  0.00     0.102 A 
HETATM   12  C   UNK N   1      25.934  26.548  -4.730  0.00  0.00    -0.027 A 
HETATM   13  C   UNK N   1      27.171  26.285  -5.577  0.00  0.00     0.034 A 
HETATM   14  C   UNK N   1      24.764  27.226  -5.430  0.00  0.00     0.016 C 
HETATM   15  C   UNK N   1      26.282  27.002  -3.322  0.00  0.00     0.016 C 
BRANCH  13  16
HETATM   16  C   UNK N   1      26.987  26.474  -7.056  0.00  0.00     0.016 C 
HETATM   17  C   UNK N   1      28.017  26.570  -7.900  0.00  0.00     0.100 C 
HETATM   18 Cl   UNK N   1      29.685  26.505  -7.340  0.00  0.00    -0.071 Cl
HETATM   19 Cl   UNK N   1      27.700  26.769  -9.613  0.00  0.00    -0.071 Cl
ENDBRANCH  13  16
ENDBRANCH   9  11
ENDBRANCH   8   9
ENDBRANCH   7   8
ENDBRANCH   1   7
BRANCH   4  20
HETATM   20  O   UNK N   1      30.630  28.618  -3.567  0.00  0.00    -0.311 OA
BRANCH  20  21
HETATM   21  C   UNK N   1      29.437  29.203  -3.842  0.00  0.00     0.076 A 
HETATM   22  C   UNK N   1      28.655  29.792  -2.828  0.00  0.00     0.037 A 
HETATM   23  C   UNK N   1      27.465  30.449  -3.145  0.00  0.00     0.003 A 
HETATM   24  C   UNK N   1      27.047  30.529  -4.474  0.00  0.00     0.000 A 
HETATM   25  C   UNK N   1      27.815  29.947  -5.486  0.00  0.00     0.003 A 
HETATM   26  C   UNK N   1      29.009  29.288  -5.171  0.00  0.00     0.037 A 
ENDBRANCH  20  21
ENDBRANCH   4  20
TORSDOF 7
ENDMDL
MODEL 8
REMARK VINA RESULT:      -6.9     10.936     13.499
REMARK  7 active torsions:
REMARK  status: ('A' for Active; 'I' for Inactive)
REMARK    1  A    between atoms: O_3  and  C_12 
REMARK    2  A    between atoms: O_3  and  C_14 
REMARK    3  A    between atoms: O_5  and  C_18 
REMARK    4  A    between atoms: O_5  and  C_21 
REMARK    5  A    between atoms: C_7  and  C_11 
REMARK    6  A    between atoms: C_8  and  C_12 
REMARK    7  A    between atoms: C_14  and  C_15 
ROOT
HETATM    1  C   UNK N   1      24.038  15.955   5.091  0.00  0.00    -0.031 A 
HETATM    2  C   UNK N   1      25.260  16.599   5.292  0.00  0.00     0.046 A 
HETATM    3  C   UNK N   1      23.798  15.271   3.894  0.00  0.00     0.009 A 
HETATM    4  C   UNK N   1      26.233  16.585   4.293  0.00  0.00     0.076 A 
HETATM    5  C   UNK N   1      24.781  15.225   2.903  0.00  0.00     0.003 A 
HETATM    6  C   UNK N   1      25.994  15.892   3.095  0.00  0.00     0.037 A 
ENDROOT
BRANCH   1   7
HETATM    7  C   UNK N   1      22.973  16.036   6.132  0.00  0.00     0.217 C 
BRANCH   7   8
HETATM    8  O   UNK N   1      21.787  16.475   5.585  0.00  0.00    -0.317 OA
BRANCH   8   9
HETATM    9  C   UNK N   1      21.442  17.787   5.498  0.00  0.00     0.264 C 
HETATM   10  O   UNK N   1      21.552  18.493   6.486  0.00  0.00    -0.265 OA
BRANCH   9  11
HETATM   11  C   UNK N   1      20.868  18.376   4.225  0.00  0.00     0.102 A 
HETATM   12  C   UNK N   1      21.878  19.112   3.344  0.00  0.00    -0.027 A 
HETATM   13  C   UNK N   1      21.485  17.681   3.006  0.00  0.00     0.034 A 
HETATM   14  C   UNK N   1      21.323  20.201   2.436  0.00  0.00     0.016 C 
HETATM   15  C   UNK N   1      23.327  19.225   3.789  0.00  0.00     0.016 C 
BRANCH  13  16
HETATM   16  C   UNK N   1      20.385  17.541   1.993  0.00  0.00     0.016 C 
HETATM   17  C   UNK N   1      20.312  16.506   1.152  0.00  0.00     0.100 C 
HETATM   18 Cl   UNK N   1      21.522  15.227   1.148  0.00  0.00    -0.071 Cl
HETATM   19 Cl   UNK N   1      18.977  16.421   0.019  0.00  0.00    -0.071 Cl
ENDBRANCH  13  16
ENDBRANCH   9  11
ENDBRANCH   8   9
ENDBRANCH   7   8
ENDBRANCH   1   7
BRANCH   4  20
HETATM   20  O   UNK N   1      27.374  17.287   4.482  0.00  0.00    -0.311 OA
BRANCH  20  21
HETATM   21  C   UNK N   1      27.412  18.528   5.031  0.00  0.00     0.076 A 
HETATM   22  C   UNK N   1      27.002  19.666   4.307  0.00  0.00     0.037 A 
HETATM   23  C   UNK N   1      26.983  20.922   4.915  0.00  0.00     0.003 A 
HETATM   24  C   UNK N   1      27.369  21.054   6.250  0.00  0.00     0.000 A 
HETATM   25  C   UNK N   1      27.779  19.932   6.975  0.00  0.00     0.003 A 
HETATM   26  C   UNK N   1      27.797  18.672   6.368  0.00  0.00     0.037 A 
ENDBRANCH  20  21
ENDBRANCH   4  20
TORSDOF 7
ENDMDL
MODEL 9
REMARK VINA RESULT:      -6.9     15.093     17.200
REMARK  7 active torsions:
REMARK  status: ('A' for Active; 'I' for Inactive)
REMARK    1  A    between atoms: O_3  and  C_12 
REMARK    2  A    between atoms: O_3  and  C_14 
REMARK    3  A    between atoms: O_5  and  C_18 
REMARK    4  A    between atoms: O_5  and  C_21 
REMARK    5  A    between atoms: C_7  and  C_11 
REMARK    6  A    between atoms: C_8  and  C_12 
REMARK    7  A    between atoms: C_14  and  C_15 
ROOT
HETATM    1  C   UNK N   1      20.982  13.799   9.895  0.00  0.00    -0.031 A 
HETATM    2  C   UNK N   1      22.305  13.917   9.463  0.00  0.00     0.046 A 
HETATM    3  C   UNK N   1      20.637  12.812  10.825  0.00  0.00     0.009 A 
HETATM    4  C   UNK N   1      23.278  13.038   9.937  0.00  0.00     0.076 A 
HETATM    5  C   UNK N   1      21.614  11.950  11.329  0.00  0.00     0.003 A 
HETATM    6  C   UNK N   1      22.932  12.053  10.877  0.00  0.00     0.037 A 
ENDROOT
BRANCH   1   7
HETATM    7  C   UNK N   1      19.932  14.692   9.328  0.00  0.00     0.217 C 
BRANCH   7   8
HETATM    8  O   UNK N   1      20.491  15.851   8.834  0.00  0.00    -0.317 OA
BRANCH   8   9
HETATM    9  C   UNK N   1      20.157  16.389   7.630  0.00  0.00     0.264 C 
HETATM   10  O   UNK N   1      19.032  16.213   7.196  0.00  0.00    -0.265 OA
BRANCH   9  11
HETATM   11  C   UNK N   1      21.166  17.149   6.792  0.00  0.00     0.102 A 
HETATM   12  C   UNK N   1      22.057  16.275   5.909  0.00  0.00    -0.027 A 
HETATM   13  C   UNK N   1      20.845  16.968   5.304  0.00  0.00     0.034 A 
HETATM   14  C   UNK N   1      23.420  16.845   5.542  0.00  0.00     0.016 C 
HETATM   15  C   UNK N   1      21.902  14.763   5.942  0.00  0.00     0.016 C 
BRANCH  13  16
HETATM   16  C   UNK N   1      21.127  18.289   4.644  0.00  0.00     0.016 C 
HETATM   17  C   UNK N   1      20.935  18.494   3.339  0.00  0.00     0.100 C 
HETATM   18 Cl   UNK N   1      20.356  17.216   2.274  0.00  0.00    -0.071 Cl
HETATM   19 Cl   UNK N   1      21.272  20.077   2.666  0.00  0.00    -0.071 Cl
ENDBRANCH  13  16
ENDBRANCH   9  11
ENDBRANCH   8   9
ENDBRANCH   7   8
ENDBRANCH   1   7
BRANCH   4  20
HETATM   20  O   UNK N   1      24.534  13.122   9.439  0.00  0.00    -0.311 OA
BRANCH  20  21
HETATM   21  C   UNK N   1      24.813  13.220   8.114  0.00  0.00     0.076 A 
HETATM   22  C   UNK N   1      25.511  14.326   7.590  0.00  0.00     0.037 A 
HETATM   23  C   UNK N   1      25.849  14.372   6.236  0.00  0.00     0.003 A 
HETATM   24  C   UNK N   1      25.498  13.315   5.396  0.00  0.00     0.000 A 
HETATM   25  C   UNK N   1      24.804  12.214   5.907  0.00  0.00     0.003 A 
HETATM   26  C   UNK N   1      24.466  12.166   7.264  0.00  0.00     0.037 A 
ENDBRANCH  20  21
ENDBRANCH   4  20
TORSDOF 7
ENDMDL
