MODEL 1
REMARK VINA RESULT:      -7.4      0.000      0.000
REMARK WARNING: 32 MAX_TORS EXCEEDED!!!
REMARK  55 active torsions:
REMARK  status: ('A' for Active; 'I' for Inactive)
REMARK    1  A    between atoms: O_12  and  C_101 
REMARK    2  A    between atoms: O_13  and  C_105 
REMARK    3  A    between atoms: O_17  and  C_115 
REMARK    4  A    between atoms: O_18  and  C_118 
REMARK       I    between atoms: N_20  and  C_47 
REMARK       I    between atoms: N_21  and  C_48 
REMARK    5  A    between atoms: C_51  and  N_21 
REMARK    6  A    between atoms: C_49  and  N_22 
REMARK       I    between atoms: N_22  and  C_58 
REMARK       I    between atoms: N_23  and  C_55 
REMARK    7  A    between atoms: N_24  and  C_59 
REMARK    8  A    between atoms: N_25  and  C_60 
REMARK       I    between atoms: N_25  and  C_62 
REMARK    9  A    between atoms: C_61  and  N_26 
REMARK       I    between atoms: N_26  and  C_66 
REMARK   10  A    between atoms: C_65  and  N_27 
REMARK       I    between atoms: N_27  and  C_73 
REMARK   11  A    between atoms: C_72  and  N_29 
REMARK       I    between atoms: N_29  and  C_81 
REMARK   12  A    between atoms: C_77  and  N_30 
REMARK       I    between atoms: N_30  and  C_87 
REMARK   13  A    between atoms: C_79  and  N_31 
REMARK       I    between atoms: N_31  and  C_89 
REMARK   14  A    between atoms: N_32  and  C_75 
REMARK       I    between atoms: N_32  and  C_98 
REMARK   15  A    between atoms: C_80  and  N_33 
REMARK       I    between atoms: N_33  and  C_95 
REMARK   16  A    between atoms: C_94  and  N_35 
REMARK       I    between atoms: N_35  and  C_106 
REMARK   17  A    between atoms: C_102  and  N_38 
REMARK       I    between atoms: N_38  and  C_111 
REMARK       I    between atoms: N_39  and  C_98 
REMARK   18  A    between atoms: C_112  and  N_42 
REMARK       I    between atoms: N_42  and  C_119 
REMARK   19  A    between atoms: C_43  and  C_48 
REMARK   20  A    between atoms: C_47  and  C_49 
REMARK   21  A    between atoms: C_49  and  C_50 
REMARK   22  A    between atoms: C_50  and  C_52 
REMARK   23  A    between atoms: C_51  and  C_53 
REMARK   24  A    between atoms: C_51  and  C_55 
REMARK   25  A    between atoms: C_52  and  C_54 
REMARK   26  A    between atoms: C_54  and  C_59 
REMARK   27  A    between atoms: C_58  and  C_60 
REMARK   28  A    between atoms: C_61  and  C_62 
REMARK   29  A    between atoms: C_61  and  C_63 
REMARK   30  A    between atoms: C_63  and  C_64 
REMARK   31  A    between atoms: C_65  and  C_66 
REMARK   32  A    between atoms: C_65  and  C_67 
REMARK   33  A    between atoms: C_67  and  C_71 
REMARK   34  A    between atoms: C_71  and  C_75 
REMARK   35  A    between atoms: C_72  and  C_73 
REMARK   36  A    between atoms: C_72  and  C_76 
REMARK   37  A    between atoms: C_76  and  C_88 
REMARK   38  A    between atoms: C_77  and  C_81 
REMARK   39  A    between atoms: C_77  and  C_84 
REMARK   40  A    between atoms: C_79  and  C_86 
REMARK   41  A    between atoms: C_79  and  C_87 
REMARK   42  A    between atoms: C_80  and  C_83 
REMARK   43  A    between atoms: C_80  and  C_89 
REMARK   44  A    between atoms: C_83  and  C_90 
REMARK   45  A    between atoms: C_84  and  C_91 
REMARK   46  A    between atoms: C_86  and  C_92 
REMARK   47  A    between atoms: C_90  and  C_93 
REMARK   48  A    between atoms: C_92  and  C_105 
REMARK   49  A    between atoms: C_94  and  C_95 
REMARK   50  A    between atoms: C_94  and  C_101 
REMARK   51  A    between atoms: C_102  and  C_106 
REMARK   52  A    between atoms: C_102  and  C_107 
REMARK   53  A    between atoms: C_107  and  C_110 
REMARK   54  A    between atoms: C_111  and  C_112 
REMARK   55  A    between atoms: C_112  and  C_115 
ROOT
HETATM    1  C   UNK N   1      26.892  15.067   5.548  0.00  0.00     0.180 C 
ENDROOT
BRANCH   1   2
HETATM    2  N   UNK N   1      27.077  15.994   4.451  0.00  0.00    -0.346 N 
HETATM    3  C   UNK N   1      28.050  16.938   4.386  0.00  0.00     0.241 C 
HETATM    4  O   UNK N   1      28.110  17.646   3.393  0.00  0.00    -0.271 OA
HETATM    5  H   UNK N   1      26.449  15.934   3.695  0.00  0.00     0.163 HD
BRANCH   3   6
HETATM    6  C   UNK N   1      29.077  17.113   5.510  0.00  0.00     0.182 C 
BRANCH   6   7
HETATM    7  N   UNK N   1      30.419  17.047   4.978  0.00  0.00    -0.346 N 
HETATM    8  C   UNK N   1      31.327  16.197   5.507  0.00  0.00     0.241 C 
HETATM    9  O   UNK N   1      31.023  15.505   6.472  0.00  0.00    -0.271 OA
HETATM   10  H   UNK N   1      30.675  17.626   4.223  0.00  0.00     0.163 HD
BRANCH   8  11
HETATM   11  C   UNK N   1      32.688  16.055   4.913  0.00  0.00     0.177 C 
BRANCH  11  12
HETATM   12  N   UNK N   1      33.474  17.158   5.415  0.00  0.00    -0.346 N 
HETATM   13  C   UNK N   1      34.169  17.078   6.580  0.00  0.00     0.241 C 
HETATM   14  O   UNK N   1      34.533  18.110   7.118  0.00  0.00    -0.271 OA
HETATM   15  H   UNK N   1      33.508  17.994   4.896  0.00  0.00     0.163 HD
BRANCH  13  16
HETATM   16  C   UNK N   1      34.640  15.758   7.163  0.00  0.00     0.176 C 
BRANCH  16  17
HETATM   17  N   UNK N   1      34.956  15.980   8.548  0.00  0.00    -0.346 N 
HETATM   18  C   UNK N   1      34.415  15.303   9.592  0.00  0.00     0.243 C 
HETATM   19  O   UNK N   1      33.250  14.942   9.577  0.00  0.00    -0.271 OA
HETATM   20  H   UNK N   1      35.619  16.678   8.755  0.00  0.00     0.163 HD
BRANCH  18  21
HETATM   21  C   UNK N   1      35.347  14.819  10.670  0.00  0.00     0.200 C 
BRANCH  21  22
HETATM   22  N   UNK N   1      34.726  13.683  11.327  0.00  0.00    -0.344 N 
HETATM   23  C   UNK N   1      35.258  12.426  11.399  0.00  0.00     0.241 C 
HETATM   24  O   UNK N   1      36.148  12.063  10.647  0.00  0.00    -0.271 OA
HETATM   25  H   UNK N   1      33.853  13.831  11.756  0.00  0.00     0.163 HD
BRANCH  23  26
HETATM   26  C   UNK N   1      34.792  11.530  12.487  0.00  0.00     0.180 C 
BRANCH  26  27
HETATM   27  N   UNK N   1      35.463  11.996  13.664  0.00  0.00    -0.346 N 
HETATM   28  C   UNK N   1      34.787  12.288  14.788  0.00  0.00     0.243 C 
HETATM   29  O   UNK N   1      33.619  11.948  14.923  0.00  0.00    -0.271 OA
HETATM   30  H   UNK N   1      36.441  12.106  13.648  0.00  0.00     0.163 HD
BRANCH  28  31
HETATM   31  C   UNK N   1      35.455  13.162  15.787  0.00  0.00     0.200 C 
BRANCH  31  32
HETATM   32  N   UNK N   1      35.319  12.612  17.122  0.00  0.00    -0.346 N 
HETATM   33  C   UNK N   1      35.292  13.351  18.260  0.00  0.00     0.214 C 
HETATM   34  O   UNK N   1      35.295  14.572  18.217  0.00  0.00    -0.274 OA
HETATM   35  C   UNK N   1      35.267  12.663  19.578  0.00  0.00     0.117 C 
HETATM   36  H   UNK N   1      35.240  11.634  17.209  0.00  0.00     0.163 HD
ENDBRANCH  31  32
BRANCH  31  37
HETATM   37  C   UNK N   1      36.874  13.544  15.430  0.00  0.00     0.199 C 
BRANCH  37  38
HETATM   38  O   UNK N   1      36.830  14.472  14.390  0.00  0.00    -0.398 OA
HETATM   39  H   UNK N   1      36.369  14.470  13.537  0.00  0.00     0.209 HD
ENDBRANCH  37  38
ENDBRANCH  31  37
ENDBRANCH  28  31
ENDBRANCH  26  27
BRANCH  26  40
HETATM   40  C   UNK N   1      35.243  10.112  12.082  0.00  0.00     0.073 C 
BRANCH  40  41
HETATM   41  C   UNK N   1      36.065   9.428  13.113  0.00  0.00    -0.056 A 
HETATM   42  C   UNK N   1      37.459   9.559  13.093  0.00  0.00     0.010 A 
HETATM   43  C   UNK N   1      38.230   8.987  14.101  0.00  0.00     0.037 A 
HETATM   44  C   UNK N   1      37.610   8.269  15.126  0.00  0.00     0.065 A 
HETATM   45  C   UNK N   1      36.220   8.103  15.126  0.00  0.00     0.037 A 
HETATM   46  C   UNK N   1      35.447   8.683  14.118  0.00  0.00     0.010 A 
BRANCH  44  47
HETATM   47  O   UNK N   1      38.349   7.747  16.115  0.00  0.00    -0.361 OA
HETATM   48  H   UNK N   1      38.612   8.282  16.837  0.00  0.00     0.217 HD
ENDBRANCH  44  47
ENDBRANCH  40  41
ENDBRANCH  26  40
ENDBRANCH  23  26
ENDBRANCH  21  22
BRANCH  21  49
HETATM   49  C   UNK N   1      35.599  15.979  11.642  0.00  0.00     0.199 C 
BRANCH  49  50
HETATM   50  O   UNK N   1      34.950  17.141  11.227  0.00  0.00    -0.398 OA
HETATM   51  H   UNK N   1      34.996  17.945  11.768  0.00  0.00     0.209 HD
ENDBRANCH  49  50
ENDBRANCH  21  49
ENDBRANCH  18  21
ENDBRANCH  16  17
BRANCH  16  52
HETATM   52  C   UNK N   1      35.632  14.884   6.409  0.00  0.00     0.035 C 
BRANCH  52  53
HETATM   53  C   UNK N   1      35.290  13.414   6.640  0.00  0.00     0.002 C 
BRANCH  53  54
HETATM   54  C   UNK N   1      33.789  13.176   6.536  0.00  0.00    -0.004 C 
HETATM   55  C   UNK N   1      33.525  11.945   5.694  0.00  0.00     0.005 C 
ENDBRANCH  53  54
ENDBRANCH  52  53
ENDBRANCH  16  52
ENDBRANCH  13  16
ENDBRANCH  11  12
BRANCH  11  56
HETATM   56  C   UNK N   1      32.685  15.970   3.385  0.00  0.00     0.045 C 
BRANCH  56  57
HETATM   57  C   UNK N   1      32.863  14.561   2.857  0.00  0.00     0.112 C 
BRANCH  57  58
HETATM   58  C   UNK N   1      34.274  14.377   2.408  0.00  0.00     0.139 C 
HETATM   59  O   UNK N   1      35.067  13.766   3.105  0.00  0.00    -0.650 OA
BRANCH  58  60
HETATM   60  O   UNK N   1      34.674  14.894   1.232  0.00  0.00    -0.776 OA
HETATM   61  H   UNK N   1      34.879  14.756   0.329  0.00  0.00     0.167 HD
ENDBRANCH  58  60
ENDBRANCH  57  58
ENDBRANCH  56  57
ENDBRANCH  11  56
ENDBRANCH   8  11
ENDBRANCH   6   7
BRANCH   6  62
HETATM   62  C   UNK N   1      28.929  18.427   6.284  0.00  0.00     0.093 C 
BRANCH  62  63
HETATM   63  C   UNK N   1      29.026  18.208   7.749  0.00  0.00     0.028 A 
HETATM   64  N   UNK N   1      27.993  17.851   8.525  0.00  0.00    -0.354 N 
HETATM   65  C   UNK N   1      28.515  17.731   9.761  0.00  0.00     0.180 A 
HETATM   66  H   UNK N   1      27.058  17.707   8.251  0.00  0.00     0.166 HD
HETATM   67  N   UNK N   1      29.836  18.004   9.773  0.00  0.00    -0.360 N 
HETATM   68  C   UNK N   1      30.162  18.308   8.506  0.00  0.00     0.114 A 
ATOM     69  HN  UNK N   1      30.459  17.982  10.580  1.00  0.00     0.166 HD
ENDBRANCH  62  63
ENDBRANCH   6  62
ENDBRANCH   3   6
ENDBRANCH   1   2
BRANCH   1  70
HETATM   70  C   UNK N   1      25.887  15.537   6.565  0.00  0.00     0.241 C 
HETATM   71  O   UNK N   1      26.291  15.805   7.684  0.00  0.00    -0.271 OA
HETATM   72  N   UNK N   1      24.575  15.741   6.285  0.00  0.00    -0.346 N 
HETATM   73  H   UNK N   1      24.008  16.022   7.039  0.00  0.00     0.163 HD
BRANCH  72  74
HETATM   74  C   UNK N   1      23.910  15.591   5.002  0.00  0.00     0.176 C 
BRANCH  74  75
HETATM   75  C   UNK N   1      22.771  14.605   5.075  0.00  0.00     0.241 C 
HETATM   76  O   UNK N   1      22.247  14.387   6.156  0.00  0.00    -0.271 OA
HETATM   77  N   UNK N   1      22.300  13.973   3.970  0.00  0.00    -0.346 N 
HETATM   78  H   UNK N   1      21.556  13.337   4.076  0.00  0.00     0.163 HD
BRANCH  77  79
HETATM   79  C   UNK N   1      22.838  14.190   2.642  0.00  0.00     0.181 C 
BRANCH  79  80
HETATM   80  C   UNK N   1      21.862  14.445   1.536  0.00  0.00     0.241 C 
HETATM   81  O   UNK N   1      22.042  15.384   0.780  0.00  0.00    -0.271 OA
HETATM   82  N   UNK N   1      20.788  13.642   1.362  0.00  0.00    -0.351 N 
HETATM   83  H   UNK N   1      20.135  13.860   0.658  0.00  0.00     0.163 HD
BRANCH  82  84
HETATM   84  C   UNK N   1      20.575  12.474   2.185  0.00  0.00     0.225 C 
BRANCH  84  85
HETATM   85  C   UNK N   1      19.262  12.553   2.931  0.00  0.00     0.236 C 
HETATM   86  O   UNK N   1      18.426  13.385   2.614  0.00  0.00    -0.272 OA
HETATM   87  N   UNK N   1      18.992  11.710   3.958  0.00  0.00    -0.346 N 
HETATM   88  H   UNK N   1      18.132  11.814   4.427  0.00  0.00     0.163 HD
BRANCH  87  89
HETATM   89  C   UNK N   1      19.888  10.666   4.407  0.00  0.00     0.176 C 
BRANCH  89  90
HETATM   90  C   UNK N   1      20.765  11.155   5.542  0.00  0.00     0.243 C 
HETATM   91  O   UNK N   1      20.317  11.985   6.310  0.00  0.00    -0.271 OA
HETATM   92  N   UNK N   1      22.039  10.682   5.693  0.00  0.00    -0.337 N 
HETATM   93  C   UNK N   1      22.970  11.273   6.624  0.00  0.00     0.179 C 
HETATM   94  C   UNK N   1      22.645   9.790   4.750  0.00  0.00     0.127 C 
HETATM   95  C   UNK N   1      24.243  11.273   5.794  0.00  0.00     0.037 C 
HETATM   96  C   UNK N   1      24.132  10.063   4.866  0.00  0.00     0.022 C 
BRANCH  93  97
HETATM   97  C   UNK N   1      23.190  10.376   7.831  0.00  0.00     0.241 C 
HETATM   98  O   UNK N   1      23.428   9.189   7.667  0.00  0.00    -0.271 OA
HETATM   99  N   UNK N   1      23.181  10.872   9.099  0.00  0.00    -0.346 N 
HETATM  100  H   UNK N   1      23.362  10.237   9.830  0.00  0.00     0.163 HD
BRANCH  99 101
HETATM  101  C   UNK N   1      22.926  12.256   9.469  0.00  0.00     0.179 C 
BRANCH 101 102
HETATM  102  C   UNK N   1      23.957  12.893  10.404  0.00  0.00     0.009 C 
HETATM  103  C   UNK N   1      24.322  11.994  11.571  0.00  0.00     0.012 C 
HETATM  104  C   UNK N   1      25.204  13.251   9.622  0.00  0.00     0.012 C 
ENDBRANCH 101 102
BRANCH 101 105
HETATM  105  C   UNK N   1      21.488  12.693   9.568  0.00  0.00     0.238 C 
HETATM  106  O   UNK N   1      20.787  12.278  10.476  0.00  0.00    -0.271 OA
HETATM  107  N   UNK N   1      20.941  13.461   8.604  0.00  0.00    -0.368 N 
HETATM  108  H   UNK N   1      20.386  14.074   8.069  0.00  0.00     0.159 HD
HETATM  109  H   UNK N   1      21.589  13.241   7.896  0.00  0.00     0.159 HD
ENDBRANCH 101 105
ENDBRANCH  99 101
ENDBRANCH  93  97
ENDBRANCH  89  90
BRANCH  89 110
HETATM  110  C   UNK N   1      19.101   9.445   4.894  0.00  0.00     0.035 C 
BRANCH 110 111
HETATM  111  C   UNK N   1      19.081   8.291   3.900  0.00  0.00     0.004 C 
BRANCH 111 112
HETATM  112  C   UNK N   1      19.343   6.957   4.589  0.00  0.00     0.019 C 
BRANCH 112 113
HETATM  113  C   UNK N   1      19.293   7.085   6.104  0.00  0.00     0.111 C 
BRANCH 113 114
HETATM  114  N   UNK N   1      18.104   6.437   6.628  0.00  0.00    -0.430 N 
HETATM  115  H   UNK N   1      17.810   6.455   7.605  0.00  0.00     0.149 HD
HETATM  116  H   UNK N   1      17.518   5.925   5.970  0.00  0.00     0.149 HD
ENDBRANCH 113 114
ENDBRANCH 112 113
ENDBRANCH 111 112
ENDBRANCH 110 111
ENDBRANCH  89 110
ENDBRANCH  87  89
ENDBRANCH  84  85
ENDBRANCH  82  84
ENDBRANCH  79  80
BRANCH  79 117
HETATM  117  C   UNK N   1      24.324  13.975   2.371  0.00  0.00     0.075 C 
BRANCH 117 118
HETATM  118  C   UNK N   1      24.675  12.592   1.901  0.00  0.00    -0.028 A 
HETATM  119  C   UNK N   1      25.931  12.167   1.563  0.00  0.00    -0.002 A 
HETATM  120  C   UNK N   1      25.828  10.851   1.219  0.00  0.00     0.042 A 
HETATM  121  C   UNK N   1      27.151  12.837   1.551  0.00  0.00     0.014 A 
HETATM  122  N   UNK N   1      24.557  10.423   1.320  0.00  0.00    -0.365 N 
HETATM  123  C   UNK N   1      26.937  10.101   0.839  0.00  0.00     0.030 A 
HETATM  124  C   UNK N   1      23.835  11.490   1.746  0.00  0.00     0.096 A 
HETATM  125  H   UNK N   1      24.220   9.519   1.125  0.00  0.00     0.165 HD
HETATM  126  C   UNK N   1      28.188  10.747   0.822  0.00  0.00     0.002 A 
HETATM  127  C   UNK N   1      28.294  12.111   1.177  0.00  0.00     0.001 A 
ENDBRANCH 117 118
ENDBRANCH  79 117
ENDBRANCH  77  79
ENDBRANCH  74  75
BRANCH  74 128
HETATM  128  C   UNK N   1      23.363  16.941   4.536  0.00  0.00     0.036 C 
BRANCH 128 129
HETATM  129  C   UNK N   1      22.629  17.689   5.644  0.00  0.00     0.023 C 
BRANCH 129 130
HETATM  130  C   UNK N   1      21.148  17.787   5.333  0.00  0.00     0.138 C 
BRANCH 130 131
HETATM  131  N   UNK N   1      20.951  17.743   3.909  0.00  0.00    -0.227 N 
HETATM  132  C   UNK N   1      19.940  16.943   3.328  0.00  0.00     0.665 C 
HETATM  133  N   UNK N   1      19.184  16.049   4.122  0.00  0.00    -0.235 N 
HETATM  134  N   UNK N   1      19.684  17.056   2.079  0.00  0.00    -0.235 N 
HETATM  135  H   UNK N   1      19.059  16.009   5.098  0.00  0.00     0.174 HD
HETATM  136  H   UNK N   1      18.706  15.352   3.617  0.00  0.00     0.174 HD
HETATM  137  H   UNK N   1      18.898  17.098   1.487  0.00  0.00     0.174 HD
ATOM    138  HN  UNK N   1      20.546  17.122   1.539  1.00  0.00     0.174 HD
HETATM  139  H   UNK N   1      21.533  18.282   3.327  0.00  0.00     0.177 HD
ENDBRANCH 130 131
ENDBRANCH 129 130
ENDBRANCH 128 129
ENDBRANCH  74 128
ENDBRANCH  72  74
ENDBRANCH   1  70
BRANCH   1 140
HETATM  140  C   UNK N   1      26.522  13.691   5.017  0.00  0.00     0.073 C 
BRANCH 140 141
HETATM  141  C   UNK N   1      27.733  12.842   4.817  0.00  0.00    -0.056 A 
HETATM  142  C   UNK N   1      27.633  11.445   4.783  0.00  0.00     0.007 A 
HETATM  143  C   UNK N   1      28.778  10.664   4.598  0.00  0.00     0.001 A 
HETATM  144  C   UNK N   1      30.026  11.278   4.450  0.00  0.00     0.000 A 
HETATM  145  C   UNK N   1      30.130  12.671   4.491  0.00  0.00     0.001 A 
HETATM  146  C   UNK N   1      28.985  13.452   4.673  0.00  0.00     0.007 A 
ENDBRANCH 140 141
ENDBRANCH   1 140
TORSDOF 55
ENDMDL
MODEL 2
REMARK VINA RESULT:      -7.2      1.400      2.178
REMARK WARNING: 32 MAX_TORS EXCEEDED!!!
REMARK  55 active torsions:
REMARK  status: ('A' for Active; 'I' for Inactive)
REMARK    1  A    between atoms: O_12  and  C_101 
REMARK    2  A    between atoms: O_13  and  C_105 
REMARK    3  A    between atoms: O_17  and  C_115 
REMARK    4  A    between atoms: O_18  and  C_118 
REMARK       I    between atoms: N_20  and  C_47 
REMARK       I    between atoms: N_21  and  C_48 
REMARK    5  A    between atoms: C_51  and  N_21 
REMARK    6  A    between atoms: C_49  and  N_22 
REMARK       I    between atoms: N_22  and  C_58 
REMARK       I    between atoms: N_23  and  C_55 
REMARK    7  A    between atoms: N_24  and  C_59 
REMARK    8  A    between atoms: N_25  and  C_60 
REMARK       I    between atoms: N_25  and  C_62 
REMARK    9  A    between atoms: C_61  and  N_26 
REMARK       I    between atoms: N_26  and  C_66 
REMARK   10  A    between atoms: C_65  and  N_27 
REMARK       I    between atoms: N_27  and  C_73 
REMARK   11  A    between atoms: C_72  and  N_29 
REMARK       I    between atoms: N_29  and  C_81 
REMARK   12  A    between atoms: C_77  and  N_30 
REMARK       I    between atoms: N_30  and  C_87 
REMARK   13  A    between atoms: C_79  and  N_31 
REMARK       I    between atoms: N_31  and  C_89 
REMARK   14  A    between atoms: N_32  and  C_75 
REMARK       I    between atoms: N_32  and  C_98 
REMARK   15  A    between atoms: C_80  and  N_33 
REMARK       I    between atoms: N_33  and  C_95 
REMARK   16  A    between atoms: C_94  and  N_35 
REMARK       I    between atoms: N_35  and  C_106 
REMARK   17  A    between atoms: C_102  and  N_38 
REMARK       I    between atoms: N_38  and  C_111 
REMARK       I    between atoms: N_39  and  C_98 
REMARK   18  A    between atoms: C_112  and  N_42 
REMARK       I    between atoms: N_42  and  C_119 
REMARK   19  A    between atoms: C_43  and  C_48 
REMARK   20  A    between atoms: C_47  and  C_49 
REMARK   21  A    between atoms: C_49  and  C_50 
REMARK   22  A    between atoms: C_50  and  C_52 
REMARK   23  A    between atoms: C_51  and  C_53 
REMARK   24  A    between atoms: C_51  and  C_55 
REMARK   25  A    between atoms: C_52  and  C_54 
REMARK   26  A    between atoms: C_54  and  C_59 
REMARK   27  A    between atoms: C_58  and  C_60 
REMARK   28  A    between atoms: C_61  and  C_62 
REMARK   29  A    between atoms: C_61  and  C_63 
REMARK   30  A    between atoms: C_63  and  C_64 
REMARK   31  A    between atoms: C_65  and  C_66 
REMARK   32  A    between atoms: C_65  and  C_67 
REMARK   33  A    between atoms: C_67  and  C_71 
REMARK   34  A    between atoms: C_71  and  C_75 
REMARK   35  A    between atoms: C_72  and  C_73 
REMARK   36  A    between atoms: C_72  and  C_76 
REMARK   37  A    between atoms: C_76  and  C_88 
REMARK   38  A    between atoms: C_77  and  C_81 
REMARK   39  A    between atoms: C_77  and  C_84 
REMARK   40  A    between atoms: C_79  and  C_86 
REMARK   41  A    between atoms: C_79  and  C_87 
REMARK   42  A    between atoms: C_80  and  C_83 
REMARK   43  A    between atoms: C_80  and  C_89 
REMARK   44  A    between atoms: C_83  and  C_90 
REMARK   45  A    between atoms: C_84  and  C_91 
REMARK   46  A    between atoms: C_86  and  C_92 
REMARK   47  A    between atoms: C_90  and  C_93 
REMARK   48  A    between atoms: C_92  and  C_105 
REMARK   49  A    between atoms: C_94  and  C_95 
REMARK   50  A    between atoms: C_94  and  C_101 
REMARK   51  A    between atoms: C_102  and  C_106 
REMARK   52  A    between atoms: C_102  and  C_107 
REMARK   53  A    between atoms: C_107  and  C_110 
REMARK   54  A    between atoms: C_111  and  C_112 
REMARK   55  A    between atoms: C_112  and  C_115 
ROOT
HETATM    1  C   UNK N   1      27.016  14.919   5.323  0.00  0.00     0.180 C 
ENDROOT
BRANCH   1   2
HETATM    2  N   UNK N   1      27.168  15.636   4.074  0.00  0.00    -0.346 N 
HETATM    3  C   UNK N   1      28.073  16.621   3.847  0.00  0.00     0.241 C 
HETATM    4  O   UNK N   1      28.113  17.134   2.740  0.00  0.00    -0.271 OA
HETATM    5  H   UNK N   1      26.567  15.390   3.333  0.00  0.00     0.163 HD
BRANCH   3   6
HETATM    6  C   UNK N   1      29.053  17.078   4.933  0.00  0.00     0.182 C 
BRANCH   6   7
HETATM    7  N   UNK N   1      30.415  16.935   4.472  0.00  0.00    -0.346 N 
HETATM    8  C   UNK N   1      31.291  16.159   5.148  0.00  0.00     0.241 C 
HETATM    9  O   UNK N   1      30.941  15.603   6.183  0.00  0.00    -0.271 OA
HETATM   10  H   UNK N   1      30.708  17.408   3.659  0.00  0.00     0.163 HD
BRANCH   8  11
HETATM   11  C   UNK N   1      32.675  15.934   4.637  0.00  0.00     0.177 C 
BRANCH  11  12
HETATM   12  N   UNK N   1      33.477  17.034   5.117  0.00  0.00    -0.346 N 
HETATM   13  C   UNK N   1      34.192  16.957   6.270  0.00  0.00     0.241 C 
HETATM   14  O   UNK N   1      34.573  17.990   6.794  0.00  0.00    -0.271 OA
HETATM   15  H   UNK N   1      33.506  17.867   4.592  0.00  0.00     0.163 HD
BRANCH  13  16
HETATM   16  C   UNK N   1      34.666  15.638   6.852  0.00  0.00     0.176 C 
BRANCH  16  17
HETATM   17  N   UNK N   1      35.015  15.867   8.227  0.00  0.00    -0.346 N 
HETATM   18  C   UNK N   1      34.373  15.336   9.298  0.00  0.00     0.243 C 
HETATM   19  O   UNK N   1      33.165  15.168   9.292  0.00  0.00    -0.271 OA
HETATM   20  H   UNK N   1      35.782  16.458   8.408  0.00  0.00     0.163 HD
BRANCH  18  21
HETATM   21  C   UNK N   1      35.216  14.756  10.402  0.00  0.00     0.200 C 
BRANCH  21  22
HETATM   22  N   UNK N   1      34.610  13.505  10.822  0.00  0.00    -0.344 N 
HETATM   23  C   UNK N   1      35.148  12.264  10.628  0.00  0.00     0.241 C 
HETATM   24  O   UNK N   1      36.027  12.068   9.804  0.00  0.00    -0.271 OA
HETATM   25  H   UNK N   1      33.743  13.556  11.286  0.00  0.00     0.163 HD
BRANCH  23  26
HETATM   26  C   UNK N   1      34.703  11.161  11.518  0.00  0.00     0.180 C 
BRANCH  26  27
HETATM   27  N   UNK N   1      35.529  11.269  12.683  0.00  0.00    -0.346 N 
HETATM   28  C   UNK N   1      35.001  11.281  13.918  0.00  0.00     0.243 C 
HETATM   29  O   UNK N   1      33.833  10.966  14.104  0.00  0.00    -0.271 OA
HETATM   30  H   UNK N   1      36.506  11.339  12.576  0.00  0.00     0.163 HD
BRANCH  28  31
HETATM   31  C   UNK N   1      35.835  11.829  15.020  0.00  0.00     0.200 C 
BRANCH  31  32
HETATM   32  N   UNK N   1      36.441  10.758  15.786  0.00  0.00    -0.346 N 
HETATM   33  C   UNK N   1      35.973  10.303  16.977  0.00  0.00     0.214 C 
HETATM   34  O   UNK N   1      34.929  10.728  17.446  0.00  0.00    -0.274 OA
HETATM   35  C   UNK N   1      36.751   9.279  17.724  0.00  0.00     0.117 C 
HETATM   36  H   UNK N   1      37.248  10.330  15.418  0.00  0.00     0.163 HD
ENDBRANCH  31  32
BRANCH  31  37
HETATM   37  C   UNK N   1      36.815  12.896  14.586  0.00  0.00     0.199 C 
BRANCH  37  38
HETATM   38  O   UNK N   1      36.095  14.041  14.248  0.00  0.00    -0.398 OA
HETATM   39  H   UNK N   1      36.367  14.962  14.110  0.00  0.00     0.209 HD
ENDBRANCH  37  38
ENDBRANCH  31  37
ENDBRANCH  28  31
ENDBRANCH  26  27
BRANCH  26  40
HETATM   40  C   UNK N   1      34.969   9.861  10.733  0.00  0.00     0.073 C 
BRANCH  40  41
HETATM   41  C   UNK N   1      33.809   9.400   9.926  0.00  0.00    -0.056 A 
HETATM   42  C   UNK N   1      32.738   8.753  10.553  0.00  0.00     0.010 A 
HETATM   43  C   UNK N   1      31.613   8.390   9.817  0.00  0.00     0.037 A 
HETATM   44  C   UNK N   1      31.562   8.661   8.448  0.00  0.00     0.065 A 
HETATM   45  C   UNK N   1      32.649   9.271   7.812  0.00  0.00     0.037 A 
HETATM   46  C   UNK N   1      33.775   9.641   8.552  0.00  0.00     0.010 A 
BRANCH  44  47
HETATM   47  O   UNK N   1      30.466   8.342   7.746  0.00  0.00    -0.361 OA
HETATM   48  H   UNK N   1      29.725   8.916   7.746  0.00  0.00     0.217 HD
ENDBRANCH  44  47
ENDBRANCH  40  41
ENDBRANCH  26  40
ENDBRANCH  23  26
ENDBRANCH  21  22
BRANCH  21  49
HETATM   49  C   UNK N   1      35.278  15.779  11.544  0.00  0.00     0.199 C 
BRANCH  49  50
HETATM   50  O   UNK N   1      34.983  17.064  11.092  0.00  0.00    -0.398 OA
HETATM   51  H   UNK N   1      34.953  17.805  11.718  0.00  0.00     0.209 HD
ENDBRANCH  49  50
ENDBRANCH  21  49
ENDBRANCH  18  21
ENDBRANCH  16  17
BRANCH  16  52
HETATM   52  C   UNK N   1      35.632  14.749   6.083  0.00  0.00     0.035 C 
BRANCH  52  53
HETATM   53  C   UNK N   1      35.335  13.285   6.397  0.00  0.00     0.002 C 
BRANCH  53  54
HETATM   54  C   UNK N   1      33.839  13.004   6.342  0.00  0.00    -0.004 C 
HETATM   55  C   UNK N   1      33.570  11.857   5.391  0.00  0.00     0.005 C 
ENDBRANCH  53  54
ENDBRANCH  52  53
ENDBRANCH  16  52
ENDBRANCH  13  16
ENDBRANCH  11  12
BRANCH  11  56
HETATM   56  C   UNK N   1      32.746  15.759   3.117  0.00  0.00     0.045 C 
BRANCH  56  57
HETATM   57  C   UNK N   1      33.005  14.331   2.684  0.00  0.00     0.112 C 
BRANCH  57  58
HETATM   58  C   UNK N   1      34.416  14.205   2.216  0.00  0.00     0.139 C 
HETATM   59  O   UNK N   1      35.198  13.478   2.808  0.00  0.00    -0.650 OA
BRANCH  58  60
HETATM   60  O   UNK N   1      34.828  14.901   1.142  0.00  0.00    -0.776 OA
HETATM   61  H   UNK N   1      35.037  14.909   0.229  0.00  0.00     0.167 HD
ENDBRANCH  58  60
ENDBRANCH  57  58
ENDBRANCH  56  57
ENDBRANCH  11  56
ENDBRANCH   8  11
ENDBRANCH   6   7
BRANCH   6  62
HETATM   62  C   UNK N   1      28.844  18.528   5.383  0.00  0.00     0.093 C 
BRANCH  62  63
HETATM   63  C   UNK N   1      28.504  18.605   6.826  0.00  0.00     0.028 A 
HETATM   64  N   UNK N   1      29.072  17.845   7.773  0.00  0.00    -0.354 N 
HETATM   65  C   UNK N   1      28.507  18.251   8.926  0.00  0.00     0.180 A 
HETATM   66  H   UNK N   1      29.755  17.146   7.652  0.00  0.00     0.166 HD
HETATM   67  N   UNK N   1      27.607  19.235   8.721  0.00  0.00    -0.360 N 
HETATM   68  C   UNK N   1      27.600  19.459   7.396  0.00  0.00     0.114 A 
ATOM     69  HN  UNK N   1      27.048  19.711   9.429  1.00  0.00     0.166 HD
ENDBRANCH  62  63
ENDBRANCH   6  62
ENDBRANCH   3   6
ENDBRANCH   1   2
BRANCH   1  70
HETATM   70  C   UNK N   1      26.102  15.607   6.301  0.00  0.00     0.241 C 
HETATM   71  O   UNK N   1      26.580  15.997   7.352  0.00  0.00    -0.271 OA
HETATM   72  N   UNK N   1      24.796  15.875   6.046  0.00  0.00    -0.346 N 
HETATM   73  H   UNK N   1      24.291  16.304   6.773  0.00  0.00     0.163 HD
BRANCH  72  74
HETATM   74  C   UNK N   1      24.057  15.600   4.825  0.00  0.00     0.176 C 
BRANCH  74  75
HETATM   75  C   UNK N   1      23.028  14.517   5.027  0.00  0.00     0.241 C 
HETATM   76  O   UNK N   1      22.605  14.306   6.153  0.00  0.00    -0.271 OA
HETATM   77  N   UNK N   1      22.544  13.788   3.989  0.00  0.00    -0.346 N 
HETATM   78  H   UNK N   1      21.875  13.090   4.179  0.00  0.00     0.163 HD
BRANCH  77  79
HETATM   79  C   UNK N   1      22.963  13.986   2.617  0.00  0.00     0.181 C 
BRANCH  79  80
HETATM   80  C   UNK N   1      21.900  14.294   1.609  0.00  0.00     0.241 C 
HETATM   81  O   UNK N   1      22.065  15.211   0.823  0.00  0.00    -0.271 OA
HETATM   82  N   UNK N   1      20.765  13.562   1.556  0.00  0.00    -0.351 N 
HETATM   83  H   UNK N   1      20.060  13.816   0.916  0.00  0.00     0.163 HD
BRANCH  82  84
HETATM   84  C   UNK N   1      20.558  12.420   2.415  0.00  0.00     0.225 C 
BRANCH  84  85
HETATM   85  C   UNK N   1      19.206  12.469   3.089  0.00  0.00     0.236 C 
HETATM   86  O   UNK N   1      18.388  13.315   2.761  0.00  0.00    -0.272 OA
HETATM   87  N   UNK N   1      18.879  11.583   4.062  0.00  0.00    -0.346 N 
HETATM   88  H   UNK N   1      17.995  11.669   4.487  0.00  0.00     0.163 HD
BRANCH  87  89
HETATM   89  C   UNK N   1      19.750  10.519   4.516  0.00  0.00     0.176 C 
BRANCH  89  90
HETATM   90  C   UNK N   1      20.741  11.030   5.542  0.00  0.00     0.243 C 
HETATM   91  O   UNK N   1      20.409  11.948   6.267  0.00  0.00    -0.271 OA
HETATM   92  N   UNK N   1      21.988  10.478   5.644  0.00  0.00    -0.337 N 
HETATM   93  C   UNK N   1      23.023  11.069   6.455  0.00  0.00     0.179 C 
HETATM   94  C   UNK N   1      22.459   9.473   4.737  0.00  0.00     0.127 C 
HETATM   95  C   UNK N   1      24.228  10.910   5.541  0.00  0.00     0.037 C 
HETATM   96  C   UNK N   1      23.966   9.643   4.727  0.00  0.00     0.022 C 
BRANCH  93  97
HETATM   97  C   UNK N   1      23.272  10.256   7.714  0.00  0.00     0.241 C 
HETATM   98  O   UNK N   1      23.524   9.064   7.624  0.00  0.00    -0.271 OA
HETATM   99  N   UNK N   1      23.276  10.834   8.948  0.00  0.00    -0.346 N 
HETATM  100  H   UNK N   1      23.475  10.250   9.715  0.00  0.00     0.163 HD
BRANCH  99 101
HETATM  101  C   UNK N   1      23.009  12.235   9.230  0.00  0.00     0.179 C 
BRANCH 101 102
HETATM  102  C   UNK N   1      24.152  13.007   9.894  0.00  0.00     0.009 C 
HETATM  103  C   UNK N   1      24.826  12.217  11.001  0.00  0.00     0.012 C 
HETATM  104  C   UNK N   1      25.175  13.403   8.851  0.00  0.00     0.012 C 
ENDBRANCH 101 102
BRANCH 101 105
HETATM  105  C   UNK N   1      21.589  12.619   9.556  0.00  0.00     0.238 C 
HETATM  106  O   UNK N   1      21.059  12.189  10.567  0.00  0.00    -0.271 OA
HETATM  107  N   UNK N   1      20.865  13.353   8.687  0.00  0.00    -0.368 N 
HETATM  108  H   UNK N   1      20.208  13.937   8.244  0.00  0.00     0.159 HD
HETATM  109  H   UNK N   1      21.400  13.149   7.886  0.00  0.00     0.159 HD
ENDBRANCH 101 105
ENDBRANCH  99 101
ENDBRANCH  93  97
ENDBRANCH  89  90
BRANCH  89 110
HETATM  110  C   UNK N   1      18.938   9.384   5.147  0.00  0.00     0.035 C 
BRANCH 110 111
HETATM  111  C   UNK N   1      17.810   8.869   4.262  0.00  0.00     0.004 C 
BRANCH 111 112
HETATM  112  C   UNK N   1      18.077   7.444   3.792  0.00  0.00     0.019 C 
BRANCH 112 113
HETATM  113  C   UNK N   1      19.283   7.371   2.866  0.00  0.00     0.111 C 
BRANCH 113 114
HETATM  114  N   UNK N   1      20.255   6.421   3.376  0.00  0.00    -0.430 N 
HETATM  115  H   UNK N   1      20.848   6.571   4.193  0.00  0.00     0.149 HD
HETATM  116  H   UNK N   1      20.353   5.535   2.880  0.00  0.00     0.149 HD
ENDBRANCH 113 114
ENDBRANCH 112 113
ENDBRANCH 111 112
ENDBRANCH 110 111
ENDBRANCH  89 110
ENDBRANCH  87  89
ENDBRANCH  84  85
ENDBRANCH  82  84
ENDBRANCH  79  80
BRANCH  79 117
HETATM  117  C   UNK N   1      24.405  13.700   2.206  0.00  0.00     0.075 C 
BRANCH 117 118
HETATM  118  C   UNK N   1      24.653  12.289   1.754  0.00  0.00    -0.028 A 
HETATM  119  C   UNK N   1      25.876  11.766   1.431  0.00  0.00    -0.002 A 
HETATM  120  C   UNK N   1      25.675  10.458   1.100  0.00  0.00     0.042 A 
HETATM  121  C   UNK N   1      27.143  12.342   1.421  0.00  0.00     0.014 A 
HETATM  122  N   UNK N   1      24.375  10.129   1.196  0.00  0.00    -0.365 N 
HETATM  123  C   UNK N   1      26.727   9.622   0.737  0.00  0.00     0.030 A 
HETATM  124  C   UNK N   1      23.733  11.252   1.604  0.00  0.00     0.096 A 
HETATM  125  H   UNK N   1      23.971   9.251   1.008  0.00  0.00     0.165 HD
HETATM  126  C   UNK N   1      28.024  10.170   0.723  0.00  0.00     0.002 A 
HETATM  127  C   UNK N   1      28.230  11.526   1.064  0.00  0.00     0.001 A 
ENDBRANCH 117 118
ENDBRANCH  79 117
ENDBRANCH  77  79
ENDBRANCH  74  75
BRANCH  74 128
HETATM  128  C   UNK N   1      23.349  16.868   4.346  0.00  0.00     0.036 C 
BRANCH 128 129
HETATM  129  C   UNK N   1      22.975  17.799   5.495  0.00  0.00     0.023 C 
BRANCH 129 130
HETATM  130  C   UNK N   1      21.478  17.782   5.730  0.00  0.00     0.138 C 
BRANCH 130 131
HETATM  131  N   UNK N   1      20.806  17.369   4.528  0.00  0.00    -0.227 N 
HETATM  132  C   UNK N   1      19.881  16.299   4.529  0.00  0.00     0.665 C 
HETATM  133  N   UNK N   1      19.698  15.508   5.688  0.00  0.00    -0.235 N 
HETATM  134  N   UNK N   1      19.180  16.068   3.485  0.00  0.00    -0.235 N 
HETATM  135  H   UNK N   1      19.941  15.681   6.626  0.00  0.00     0.174 HD
HETATM  136  H   UNK N   1      19.257  14.642   5.530  0.00  0.00     0.174 HD
HETATM  137  H   UNK N   1      18.250  15.837   3.254  0.00  0.00     0.174 HD
ATOM    138  HN  UNK N   1      19.751  16.144   2.643  1.00  0.00     0.174 HD
HETATM  139  H   UNK N   1      20.994  17.842   3.685  0.00  0.00     0.177 HD
ENDBRANCH 130 131
ENDBRANCH 129 130
ENDBRANCH 128 129
ENDBRANCH  74 128
ENDBRANCH  72  74
ENDBRANCH   1  70
BRANCH   1 140
HETATM  140  C   UNK N   1      26.553  13.495   5.059  0.00  0.00     0.073 C 
BRANCH 140 141
HETATM  141  C   UNK N   1      27.710  12.585   4.807  0.00  0.00    -0.056 A 
HETATM  142  C   UNK N   1      27.538  11.195   4.780  0.00  0.00     0.007 A 
HETATM  143  C   UNK N   1      28.632  10.357   4.546  0.00  0.00     0.001 A 
HETATM  144  C   UNK N   1      29.902  10.907   4.342  0.00  0.00     0.000 A 
HETATM  145  C   UNK N   1      30.079  12.293   4.376  0.00  0.00     0.001 A 
HETATM  146  C   UNK N   1      28.983  13.131   4.607  0.00  0.00     0.007 A 
ENDBRANCH 140 141
ENDBRANCH   1 140
TORSDOF 55
ENDMDL
MODEL 3
REMARK VINA RESULT:      -7.0      2.822      5.878
REMARK WARNING: 32 MAX_TORS EXCEEDED!!!
REMARK  55 active torsions:
REMARK  status: ('A' for Active; 'I' for Inactive)
REMARK    1  A    between atoms: O_12  and  C_101 
REMARK    2  A    between atoms: O_13  and  C_105 
REMARK    3  A    between atoms: O_17  and  C_115 
REMARK    4  A    between atoms: O_18  and  C_118 
REMARK       I    between atoms: N_20  and  C_47 
REMARK       I    between atoms: N_21  and  C_48 
REMARK    5  A    between atoms: C_51  and  N_21 
REMARK    6  A    between atoms: C_49  and  N_22 
REMARK       I    between atoms: N_22  and  C_58 
REMARK       I    between atoms: N_23  and  C_55 
REMARK    7  A    between atoms: N_24  and  C_59 
REMARK    8  A    between atoms: N_25  and  C_60 
REMARK       I    between atoms: N_25  and  C_62 
REMARK    9  A    between atoms: C_61  and  N_26 
REMARK       I    between atoms: N_26  and  C_66 
REMARK   10  A    between atoms: C_65  and  N_27 
REMARK       I    between atoms: N_27  and  C_73 
REMARK   11  A    between atoms: C_72  and  N_29 
REMARK       I    between atoms: N_29  and  C_81 
REMARK   12  A    between atoms: C_77  and  N_30 
REMARK       I    between atoms: N_30  and  C_87 
REMARK   13  A    between atoms: C_79  and  N_31 
REMARK       I    between atoms: N_31  and  C_89 
REMARK   14  A    between atoms: N_32  and  C_75 
REMARK       I    between atoms: N_32  and  C_98 
REMARK   15  A    between atoms: C_80  and  N_33 
REMARK       I    between atoms: N_33  and  C_95 
REMARK   16  A    between atoms: C_94  and  N_35 
REMARK       I    between atoms: N_35  and  C_106 
REMARK   17  A    between atoms: C_102  and  N_38 
REMARK       I    between atoms: N_38  and  C_111 
REMARK       I    between atoms: N_39  and  C_98 
REMARK   18  A    between atoms: C_112  and  N_42 
REMARK       I    between atoms: N_42  and  C_119 
REMARK   19  A    between atoms: C_43  and  C_48 
REMARK   20  A    between atoms: C_47  and  C_49 
REMARK   21  A    between atoms: C_49  and  C_50 
REMARK   22  A    between atoms: C_50  and  C_52 
REMARK   23  A    between atoms: C_51  and  C_53 
REMARK   24  A    between atoms: C_51  and  C_55 
REMARK   25  A    between atoms: C_52  and  C_54 
REMARK   26  A    between atoms: C_54  and  C_59 
REMARK   27  A    between atoms: C_58  and  C_60 
REMARK   28  A    between atoms: C_61  and  C_62 
REMARK   29  A    between atoms: C_61  and  C_63 
REMARK   30  A    between atoms: C_63  and  C_64 
REMARK   31  A    between atoms: C_65  and  C_66 
REMARK   32  A    between atoms: C_65  and  C_67 
REMARK   33  A    between atoms: C_67  and  C_71 
REMARK   34  A    between atoms: C_71  and  C_75 
REMARK   35  A    between atoms: C_72  and  C_73 
REMARK   36  A    between atoms: C_72  and  C_76 
REMARK   37  A    between atoms: C_76  and  C_88 
REMARK   38  A    between atoms: C_77  and  C_81 
REMARK   39  A    between atoms: C_77  and  C_84 
REMARK   40  A    between atoms: C_79  and  C_86 
REMARK   41  A    between atoms: C_79  and  C_87 
REMARK   42  A    between atoms: C_80  and  C_83 
REMARK   43  A    between atoms: C_80  and  C_89 
REMARK   44  A    between atoms: C_83  and  C_90 
REMARK   45  A    between atoms: C_84  and  C_91 
REMARK   46  A    between atoms: C_86  and  C_92 
REMARK   47  A    between atoms: C_90  and  C_93 
REMARK   48  A    between atoms: C_92  and  C_105 
REMARK   49  A    between atoms: C_94  and  C_95 
REMARK   50  A    between atoms: C_94  and  C_101 
REMARK   51  A    between atoms: C_102  and  C_106 
REMARK   52  A    between atoms: C_102  and  C_107 
REMARK   53  A    between atoms: C_107  and  C_110 
REMARK   54  A    between atoms: C_111  and  C_112 
REMARK   55  A    between atoms: C_112  and  C_115 
ROOT
HETATM    1  C   UNK N   1      24.392  16.069   4.276  0.00  0.00     0.180 C 
ENDROOT
BRANCH   1   2
HETATM    2  N   UNK N   1      24.646  17.367   3.687  0.00  0.00    -0.346 N 
HETATM    3  C   UNK N   1      25.810  18.056   3.797  0.00  0.00     0.241 C 
HETATM    4  O   UNK N   1      25.904  19.136   3.234  0.00  0.00    -0.271 OA
HETATM    5  H   UNK N   1      23.918  17.781   3.168  0.00  0.00     0.163 HD
BRANCH   3   6
HETATM    6  C   UNK N   1      27.002  17.501   4.582  0.00  0.00     0.182 C 
BRANCH   6   7
HETATM    7  N   UNK N   1      27.920  16.827   3.691  0.00  0.00    -0.346 N 
HETATM    8  C   UNK N   1      28.401  15.602   4.000  0.00  0.00     0.241 C 
HETATM    9  O   UNK N   1      28.091  15.075   5.062  0.00  0.00    -0.271 OA
HETATM   10  H   UNK N   1      28.196  17.263   2.853  0.00  0.00     0.163 HD
BRANCH   8  11
HETATM   11  C   UNK N   1      29.280  14.858   3.050  0.00  0.00     0.177 C 
BRANCH  11  12
HETATM   12  N   UNK N   1      30.139  15.837   2.428  0.00  0.00    -0.346 N 
HETATM   13  C   UNK N   1      31.257  16.309   3.040  0.00  0.00     0.241 C 
HETATM   14  O   UNK N   1      31.752  17.348   2.637  0.00  0.00    -0.271 OA
HETATM   15  H   UNK N   1      29.907  16.175   1.533  0.00  0.00     0.163 HD
BRANCH  13  16
HETATM   16  C   UNK N   1      32.001  15.522   4.103  0.00  0.00     0.176 C 
BRANCH  16  17
HETATM   17  N   UNK N   1      32.277  16.415   5.196  0.00  0.00    -0.346 N 
HETATM   18  C   UNK N   1      31.672  16.377   6.410  0.00  0.00     0.243 C 
HETATM   19  O   UNK N   1      30.495  16.077   6.522  0.00  0.00    -0.271 OA
HETATM   20  H   UNK N   1      32.958  17.111   5.051  0.00  0.00     0.163 HD
BRANCH  18  21
HETATM   21  C   UNK N   1      32.546  16.497   7.630  0.00  0.00     0.200 C 
BRANCH  21  22
HETATM   22  N   UNK N   1      33.364  15.301   7.718  0.00  0.00    -0.344 N 
HETATM   23  C   UNK N   1      34.647  15.186   7.258  0.00  0.00     0.241 C 
HETATM   24  O   UNK N   1      35.109  15.973   6.448  0.00  0.00    -0.271 OA
HETATM   25  H   UNK N   1      32.963  14.510   8.145  0.00  0.00     0.163 HD
BRANCH  23  26
HETATM   26  C   UNK N   1      35.508  14.128   7.844  0.00  0.00     0.180 C 
BRANCH  26  27
HETATM   27  N   UNK N   1      35.878  14.625   9.136  0.00  0.00    -0.346 N 
HETATM   28  C   UNK N   1      35.230  14.238  10.248  0.00  0.00     0.243 C 
HETATM   29  O   UNK N   1      34.466  13.281  10.228  0.00  0.00    -0.271 OA
HETATM   30  H   UNK N   1      36.622  15.265   9.210  0.00  0.00     0.163 HD
BRANCH  28  31
HETATM   31  C   UNK N   1      35.357  15.096  11.454  0.00  0.00     0.200 C 
BRANCH  31  32
HETATM   32  N   UNK N   1      36.259  14.497  12.418  0.00  0.00    -0.346 N 
HETATM   33  C   UNK N   1      35.864  13.757  13.485  0.00  0.00     0.214 C 
HETATM   34  O   UNK N   1      34.688  13.473  13.653  0.00  0.00    -0.274 OA
HETATM   35  C   UNK N   1      36.879  13.295  14.470  0.00  0.00     0.117 C 
HETATM   36  H   UNK N   1      37.225  14.636  12.289  0.00  0.00     0.163 HD
ENDBRANCH  31  32
BRANCH  31  37
HETATM   37  C   UNK N   1      35.662  16.547  11.156  0.00  0.00     0.199 C 
BRANCH  37  38
HETATM   38  O   UNK N   1      34.656  17.047  10.331  0.00  0.00    -0.398 OA
HETATM   39  H   UNK N   1      34.513  16.991   9.373  0.00  0.00     0.209 HD
ENDBRANCH  37  38
ENDBRANCH  31  37
ENDBRANCH  28  31
ENDBRANCH  26  27
BRANCH  26  40
HETATM   40  C   UNK N   1      36.719  14.007   6.898  0.00  0.00     0.073 C 
BRANCH  40  41
HETATM   41  C   UNK N   1      37.787  13.106   7.405  0.00  0.00    -0.056 A 
HETATM   42  C   UNK N   1      37.470  11.799   7.793  0.00  0.00     0.010 A 
HETATM   43  C   UNK N   1      38.477  10.925   8.194  0.00  0.00     0.037 A 
HETATM   44  C   UNK N   1      39.803  11.360   8.220  0.00  0.00     0.065 A 
HETATM   45  C   UNK N   1      40.118  12.679   7.871  0.00  0.00     0.037 A 
HETATM   46  C   UNK N   1      39.108  13.553   7.463  0.00  0.00     0.010 A 
BRANCH  44  47
HETATM   47  O   UNK N   1      40.777  10.508   8.574  0.00  0.00    -0.361 OA
HETATM   48  H   UNK N   1      41.150   9.932   7.937  0.00  0.00     0.217 HD
ENDBRANCH  44  47
ENDBRANCH  40  41
ENDBRANCH  26  40
ENDBRANCH  23  26
ENDBRANCH  21  22
BRANCH  21  49
HETATM   49  C   UNK N   1      31.638  16.666   8.854  0.00  0.00     0.199 C 
BRANCH  49  50
HETATM   50  O   UNK N   1      31.163  17.972   8.960  0.00  0.00    -0.398 OA
HETATM   51  H   UNK N   1      31.121  18.540   8.174  0.00  0.00     0.209 HD
ENDBRANCH  49  50
ENDBRANCH  21  49
ENDBRANCH  18  21
ENDBRANCH  16  17
BRANCH  16  52
HETATM   52  C   UNK N   1      33.148  14.595   3.727  0.00  0.00     0.035 C 
BRANCH  52  53
HETATM   53  C   UNK N   1      32.617  13.173   3.562  0.00  0.00     0.002 C 
BRANCH  53  54
HETATM   54  C   UNK N   1      31.738  12.775   4.741  0.00  0.00    -0.004 C 
HETATM   55  C   UNK N   1      31.874  11.289   4.999  0.00  0.00     0.005 C 
ENDBRANCH  53  54
ENDBRANCH  52  53
ENDBRANCH  16  52
ENDBRANCH  13  16
ENDBRANCH  11  12
BRANCH  11  56
HETATM   56  C   UNK N   1      28.507  14.010   2.036  0.00  0.00     0.045 C 
BRANCH  56  57
HETATM   57  C   UNK N   1      29.376  13.022   1.287  0.00  0.00     0.112 C 
BRANCH  57  58
HETATM   58  C   UNK N   1      28.828  11.646   1.469  0.00  0.00     0.139 C 
HETATM   59  O   UNK N   1      27.801  11.312   0.900  0.00  0.00    -0.650 OA
BRANCH  58  60
HETATM   60  O   UNK N   1      29.466  10.773   2.269  0.00  0.00    -0.776 OA
HETATM   61  H   UNK N   1      30.109  10.098   2.361  0.00  0.00     0.167 HD
ENDBRANCH  58  60
ENDBRANCH  57  58
ENDBRANCH  56  57
ENDBRANCH  11  56
ENDBRANCH   8  11
ENDBRANCH   6   7
BRANCH   6  62
HETATM   62  C   UNK N   1      27.781  18.567   5.360  0.00  0.00     0.093 C 
BRANCH  62  63
HETATM   63  C   UNK N   1      27.795  18.275   6.815  0.00  0.00     0.028 A 
HETATM   64  N   UNK N   1      27.650  17.048   7.336  0.00  0.00    -0.354 N 
HETATM   65  C   UNK N   1      27.754  17.224   8.667  0.00  0.00     0.180 A 
HETATM   66  H   UNK N   1      27.504  16.204   6.851  0.00  0.00     0.166 HD
HETATM   67  N   UNK N   1      27.955  18.519   8.985  0.00  0.00    -0.360 N 
HETATM   68  C   UNK N   1      27.979  19.187   7.819  0.00  0.00     0.114 A 
ATOM     69  HN  UNK N   1      28.068  18.911   9.920  1.00  0.00     0.166 HD
ENDBRANCH  62  63
ENDBRANCH   6  62
ENDBRANCH   3   6
ENDBRANCH   1   2
BRANCH   1  70
HETATM   70  C   UNK N   1      24.342  16.094   5.780  0.00  0.00     0.241 C 
HETATM   71  O   UNK N   1      25.339  15.748   6.390  0.00  0.00    -0.271 OA
HETATM   72  N   UNK N   1      23.274  16.542   6.488  0.00  0.00    -0.346 N 
HETATM   73  H   UNK N   1      23.347  16.484   7.468  0.00  0.00     0.163 HD
BRANCH  72  74
HETATM   74  C   UNK N   1      22.036  17.097   5.968  0.00  0.00     0.176 C 
BRANCH  74  75
HETATM   75  C   UNK N   1      20.927  17.039   6.989  0.00  0.00     0.241 C 
HETATM   76  O   UNK N   1      20.650  18.047   7.619  0.00  0.00    -0.271 OA
HETATM   77  N   UNK N   1      20.216  15.904   7.208  0.00  0.00    -0.346 N 
HETATM   78  H   UNK N   1      19.505  15.921   7.888  0.00  0.00     0.163 HD
BRANCH  77  79
HETATM   79  C   UNK N   1      20.453  14.668   6.489  0.00  0.00     0.181 C 
BRANCH  79  80
HETATM   80  C   UNK N   1      19.487  14.307   5.403  0.00  0.00     0.241 C 
HETATM   81  O   UNK N   1      18.462  14.953   5.271  0.00  0.00    -0.271 OA
HETATM   82  N   UNK N   1      19.743  13.278   4.564  0.00  0.00    -0.351 N 
HETATM   83  H   UNK N   1      19.069  13.031   3.889  0.00  0.00     0.163 HD
BRANCH  82  84
HETATM   84  C   UNK N   1      20.978  12.533   4.633  0.00  0.00     0.225 C 
BRANCH  84  85
HETATM   85  C   UNK N   1      21.101  11.553   3.489  0.00  0.00     0.236 C 
HETATM   86  O   UNK N   1      20.329  11.615   2.544  0.00  0.00    -0.272 OA
HETATM   87  N   UNK N   1      22.061  10.596   3.489  0.00  0.00    -0.346 N 
HETATM   88  H   UNK N   1      22.088   9.968   2.732  0.00  0.00     0.163 HD
BRANCH  87  89
HETATM   89  C   UNK N   1      23.051  10.441   4.535  0.00  0.00     0.176 C 
BRANCH  89  90
HETATM   90  C   UNK N   1      23.528   9.005   4.622  0.00  0.00     0.243 C 
HETATM   91  O   UNK N   1      24.607   8.719   4.141  0.00  0.00    -0.271 OA
HETATM   92  N   UNK N   1      22.755   8.048   5.218  0.00  0.00    -0.337 N 
HETATM   93  C   UNK N   1      23.075   6.644   5.134  0.00  0.00     0.179 C 
HETATM   94  C   UNK N   1      21.432   8.316   5.697  0.00  0.00     0.127 C 
HETATM   95  C   UNK N   1      21.696   6.049   4.903  0.00  0.00     0.037 C 
HETATM   96  C   UNK N   1      20.718   6.981   5.618  0.00  0.00     0.022 C 
BRANCH  93  97
HETATM   97  C   UNK N   1      23.603   6.117   6.458  0.00  0.00     0.241 C 
HETATM   98  O   UNK N   1      22.887   6.141   7.448  0.00  0.00    -0.271 OA
HETATM   99  N   UNK N   1      24.844   5.565   6.563  0.00  0.00    -0.346 N 
HETATM  100  H   UNK N   1      25.106   5.216   7.446  0.00  0.00     0.163 HD
BRANCH  99 101
HETATM  101  C   UNK N   1      25.815   5.446   5.487  0.00  0.00     0.179 C 
BRANCH 101 102
HETATM  102  C   UNK N   1      26.007   4.039   4.917  0.00  0.00     0.009 C 
HETATM  103  C   UNK N   1      25.468   3.902   3.504  0.00  0.00     0.012 C 
HETATM  104  C   UNK N   1      27.475   3.672   4.943  0.00  0.00     0.012 C 
ENDBRANCH 101 102
BRANCH 101 105
HETATM  105  C   UNK N   1      26.993   6.387   5.509  0.00  0.00     0.238 C 
HETATM  106  O   UNK N   1      27.352   6.936   4.481  0.00  0.00    -0.271 OA
HETATM  107  N   UNK N   1      27.714   6.549   6.636  0.00  0.00    -0.368 N 
HETATM  108  H   UNK N   1      28.306   6.868   7.356  0.00  0.00     0.159 HD
HETATM  109  H   UNK N   1      27.445   5.707   7.071  0.00  0.00     0.159 HD
ENDBRANCH 101 105
ENDBRANCH  99 101
ENDBRANCH  93  97
ENDBRANCH  89  90
BRANCH  89 110
HETATM  110  C   UNK N   1      24.263  11.341   4.274  0.00  0.00     0.035 C 
BRANCH 110 111
HETATM  111  C   UNK N   1      24.538  12.339   5.391  0.00  0.00     0.004 C 
BRANCH 111 112
HETATM  112  C   UNK N   1      26.035  12.546   5.597  0.00  0.00     0.019 C 
BRANCH 112 113
HETATM  113  C   UNK N   1      26.858  11.752   4.593  0.00  0.00     0.111 C 
BRANCH 113 114
HETATM  114  N   UNK N   1      28.266  11.804   4.941  0.00  0.00    -0.430 N 
HETATM  115  H   UNK N   1      28.695  11.306   5.722  0.00  0.00     0.149 HD
HETATM  116  H   UNK N   1      28.874  12.383   4.362  0.00  0.00     0.149 HD
ENDBRANCH 113 114
ENDBRANCH 112 113
ENDBRANCH 111 112
ENDBRANCH 110 111
ENDBRANCH  89 110
ENDBRANCH  87  89
ENDBRANCH  84  85
ENDBRANCH  82  84
ENDBRANCH  79  80
BRANCH  79 117
HETATM  117  C   UNK N   1      21.533  13.700   6.961  0.00  0.00     0.075 C 
BRANCH 117 118
HETATM  118  C   UNK N   1      21.450  13.340   8.417  0.00  0.00    -0.028 A 
HETATM  119  C   UNK N   1      22.493  12.889   9.181  0.00  0.00    -0.002 A 
HETATM  120  C   UNK N   1      22.012  12.706  10.444  0.00  0.00     0.042 A 
HETATM  121  C   UNK N   1      23.824  12.645   8.857  0.00  0.00     0.014 A 
HETATM  122  N   UNK N   1      20.706  13.018  10.514  0.00  0.00    -0.365 N 
HETATM  123  C   UNK N   1      22.826  12.267  11.484  0.00  0.00     0.030 A 
HETATM  124  C   UNK N   1      20.348  13.416   9.268  0.00  0.00     0.096 A 
HETATM  125  H   UNK N   1      20.128  12.967  11.309  0.00  0.00     0.165 HD
HETATM  126  C   UNK N   1      24.181  12.017  11.193  0.00  0.00     0.002 A 
HETATM  127  C   UNK N   1      24.678  12.205   9.883  0.00  0.00     0.001 A 
ENDBRANCH 117 118
ENDBRANCH  79 117
ENDBRANCH  77  79
ENDBRANCH  74  75
BRANCH  74 128
HETATM  128  C   UNK N   1      22.249  18.554   5.555  0.00  0.00     0.036 C 
BRANCH 128 129
HETATM  129  C   UNK N   1      21.309  18.987   4.434  0.00  0.00     0.023 C 
BRANCH 129 130
HETATM  130  C   UNK N   1      22.067  19.136   3.130  0.00  0.00     0.138 C 
BRANCH 130 131
HETATM  131  N   UNK N   1      21.611  20.313   2.439  0.00  0.00    -0.227 N 
HETATM  132  C   UNK N   1      20.726  20.228   1.340  0.00  0.00     0.665 C 
HETATM  133  N   UNK N   1      20.375  18.970   0.794  0.00  0.00    -0.235 N 
HETATM  134  N   UNK N   1      20.211  21.295   0.858  0.00  0.00    -0.235 N 
HETATM  135  H   UNK N   1      20.457  18.064   1.170  0.00  0.00     0.174 HD
HETATM  136  H   UNK N   1      19.988  19.007  -0.110  0.00  0.00     0.174 HD
HETATM  137  H   UNK N   1      19.337  21.612   0.530  0.00  0.00     0.174 HD
ATOM    138  HN  UNK N   1      20.910  22.035   0.793  1.00  0.00     0.174 HD
HETATM  139  H   UNK N   1      21.922  21.197   2.739  0.00  0.00     0.177 HD
ENDBRANCH 130 131
ENDBRANCH 129 130
ENDBRANCH 128 129
ENDBRANCH  74 128
ENDBRANCH  72  74
ENDBRANCH   1  70
BRANCH   1 140
HETATM  140  C   UNK N   1      23.116  15.472   3.702  0.00  0.00     0.073 C 
BRANCH 140 141
HETATM  141  C   UNK N   1      23.402  14.624   2.508  0.00  0.00    -0.056 A 
HETATM  142  C   UNK N   1      24.692  14.130   2.270  0.00  0.00     0.007 A 
HETATM  143  C   UNK N   1      24.945  13.340   1.145  0.00  0.00     0.001 A 
HETATM  144  C   UNK N   1      23.909  13.045   0.252  0.00  0.00     0.000 A 
HETATM  145  C   UNK N   1      22.624  13.542   0.482  0.00  0.00     0.001 A 
HETATM  146  C   UNK N   1      22.370  14.330   1.609  0.00  0.00     0.007 A 
ENDBRANCH 140 141
ENDBRANCH   1 140
TORSDOF 55
ENDMDL
MODEL 4
REMARK VINA RESULT:      -6.9      3.111      7.696
REMARK WARNING: 32 MAX_TORS EXCEEDED!!!
REMARK  55 active torsions:
REMARK  status: ('A' for Active; 'I' for Inactive)
REMARK    1  A    between atoms: O_12  and  C_101 
REMARK    2  A    between atoms: O_13  and  C_105 
REMARK    3  A    between atoms: O_17  and  C_115 
REMARK    4  A    between atoms: O_18  and  C_118 
REMARK       I    between atoms: N_20  and  C_47 
REMARK       I    between atoms: N_21  and  C_48 
REMARK    5  A    between atoms: C_51  and  N_21 
REMARK    6  A    between atoms: C_49  and  N_22 
REMARK       I    between atoms: N_22  and  C_58 
REMARK       I    between atoms: N_23  and  C_55 
REMARK    7  A    between atoms: N_24  and  C_59 
REMARK    8  A    between atoms: N_25  and  C_60 
REMARK       I    between atoms: N_25  and  C_62 
REMARK    9  A    between atoms: C_61  and  N_26 
REMARK       I    between atoms: N_26  and  C_66 
REMARK   10  A    between atoms: C_65  and  N_27 
REMARK       I    between atoms: N_27  and  C_73 
REMARK   11  A    between atoms: C_72  and  N_29 
REMARK       I    between atoms: N_29  and  C_81 
REMARK   12  A    between atoms: C_77  and  N_30 
REMARK       I    between atoms: N_30  and  C_87 
REMARK   13  A    between atoms: C_79  and  N_31 
REMARK       I    between atoms: N_31  and  C_89 
REMARK   14  A    between atoms: N_32  and  C_75 
REMARK       I    between atoms: N_32  and  C_98 
REMARK   15  A    between atoms: C_80  and  N_33 
REMARK       I    between atoms: N_33  and  C_95 
REMARK   16  A    between atoms: C_94  and  N_35 
REMARK       I    between atoms: N_35  and  C_106 
REMARK   17  A    between atoms: C_102  and  N_38 
REMARK       I    between atoms: N_38  and  C_111 
REMARK       I    between atoms: N_39  and  C_98 
REMARK   18  A    between atoms: C_112  and  N_42 
REMARK       I    between atoms: N_42  and  C_119 
REMARK   19  A    between atoms: C_43  and  C_48 
REMARK   20  A    between atoms: C_47  and  C_49 
REMARK   21  A    between atoms: C_49  and  C_50 
REMARK   22  A    between atoms: C_50  and  C_52 
REMARK   23  A    between atoms: C_51  and  C_53 
REMARK   24  A    between atoms: C_51  and  C_55 
REMARK   25  A    between atoms: C_52  and  C_54 
REMARK   26  A    between atoms: C_54  and  C_59 
REMARK   27  A    between atoms: C_58  and  C_60 
REMARK   28  A    between atoms: C_61  and  C_62 
REMARK   29  A    between atoms: C_61  and  C_63 
REMARK   30  A    between atoms: C_63  and  C_64 
REMARK   31  A    between atoms: C_65  and  C_66 
REMARK   32  A    between atoms: C_65  and  C_67 
REMARK   33  A    between atoms: C_67  and  C_71 
REMARK   34  A    between atoms: C_71  and  C_75 
REMARK   35  A    between atoms: C_72  and  C_73 
REMARK   36  A    between atoms: C_72  and  C_76 
REMARK   37  A    between atoms: C_76  and  C_88 
REMARK   38  A    between atoms: C_77  and  C_81 
REMARK   39  A    between atoms: C_77  and  C_84 
REMARK   40  A    between atoms: C_79  and  C_86 
REMARK   41  A    between atoms: C_79  and  C_87 
REMARK   42  A    between atoms: C_80  and  C_83 
REMARK   43  A    between atoms: C_80  and  C_89 
REMARK   44  A    between atoms: C_83  and  C_90 
REMARK   45  A    between atoms: C_84  and  C_91 
REMARK   46  A    between atoms: C_86  and  C_92 
REMARK   47  A    between atoms: C_90  and  C_93 
REMARK   48  A    between atoms: C_92  and  C_105 
REMARK   49  A    between atoms: C_94  and  C_95 
REMARK   50  A    between atoms: C_94  and  C_101 
REMARK   51  A    between atoms: C_102  and  C_106 
REMARK   52  A    between atoms: C_102  and  C_107 
REMARK   53  A    between atoms: C_107  and  C_110 
REMARK   54  A    between atoms: C_111  and  C_112 
REMARK   55  A    between atoms: C_112  and  C_115 
ROOT
HETATM    1  C   UNK N   1      22.294  15.224   6.636  0.00  0.00     0.180 C 
ENDROOT
BRANCH   1   2
HETATM    2  N   UNK N   1      22.768  14.695   5.374  0.00  0.00    -0.346 N 
HETATM    3  C   UNK N   1      23.812  15.194   4.666  0.00  0.00     0.241 C 
HETATM    4  O   UNK N   1      24.126  14.643   3.622  0.00  0.00    -0.271 OA
HETATM    5  H   UNK N   1      22.296  13.915   5.002  0.00  0.00     0.163 HD
BRANCH   3   6
HETATM    6  C   UNK N   1      24.613  16.404   5.158  0.00  0.00     0.182 C 
BRANCH   6   7
HETATM    7  N   UNK N   1      26.016  16.236   4.853  0.00  0.00    -0.346 N 
HETATM    8  C   UNK N   1      26.837  15.610   5.725  0.00  0.00     0.241 C 
HETATM    9  O   UNK N   1      26.400  15.218   6.801  0.00  0.00    -0.271 OA
HETATM   10  H   UNK N   1      26.376  16.580   4.004  0.00  0.00     0.163 HD
BRANCH   8  11
HETATM   11  C   UNK N   1      28.268  15.352   5.387  0.00  0.00     0.177 C 
BRANCH  11  12
HETATM   12  N   UNK N   1      28.682  16.417   4.504  0.00  0.00    -0.346 N 
HETATM   13  C   UNK N   1      29.411  17.476   4.944  0.00  0.00     0.241 C 
HETATM   14  O   UNK N   1      29.449  18.485   4.261  0.00  0.00    -0.271 OA
HETATM   15  H   UNK N   1      28.428  16.374   3.554  0.00  0.00     0.163 HD
BRANCH  13  16
HETATM   16  C   UNK N   1      30.299  17.405   6.172  0.00  0.00     0.176 C 
BRANCH  16  17
HETATM   17  N   UNK N   1      31.443  16.602   5.839  0.00  0.00    -0.346 N 
HETATM   18  C   UNK N   1      32.586  17.064   5.272  0.00  0.00     0.243 C 
HETATM   19  O   UNK N   1      32.565  17.962   4.446  0.00  0.00    -0.271 OA
HETATM   20  H   UNK N   1      31.394  15.639   6.037  0.00  0.00     0.163 HD
BRANCH  18  21
HETATM   21  C   UNK N   1      33.893  16.594   5.851  0.00  0.00     0.200 C 
BRANCH  21  22
HETATM   22  N   UNK N   1      34.072  15.199   5.489  0.00  0.00    -0.344 N 
HETATM   23  C   UNK N   1      35.247  14.507   5.573  0.00  0.00     0.241 C 
HETATM   24  O   UNK N   1      36.322  15.077   5.655  0.00  0.00    -0.271 OA
HETATM   25  H   UNK N   1      33.282  14.714   5.158  0.00  0.00     0.163 HD
BRANCH  23  26
HETATM   26  C   UNK N   1      35.182  13.026   5.660  0.00  0.00     0.180 C 
BRANCH  26  27
HETATM   27  N   UNK N   1      35.564  12.716   7.005  0.00  0.00    -0.346 N 
HETATM   28  C   UNK N   1      34.690  12.806   8.021  0.00  0.00     0.243 C 
HETATM   29  O   UNK N   1      33.490  12.926   7.807  0.00  0.00    -0.271 OA
HETATM   30  H   UNK N   1      36.489  12.432   7.190  0.00  0.00     0.163 HD
BRANCH  28  31
HETATM   31  C   UNK N   1      35.239  12.907   9.398  0.00  0.00     0.200 C 
BRANCH  31  32
HETATM   32  N   UNK N   1      34.899  14.184   9.994  0.00  0.00    -0.346 N 
HETATM   33  C   UNK N   1      35.786  15.184  10.230  0.00  0.00     0.214 C 
HETATM   34  O   UNK N   1      36.948  15.094   9.863  0.00  0.00    -0.274 OA
HETATM   35  C   UNK N   1      35.338  16.403  10.956  0.00  0.00     0.117 C 
HETATM   36  H   UNK N   1      33.959  14.337  10.245  0.00  0.00     0.163 HD
ENDBRANCH  31  32
BRANCH  31  37
HETATM   37  C   UNK N   1      34.924  11.720  10.282  0.00  0.00     0.199 C 
BRANCH  37  38
HETATM   38  O   UNK N   1      33.541  11.546  10.305  0.00  0.00    -0.398 OA
HETATM   39  H   UNK N   1      32.918  11.210   9.642  0.00  0.00     0.209 HD
ENDBRANCH  37  38
ENDBRANCH  31  37
ENDBRANCH  28  31
ENDBRANCH  26  27
BRANCH  26  40
HETATM   40  C   UNK N   1      36.202  12.503   4.629  0.00  0.00     0.073 C 
BRANCH  40  41
HETATM   41  C   UNK N   1      35.779  12.695   3.217  0.00  0.00    -0.056 A 
HETATM   42  C   UNK N   1      34.482  12.341   2.825  0.00  0.00     0.010 A 
HETATM   43  C   UNK N   1      34.052  12.591   1.524  0.00  0.00     0.037 A 
HETATM   44  C   UNK N   1      34.923  13.183   0.608  0.00  0.00     0.065 A 
HETATM   45  C   UNK N   1      36.233  13.500   0.987  0.00  0.00     0.037 A 
HETATM   46  C   UNK N   1      36.661  13.255   2.293  0.00  0.00     0.010 A 
BRANCH  44  47
HETATM   47  O   UNK N   1      34.499  13.455  -0.635  0.00  0.00    -0.361 OA
HETATM   48  H   UNK N   1      33.673  13.125  -0.931  0.00  0.00     0.217 HD
ENDBRANCH  44  47
ENDBRANCH  40  41
ENDBRANCH  26  40
ENDBRANCH  23  26
ENDBRANCH  21  22
BRANCH  21  49
HETATM   49  C   UNK N   1      33.842  16.793   7.372  0.00  0.00     0.199 C 
BRANCH  49  50
HETATM   50  O   UNK N   1      33.068  15.811   7.987  0.00  0.00    -0.398 OA
HETATM   51  H   UNK N   1      32.405  16.059   8.651  0.00  0.00     0.209 HD
ENDBRANCH  49  50
ENDBRANCH  21  49
ENDBRANCH  18  21
ENDBRANCH  16  17
BRANCH  16  52
HETATM   52  C   UNK N   1      29.705  17.139   7.548  0.00  0.00     0.035 C 
BRANCH  52  53
HETATM   53  C   UNK N   1      28.543  18.098   7.793  0.00  0.00     0.002 C 
BRANCH  53  54
HETATM   54  C   UNK N   1      28.382  18.397   9.278  0.00  0.00    -0.004 C 
HETATM   55  C   UNK N   1      29.738  18.664   9.896  0.00  0.00     0.005 C 
ENDBRANCH  53  54
ENDBRANCH  52  53
ENDBRANCH  16  52
ENDBRANCH  13  16
ENDBRANCH  11  12
BRANCH  11  56
HETATM   56  C   UNK N   1      28.518  13.959   4.803  0.00  0.00     0.045 C 
BRANCH  56  57
HETATM   57  C   UNK N   1      29.871  13.816   4.138  0.00  0.00     0.112 C 
BRANCH  57  58
HETATM   58  C   UNK N   1      30.791  13.071   5.045  0.00  0.00     0.139 C 
HETATM   59  O   UNK N   1      30.914  11.861   4.939  0.00  0.00    -0.650 OA
BRANCH  58  60
HETATM   60  O   UNK N   1      31.481  13.734   5.990  0.00  0.00    -0.776 OA
HETATM   61  H   UNK N   1      32.131  14.376   6.200  0.00  0.00     0.167 HD
ENDBRANCH  58  60
ENDBRANCH  57  58
ENDBRANCH  56  57
ENDBRANCH  11  56
ENDBRANCH   8  11
ENDBRANCH   6   7
BRANCH   6  62
HETATM   62  C   UNK N   1      24.147  17.737   4.562  0.00  0.00     0.093 C 
BRANCH  62  63
HETATM   63  C   UNK N   1      25.209  18.771   4.648  0.00  0.00     0.028 A 
HETATM   64  N   UNK N   1      25.572  19.382   5.785  0.00  0.00    -0.354 N 
HETATM   65  C   UNK N   1      26.572  20.210   5.428  0.00  0.00     0.180 A 
HETATM   66  H   UNK N   1      25.192  19.251   6.684  0.00  0.00     0.166 HD
HETATM   67  N   UNK N   1      26.837  20.131   4.108  0.00  0.00    -0.360 N 
HETATM   68  C   UNK N   1      25.977  19.227   3.611  0.00  0.00     0.114 A 
ATOM     69  HN  UNK N   1      27.547  20.652   3.592  1.00  0.00     0.166 HD
ENDBRANCH  62  63
ENDBRANCH   6  62
ENDBRANCH   3   6
ENDBRANCH   1   2
BRANCH   1  70
HETATM   70  C   UNK N   1      21.478  16.480   6.490  0.00  0.00     0.241 C 
HETATM   71  O   UNK N   1      21.781  17.440   7.178  0.00  0.00    -0.271 OA
HETATM   72  N   UNK N   1      20.471  16.621   5.591  0.00  0.00    -0.346 N 
HETATM   73  H   UNK N   1      19.991  17.479   5.608  0.00  0.00     0.163 HD
BRANCH  72  74
HETATM   74  C   UNK N   1      20.020  15.651   4.608  0.00  0.00     0.176 C 
BRANCH  74  75
HETATM   75  C   UNK N   1      18.698  15.037   4.996  0.00  0.00     0.241 C 
HETATM   76  O   UNK N   1      17.869  15.729   5.564  0.00  0.00    -0.271 OA
HETATM   77  N   UNK N   1      18.398  13.744   4.709  0.00  0.00    -0.346 N 
HETATM   78  H   UNK N   1      17.521  13.394   4.988  0.00  0.00     0.163 HD
BRANCH  77  79
HETATM   79  C   UNK N   1      19.306  12.855   4.012  0.00  0.00     0.181 C 
BRANCH  79  80
HETATM   80  C   UNK N   1      19.100  12.675   2.541  0.00  0.00     0.241 C 
HETATM   81  O   UNK N   1      17.985  12.422   2.117  0.00  0.00    -0.271 OA
HETATM   82  N   UNK N   1      20.133  12.796   1.677  0.00  0.00    -0.351 N 
HETATM   83  H   UNK N   1      19.980  12.625   0.719  0.00  0.00     0.163 HD
BRANCH  82  84
HETATM   84  C   UNK N   1      21.454  13.169   2.125  0.00  0.00     0.225 C 
BRANCH  84  85
HETATM   85  C   UNK N   1      22.265  13.789   1.009  0.00  0.00     0.236 C 
HETATM   86  O   UNK N   1      21.976  14.897   0.584  0.00  0.00    -0.272 OA
HETATM   87  N   UNK N   1      23.317  13.131   0.463  0.00  0.00    -0.346 N 
HETATM   88  H   UNK N   1      23.801  13.566  -0.276  0.00  0.00     0.163 HD
BRANCH  87  89
HETATM   89  C   UNK N   1      23.774  11.829   0.899  0.00  0.00     0.176 C 
BRANCH  89  90
HETATM   90  C   UNK N   1      23.280  10.740  -0.032  0.00  0.00     0.243 C 
HETATM   91  O   UNK N   1      23.603  10.785  -1.204  0.00  0.00    -0.271 OA
HETATM   92  N   UNK N   1      22.479   9.735   0.432  0.00  0.00    -0.337 N 
HETATM   93  C   UNK N   1      21.821   8.808  -0.456  0.00  0.00     0.179 C 
HETATM   94  C   UNK N   1      21.984   9.705   1.776  0.00  0.00     0.127 C 
HETATM   95  C   UNK N   1      20.450   8.712   0.194  0.00  0.00     0.037 C 
HETATM   96  C   UNK N   1      20.686   8.926   1.689  0.00  0.00     0.022 C 
BRANCH  93  97
HETATM   97  C   UNK N   1      22.470   7.435  -0.402  0.00  0.00     0.241 C 
HETATM   98  O   UNK N   1      22.350   6.749   0.602  0.00  0.00    -0.271 OA
HETATM   99  N   UNK N   1      23.141   6.919  -1.469  0.00  0.00    -0.346 N 
HETATM  100  H   UNK N   1      23.508   6.011  -1.371  0.00  0.00     0.163 HD
BRANCH  99 101
HETATM  101  C   UNK N   1      23.365   7.593  -2.738  0.00  0.00     0.179 C 
BRANCH 101 102
HETATM  102  C   UNK N   1      22.625   7.006  -3.942  0.00  0.00     0.009 C 
HETATM  103  C   UNK N   1      22.690   5.489  -3.984  0.00  0.00     0.012 C 
HETATM  104  C   UNK N   1      21.180   7.456  -3.923  0.00  0.00     0.012 C 
ENDBRANCH 101 102
BRANCH 101 105
HETATM  105  C   UNK N   1      24.713   8.232  -2.955  0.00  0.00     0.238 C 
HETATM  106  O   UNK N   1      25.033   8.613  -4.069  0.00  0.00    -0.271 OA
HETATM  107  N   UNK N   1      25.608   8.293  -1.949  0.00  0.00    -0.368 N 
HETATM  108  H   UNK N   1      26.354   8.511  -1.345  0.00  0.00     0.159 HD
HETATM  109  H   UNK N   1      25.224   7.568  -1.405  0.00  0.00     0.159 HD
ENDBRANCH 101 105
ENDBRANCH  99 101
ENDBRANCH  93  97
ENDBRANCH  89  90
BRANCH  89 110
HETATM  110  C   UNK N   1      25.304  11.775   0.941  0.00  0.00     0.035 C 
BRANCH 110 111
HETATM  111  C   UNK N   1      25.858  10.493   1.548  0.00  0.00     0.004 C 
BRANCH 111 112
HETATM  112  C   UNK N   1      27.235  10.159   0.986  0.00  0.00     0.019 C 
BRANCH 112 113
HETATM  113  C   UNK N   1      28.324  11.019   1.610  0.00  0.00     0.111 C 
BRANCH 113 114
HETATM  114  N   UNK N   1      28.468  10.707   3.020  0.00  0.00    -0.430 N 
HETATM  115  H   UNK N   1      27.704  10.438   3.641  0.00  0.00     0.149 HD
HETATM  116  H   UNK N   1      29.404  10.760   3.421  0.00  0.00     0.149 HD
ENDBRANCH 113 114
ENDBRANCH 112 113
ENDBRANCH 111 112
ENDBRANCH 110 111
ENDBRANCH  89 110
ENDBRANCH  87  89
ENDBRANCH  84  85
ENDBRANCH  82  84
ENDBRANCH  79  80
BRANCH  79 117
HETATM  117  C   UNK N   1      20.300  12.004   4.797  0.00  0.00     0.075 C 
BRANCH 117 118
HETATM  118  C   UNK N   1      19.898  10.565   4.953  0.00  0.00    -0.028 A 
HETATM  119  C   UNK N   1      20.734   9.546   5.321  0.00  0.00    -0.002 A 
HETATM  120  C   UNK N   1      19.980   8.411   5.373  0.00  0.00     0.042 A 
HETATM  121  C   UNK N   1      22.091   9.543   5.628  0.00  0.00     0.014 A 
HETATM  122  N   UNK N   1      18.700   8.665   5.048  0.00  0.00    -0.365 N 
HETATM  123  C   UNK N   1      20.523   7.183   5.739  0.00  0.00     0.030 A 
HETATM  124  C   UNK N   1      18.636   9.995   4.791  0.00  0.00     0.096 A 
HETATM  125  H   UNK N   1      17.960   8.017   5.006  0.00  0.00     0.165 HD
HETATM  126  C   UNK N   1      21.893   7.145   6.063  0.00  0.00     0.002 A 
HETATM  127  C   UNK N   1      22.674   8.322   6.008  0.00  0.00     0.001 A 
ENDBRANCH 117 118
ENDBRANCH  79 117
ENDBRANCH  77  79
ENDBRANCH  74  75
BRANCH  74 128
HETATM  128  C   UNK N   1      19.869  16.322   3.242  0.00  0.00     0.036 C 
BRANCH 128 129
HETATM  129  C   UNK N   1      19.873  17.845   3.335  0.00  0.00     0.023 C 
BRANCH 129 130
HETATM  130  C   UNK N   1      21.033  18.424   2.550  0.00  0.00     0.138 C 
BRANCH 130 131
HETATM  131  N   UNK N   1      20.529  19.200   1.448  0.00  0.00    -0.227 N 
HETATM  132  C   UNK N   1      20.625  20.611   1.433  0.00  0.00     0.665 C 
HETATM  133  N   UNK N   1      21.091  21.312   2.570  0.00  0.00    -0.235 N 
HETATM  134  N   UNK N   1      20.321  21.255   0.370  0.00  0.00    -0.235 N 
HETATM  135  H   UNK N   1      21.595  20.996   3.355  0.00  0.00     0.174 HD
HETATM  136  H   UNK N   1      20.876  22.273   2.579  0.00  0.00     0.174 HD
HETATM  137  H   UNK N   1      20.665  22.009  -0.161  0.00  0.00     0.174 HD
ATOM    138  HN  UNK N   1      19.473  20.875  -0.051  1.00  0.00     0.174 HD
HETATM  139  H   UNK N   1      20.107  18.738   0.688  0.00  0.00     0.177 HD
ENDBRANCH 130 131
ENDBRANCH 129 130
ENDBRANCH 128 129
ENDBRANCH  74 128
ENDBRANCH  72  74
ENDBRANCH   1  70
BRANCH   1 140
HETATM  140  C   UNK N   1      21.516  14.158   7.393  0.00  0.00     0.073 C 
BRANCH 140 141
HETATM  141  C   UNK N   1      22.335  13.565   8.491  0.00  0.00    -0.056 A 
HETATM  142  C   UNK N   1      23.722  13.419   8.354  0.00  0.00     0.007 A 
HETATM  143  C   UNK N   1      24.474  12.858   9.391  0.00  0.00     0.001 A 
HETATM  144  C   UNK N   1      23.842  12.439  10.565  0.00  0.00     0.000 A 
HETATM  145  C   UNK N   1      22.457  12.576  10.702  0.00  0.00     0.001 A 
HETATM  146  C   UNK N   1      21.705  13.139   9.666  0.00  0.00     0.007 A 
ENDBRANCH 140 141
ENDBRANCH   1 140
TORSDOF 55
ENDMDL
MODEL 5
REMARK VINA RESULT:      -6.8      2.391      5.397
REMARK WARNING: 32 MAX_TORS EXCEEDED!!!
REMARK  55 active torsions:
REMARK  status: ('A' for Active; 'I' for Inactive)
REMARK    1  A    between atoms: O_12  and  C_101 
REMARK    2  A    between atoms: O_13  and  C_105 
REMARK    3  A    between atoms: O_17  and  C_115 
REMARK    4  A    between atoms: O_18  and  C_118 
REMARK       I    between atoms: N_20  and  C_47 
REMARK       I    between atoms: N_21  and  C_48 
REMARK    5  A    between atoms: C_51  and  N_21 
REMARK    6  A    between atoms: C_49  and  N_22 
REMARK       I    between atoms: N_22  and  C_58 
REMARK       I    between atoms: N_23  and  C_55 
REMARK    7  A    between atoms: N_24  and  C_59 
REMARK    8  A    between atoms: N_25  and  C_60 
REMARK       I    between atoms: N_25  and  C_62 
REMARK    9  A    between atoms: C_61  and  N_26 
REMARK       I    between atoms: N_26  and  C_66 
REMARK   10  A    between atoms: C_65  and  N_27 
REMARK       I    between atoms: N_27  and  C_73 
REMARK   11  A    between atoms: C_72  and  N_29 
REMARK       I    between atoms: N_29  and  C_81 
REMARK   12  A    between atoms: C_77  and  N_30 
REMARK       I    between atoms: N_30  and  C_87 
REMARK   13  A    between atoms: C_79  and  N_31 
REMARK       I    between atoms: N_31  and  C_89 
REMARK   14  A    between atoms: N_32  and  C_75 
REMARK       I    between atoms: N_32  and  C_98 
REMARK   15  A    between atoms: C_80  and  N_33 
REMARK       I    between atoms: N_33  and  C_95 
REMARK   16  A    between atoms: C_94  and  N_35 
REMARK       I    between atoms: N_35  and  C_106 
REMARK   17  A    between atoms: C_102  and  N_38 
REMARK       I    between atoms: N_38  and  C_111 
REMARK       I    between atoms: N_39  and  C_98 
REMARK   18  A    between atoms: C_112  and  N_42 
REMARK       I    between atoms: N_42  and  C_119 
REMARK   19  A    between atoms: C_43  and  C_48 
REMARK   20  A    between atoms: C_47  and  C_49 
REMARK   21  A    between atoms: C_49  and  C_50 
REMARK   22  A    between atoms: C_50  and  C_52 
REMARK   23  A    between atoms: C_51  and  C_53 
REMARK   24  A    between atoms: C_51  and  C_55 
REMARK   25  A    between atoms: C_52  and  C_54 
REMARK   26  A    between atoms: C_54  and  C_59 
REMARK   27  A    between atoms: C_58  and  C_60 
REMARK   28  A    between atoms: C_61  and  C_62 
REMARK   29  A    between atoms: C_61  and  C_63 
REMARK   30  A    between atoms: C_63  and  C_64 
REMARK   31  A    between atoms: C_65  and  C_66 
REMARK   32  A    between atoms: C_65  and  C_67 
REMARK   33  A    between atoms: C_67  and  C_71 
REMARK   34  A    between atoms: C_71  and  C_75 
REMARK   35  A    between atoms: C_72  and  C_73 
REMARK   36  A    between atoms: C_72  and  C_76 
REMARK   37  A    between atoms: C_76  and  C_88 
REMARK   38  A    between atoms: C_77  and  C_81 
REMARK   39  A    between atoms: C_77  and  C_84 
REMARK   40  A    between atoms: C_79  and  C_86 
REMARK   41  A    between atoms: C_79  and  C_87 
REMARK   42  A    between atoms: C_80  and  C_83 
REMARK   43  A    between atoms: C_80  and  C_89 
REMARK   44  A    between atoms: C_83  and  C_90 
REMARK   45  A    between atoms: C_84  and  C_91 
REMARK   46  A    between atoms: C_86  and  C_92 
REMARK   47  A    between atoms: C_90  and  C_93 
REMARK   48  A    between atoms: C_92  and  C_105 
REMARK   49  A    between atoms: C_94  and  C_95 
REMARK   50  A    between atoms: C_94  and  C_101 
REMARK   51  A    between atoms: C_102  and  C_106 
REMARK   52  A    between atoms: C_102  and  C_107 
REMARK   53  A    between atoms: C_107  and  C_110 
REMARK   54  A    between atoms: C_111  and  C_112 
REMARK   55  A    between atoms: C_112  and  C_115 
ROOT
HETATM    1  C   UNK N   1      26.356  18.030   4.329  0.00  0.00     0.180 C 
ENDROOT
BRANCH   1   2
HETATM    2  N   UNK N   1      27.689  18.462   3.965  0.00  0.00    -0.346 N 
HETATM    3  C   UNK N   1      28.790  18.327   4.747  0.00  0.00     0.241 C 
HETATM    4  O   UNK N   1      29.864  18.715   4.315  0.00  0.00    -0.271 OA
HETATM    5  H   UNK N   1      27.806  18.885   3.084  0.00  0.00     0.163 HD
BRANCH   3   6
HETATM    6  C   UNK N   1      28.717  17.681   6.135  0.00  0.00     0.182 C 
BRANCH   6   7
HETATM    7  N   UNK N   1      29.878  16.852   6.365  0.00  0.00    -0.346 N 
HETATM    8  C   UNK N   1      29.849  15.533   6.070  0.00  0.00     0.241 C 
HETATM    9  O   UNK N   1      28.818  15.026   5.642  0.00  0.00    -0.271 OA
HETATM   10  H   UNK N   1      30.697  17.251   6.739  0.00  0.00     0.163 HD
BRANCH   8  11
HETATM   11  C   UNK N   1      31.066  14.683   6.220  0.00  0.00     0.177 C 
BRANCH  11  12
HETATM   12  N   UNK N   1      31.900  15.327   7.208  0.00  0.00    -0.346 N 
HETATM   13  C   UNK N   1      32.605  14.619   8.129  0.00  0.00     0.241 C 
HETATM   14  O   UNK N   1      33.015  15.195   9.123  0.00  0.00    -0.271 OA
HETATM   15  H   UNK N   1      31.959  16.310   7.214  0.00  0.00     0.163 HD
BRANCH  13  16
HETATM   16  C   UNK N   1      33.033  13.181   7.904  0.00  0.00     0.176 C 
BRANCH  16  17
HETATM   17  N   UNK N   1      33.076  12.531   9.186  0.00  0.00    -0.346 N 
HETATM   18  C   UNK N   1      32.986  11.193   9.388  0.00  0.00     0.243 C 
HETATM   19  O   UNK N   1      32.269  10.494   8.692  0.00  0.00    -0.271 OA
HETATM   20  H   UNK N   1      33.178  13.103   9.980  0.00  0.00     0.163 HD
BRANCH  18  21
HETATM   21  C   UNK N   1      33.960  10.564  10.348  0.00  0.00     0.200 C 
BRANCH  21  22
HETATM   22  N   UNK N   1      34.192  11.501  11.433  0.00  0.00    -0.344 N 
HETATM   23  C   UNK N   1      34.854  11.215  12.594  0.00  0.00     0.241 C 
HETATM   24  O   UNK N   1      35.031  10.066  12.964  0.00  0.00    -0.271 OA
HETATM   25  H   UNK N   1      33.846  12.416  11.322  0.00  0.00     0.163 HD
BRANCH  23  26
HETATM   26  C   UNK N   1      35.446  12.343  13.358  0.00  0.00     0.180 C 
BRANCH  26  27
HETATM   27  N   UNK N   1      36.228  13.068  12.401  0.00  0.00    -0.346 N 
HETATM   28  C   UNK N   1      35.836  14.268  11.940  0.00  0.00     0.243 C 
HETATM   29  O   UNK N   1      34.930  14.884  12.486  0.00  0.00    -0.271 OA
HETATM   30  H   UNK N   1      37.071  12.678  12.074  0.00  0.00     0.163 HD
BRANCH  28  31
HETATM   31  C   UNK N   1      36.432  14.745  10.665  0.00  0.00     0.200 C 
BRANCH  31  32
HETATM   32  N   UNK N   1      36.662  13.636   9.760  0.00  0.00    -0.346 N 
HETATM   33  C   UNK N   1      37.828  13.410   9.102  0.00  0.00     0.214 C 
HETATM   34  O   UNK N   1      38.812  14.103   9.308  0.00  0.00    -0.274 OA
HETATM   35  C   UNK N   1      37.903  12.305   8.108  0.00  0.00     0.117 C 
HETATM   36  H   UNK N   1      35.922  13.004   9.611  0.00  0.00     0.163 HD
ENDBRANCH  31  32
BRANCH  31  37
HETATM   37  C   UNK N   1      35.697  15.905  10.030  0.00  0.00     0.199 C 
BRANCH  37  38
HETATM   38  O   UNK N   1      35.970  17.055  10.770  0.00  0.00    -0.398 OA
HETATM   39  H   UNK N   1      35.770  17.300  11.687  0.00  0.00     0.209 HD
ENDBRANCH  37  38
ENDBRANCH  31  37
ENDBRANCH  28  31
ENDBRANCH  26  27
BRANCH  26  40
HETATM   40  C   UNK N   1      36.318  11.693  14.451  0.00  0.00     0.073 C 
BRANCH  40  41
HETATM   41  C   UNK N   1      35.996  12.155  15.827  0.00  0.00    -0.056 A 
HETATM   42  C   UNK N   1      36.004  13.524  16.122  0.00  0.00     0.010 A 
HETATM   43  C   UNK N   1      35.627  13.969  17.386  0.00  0.00     0.037 A 
HETATM   44  C   UNK N   1      35.253  13.045  18.363  0.00  0.00     0.065 A 
HETATM   45  C   UNK N   1      35.283  11.674  18.083  0.00  0.00     0.037 A 
HETATM   46  C   UNK N   1      35.655  11.228  16.812  0.00  0.00     0.010 A 
BRANCH  44  47
HETATM   47  O   UNK N   1      34.857  13.475  19.570  0.00  0.00    -0.361 OA
HETATM   48  H   UNK N   1      35.394  13.321  20.322  0.00  0.00     0.217 HD
ENDBRANCH  44  47
ENDBRANCH  40  41
ENDBRANCH  26  40
ENDBRANCH  23  26
ENDBRANCH  21  22
BRANCH  21  49
HETATM   49  C   UNK N   1      35.247  10.241   9.580  0.00  0.00     0.199 C 
BRANCH  49  50
HETATM   50  O   UNK N   1      34.972   9.615   8.366  0.00  0.00    -0.398 OA
HETATM   51  H   UNK N   1      34.107   9.733   7.942  0.00  0.00     0.209 HD
ENDBRANCH  49  50
ENDBRANCH  21  49
ENDBRANCH  18  21
ENDBRANCH  16  17
BRANCH  16  52
HETATM   52  C   UNK N   1      34.193  12.849   6.976  0.00  0.00     0.035 C 
BRANCH  52  53
HETATM   53  C   UNK N   1      34.992  14.118   6.691  0.00  0.00     0.002 C 
BRANCH  53  54
HETATM   54  C   UNK N   1      35.462  14.157   5.242  0.00  0.00    -0.004 C 
HETATM   55  C   UNK N   1      35.115  12.851   4.558  0.00  0.00     0.005 C 
ENDBRANCH  53  54
ENDBRANCH  52  53
ENDBRANCH  16  52
ENDBRANCH  13  16
ENDBRANCH  11  12
BRANCH  11  56
HETATM   56  C   UNK N   1      31.797  14.420   4.901  0.00  0.00     0.045 C 
BRANCH  56  57
HETATM   57  C   UNK N   1      31.473  15.428   3.818  0.00  0.00     0.112 C 
BRANCH  57  58
HETATM   58  C   UNK N   1      32.530  16.480   3.791  0.00  0.00     0.139 C 
HETATM   59  O   UNK N   1      33.379  16.477   2.914  0.00  0.00    -0.650 OA
BRANCH  58  60
HETATM   60  O   UNK N   1      32.552  17.430   4.742  0.00  0.00    -0.776 OA
HETATM   61  H   UNK N   1      32.549  18.342   4.959  0.00  0.00     0.167 HD
ENDBRANCH  58  60
ENDBRANCH  57  58
ENDBRANCH  56  57
ENDBRANCH  11  56
ENDBRANCH   8  11
ENDBRANCH   6   7
BRANCH   6  62
HETATM   62  C   UNK N   1      28.611  18.692   7.282  0.00  0.00     0.093 C 
BRANCH  62  63
HETATM   63  C   UNK N   1      28.827  18.042   8.599  0.00  0.00     0.028 A 
HETATM   64  N   UNK N   1      28.014  17.112   9.120  0.00  0.00    -0.354 N 
HETATM   65  C   UNK N   1      28.584  16.773  10.292  0.00  0.00     0.180 A 
HETATM   66  H   UNK N   1      27.184  16.753   8.729  0.00  0.00     0.166 HD
HETATM   67  N   UNK N   1      29.720  17.465  10.512  0.00  0.00    -0.360 N 
HETATM   68  C   UNK N   1      29.876  18.270   9.448  0.00  0.00     0.114 A 
ATOM     69  HN  UNK N   1      30.336  17.391  11.323  1.00  0.00     0.166 HD
ENDBRANCH  62  63
ENDBRANCH   6  62
ENDBRANCH   3   6
ENDBRANCH   1   2
BRANCH   1  70
HETATM   70  C   UNK N   1      25.585  19.061   5.110  0.00  0.00     0.241 C 
HETATM   71  O   UNK N   1      26.184  20.050   5.494  0.00  0.00    -0.271 OA
HETATM   72  N   UNK N   1      24.252  18.979   5.348  0.00  0.00    -0.346 N 
HETATM   73  H   UNK N   1      23.863  19.699   5.895  0.00  0.00     0.163 HD
BRANCH  72  74
HETATM   74  C   UNK N   1      23.332  17.951   4.891  0.00  0.00     0.176 C 
BRANCH  74  75
HETATM   75  C   UNK N   1      22.361  17.550   5.973  0.00  0.00     0.241 C 
HETATM   76  O   UNK N   1      21.580  18.382   6.405  0.00  0.00    -0.271 OA
HETATM   77  N   UNK N   1      22.319  16.284   6.463  0.00  0.00    -0.346 N 
HETATM   78  H   UNK N   1      21.667  16.078   7.172  0.00  0.00     0.163 HD
BRANCH  77  79
HETATM   79  C   UNK N   1      23.186  15.223   5.993  0.00  0.00     0.181 C 
BRANCH  79  80
HETATM   80  C   UNK N   1      24.401  14.913   6.810  0.00  0.00     0.241 C 
HETATM   81  O   UNK N   1      25.380  15.635   6.728  0.00  0.00    -0.271 OA
HETATM   82  N   UNK N   1      24.423  13.848   7.642  0.00  0.00    -0.351 N 
HETATM   83  H   UNK N   1      25.252  13.639   8.132  0.00  0.00     0.163 HD
BRANCH  82  84
HETATM   84  C   UNK N   1      23.262  13.010   7.830  0.00  0.00     0.225 C 
BRANCH  84  85
HETATM   85  C   UNK N   1      23.637  11.664   8.408  0.00  0.00     0.236 C 
HETATM   86  O   UNK N   1      23.814  11.542   9.611  0.00  0.00    -0.272 OA
HETATM   87  N   UNK N   1      23.783  10.578   7.611  0.00  0.00    -0.346 N 
HETATM   88  H   UNK N   1      24.049   9.728   8.031  0.00  0.00     0.163 HD
BRANCH  87  89
HETATM   89  C   UNK N   1      23.572  10.589   6.178  0.00  0.00     0.176 C 
BRANCH  89  90
HETATM   90  C   UNK N   1      24.718   9.911   5.455  0.00  0.00     0.243 C 
HETATM   91  O   UNK N   1      24.745   8.696   5.416  0.00  0.00    -0.271 OA
HETATM   92  N   UNK N   1      25.708  10.649   4.869  0.00  0.00    -0.337 N 
HETATM   93  C   UNK N   1      26.914  10.044   4.360  0.00  0.00     0.179 C 
HETATM   94  C   UNK N   1      25.776  12.075   4.986  0.00  0.00     0.127 C 
HETATM   95  C   UNK N   1      27.957  11.046   4.828  0.00  0.00     0.037 C 
HETATM   96  C   UNK N   1      27.249  12.401   4.845  0.00  0.00     0.022 C 
BRANCH  93  97
HETATM   97  C   UNK N   1      26.925  10.024   2.841  0.00  0.00     0.241 C 
HETATM   98  O   UNK N   1      25.901  10.279   2.225  0.00  0.00    -0.271 OA
HETATM   99  N   UNK N   1      28.066   9.779   2.138  0.00  0.00    -0.346 N 
HETATM  100  H   UNK N   1      28.003   9.813   1.155  0.00  0.00     0.163 HD
BRANCH  99 101
HETATM  101  C   UNK N   1      29.367   9.471   2.710  0.00  0.00     0.179 C 
BRANCH 101 102
HETATM  102  C   UNK N   1      30.515  10.388   2.282  0.00  0.00     0.009 C 
HETATM  103  C   UNK N   1      30.026  11.671   1.633  0.00  0.00     0.012 C 
HETATM  104  C   UNK N   1      31.380  10.717   3.480  0.00  0.00     0.012 C 
ENDBRANCH 101 102
BRANCH 101 105
HETATM  105  C   UNK N   1      29.667   8.025   3.011  0.00  0.00     0.238 C 
HETATM  106  O   UNK N   1      29.705   7.639   4.168  0.00  0.00    -0.271 OA
HETATM  107  N   UNK N   1      29.992   7.175   2.016  0.00  0.00    -0.368 N 
HETATM  108  H   UNK N   1      30.163   6.390   1.446  0.00  0.00     0.159 HD
HETATM  109  H   UNK N   1      30.273   7.858   1.365  0.00  0.00     0.159 HD
ENDBRANCH 101 105
ENDBRANCH  99 101
ENDBRANCH  93  97
ENDBRANCH  89  90
BRANCH  89 110
HETATM  110  C   UNK N   1      22.272   9.866   5.814  0.00  0.00     0.035 C 
BRANCH 110 111
HETATM  111  C   UNK N   1      21.407  10.622   4.814  0.00  0.00     0.004 C 
BRANCH 111 112
HETATM  112  C   UNK N   1      19.927  10.511   5.159  0.00  0.00     0.019 C 
BRANCH 112 113
HETATM  113  C   UNK N   1      19.101  10.052   3.967  0.00  0.00     0.111 C 
BRANCH 113 114
HETATM  114  N   UNK N   1      19.935   9.954   2.782  0.00  0.00    -0.430 N 
HETATM  115  H   UNK N   1      20.082   9.104   2.238  0.00  0.00     0.149 HD
HETATM  116  H   UNK N   1      20.411  10.801   2.470  0.00  0.00     0.149 HD
ENDBRANCH 113 114
ENDBRANCH 112 113
ENDBRANCH 111 112
ENDBRANCH 110 111
ENDBRANCH  89 110
ENDBRANCH  87  89
ENDBRANCH  84  85
ENDBRANCH  82  84
ENDBRANCH  79  80
BRANCH  79 117
HETATM  117  C   UNK N   1      22.953  14.591   4.624  0.00  0.00     0.075 C 
BRANCH 117 118
HETATM  118  C   UNK N   1      21.514  14.297   4.312  0.00  0.00    -0.028 A 
HETATM  119  C   UNK N   1      21.025  13.951   3.081  0.00  0.00    -0.002 A 
HETATM  120  C   UNK N   1      19.685  13.744   3.228  0.00  0.00     0.042 A 
HETATM  121  C   UNK N   1      21.666  13.790   1.856  0.00  0.00     0.014 A 
HETATM  122  N   UNK N   1      19.300  13.947   4.499  0.00  0.00    -0.365 N 
HETATM  123  C   UNK N   1      18.881  13.355   2.160  0.00  0.00     0.030 A 
HETATM  124  C   UNK N   1      20.423  14.285   5.181  0.00  0.00     0.096 A 
HETATM  125  H   UNK N   1      18.388  13.867   4.862  0.00  0.00     0.165 HD
HETATM  126  C   UNK N   1      19.498  13.176   0.907  0.00  0.00     0.002 A 
HETATM  127  C   UNK N   1      20.886  13.393   0.756  0.00  0.00     0.001 A 
ENDBRANCH 117 118
ENDBRANCH  79 117
ENDBRANCH  77  79
ENDBRANCH  74  75
BRANCH  74 128
HETATM  128  C   UNK N   1      22.541  18.456   3.684  0.00  0.00     0.036 C 
BRANCH 128 129
HETATM  129  C   UNK N   1      21.310  17.604   3.392  0.00  0.00     0.023 C 
BRANCH 129 130
HETATM  130  C   UNK N   1      20.092  18.480   3.179  0.00  0.00     0.138 C 
BRANCH 130 131
HETATM  131  N   UNK N   1      20.108  19.013   1.843  0.00  0.00    -0.227 N 
HETATM  132  C   UNK N   1      20.484  20.352   1.587  0.00  0.00     0.665 C 
HETATM  133  N   UNK N   1      20.717  21.251   2.655  0.00  0.00    -0.235 N 
HETATM  134  N   UNK N   1      20.649  20.743   0.380  0.00  0.00    -0.235 N 
HETATM  135  H   UNK N   1      20.887  21.080   3.609  0.00  0.00     0.174 HD
HETATM  136  H   UNK N   1      20.705  22.203   2.402  0.00  0.00     0.174 HD
HETATM  137  H   UNK N   1      21.281  21.292  -0.139  0.00  0.00     0.174 HD
ATOM    138  HN  UNK N   1      19.909  20.380  -0.220  1.00  0.00     0.174 HD
HETATM  139  H   UNK N   1      19.852  18.433   1.091  0.00  0.00     0.177 HD
ENDBRANCH 130 131
ENDBRANCH 129 130
ENDBRANCH 128 129
ENDBRANCH  74 128
ENDBRANCH  72  74
ENDBRANCH   1  70
BRANCH   1 140
HETATM  140  C   UNK N   1      25.585  17.604   3.088  0.00  0.00     0.073 C 
BRANCH 140 141
HETATM  141  C   UNK N   1      26.000  16.244   2.632  0.00  0.00    -0.056 A 
HETATM  142  C   UNK N   1      25.048  15.307   2.210  0.00  0.00     0.007 A 
HETATM  143  C   UNK N   1      25.453  14.037   1.789  0.00  0.00     0.001 A 
HETATM  144  C   UNK N   1      26.810  13.699   1.793  0.00  0.00     0.000 A 
HETATM  145  C   UNK N   1      27.762  14.628   2.221  0.00  0.00     0.001 A 
HETATM  146  C   UNK N   1      27.357  15.900   2.640  0.00  0.00     0.007 A 
ENDBRANCH 140 141
ENDBRANCH   1 140
TORSDOF 55
ENDMDL
MODEL 6
REMARK VINA RESULT:      -6.8      2.870      6.161
REMARK WARNING: 32 MAX_TORS EXCEEDED!!!
REMARK  55 active torsions:
REMARK  status: ('A' for Active; 'I' for Inactive)
REMARK    1  A    between atoms: O_12  and  C_101 
REMARK    2  A    between atoms: O_13  and  C_105 
REMARK    3  A    between atoms: O_17  and  C_115 
REMARK    4  A    between atoms: O_18  and  C_118 
REMARK       I    between atoms: N_20  and  C_47 
REMARK       I    between atoms: N_21  and  C_48 
REMARK    5  A    between atoms: C_51  and  N_21 
REMARK    6  A    between atoms: C_49  and  N_22 
REMARK       I    between atoms: N_22  and  C_58 
REMARK       I    between atoms: N_23  and  C_55 
REMARK    7  A    between atoms: N_24  and  C_59 
REMARK    8  A    between atoms: N_25  and  C_60 
REMARK       I    between atoms: N_25  and  C_62 
REMARK    9  A    between atoms: C_61  and  N_26 
REMARK       I    between atoms: N_26  and  C_66 
REMARK   10  A    between atoms: C_65  and  N_27 
REMARK       I    between atoms: N_27  and  C_73 
REMARK   11  A    between atoms: C_72  and  N_29 
REMARK       I    between atoms: N_29  and  C_81 
REMARK   12  A    between atoms: C_77  and  N_30 
REMARK       I    between atoms: N_30  and  C_87 
REMARK   13  A    between atoms: C_79  and  N_31 
REMARK       I    between atoms: N_31  and  C_89 
REMARK   14  A    between atoms: N_32  and  C_75 
REMARK       I    between atoms: N_32  and  C_98 
REMARK   15  A    between atoms: C_80  and  N_33 
REMARK       I    between atoms: N_33  and  C_95 
REMARK   16  A    between atoms: C_94  and  N_35 
REMARK       I    between atoms: N_35  and  C_106 
REMARK   17  A    between atoms: C_102  and  N_38 
REMARK       I    between atoms: N_38  and  C_111 
REMARK       I    between atoms: N_39  and  C_98 
REMARK   18  A    between atoms: C_112  and  N_42 
REMARK       I    between atoms: N_42  and  C_119 
REMARK   19  A    between atoms: C_43  and  C_48 
REMARK   20  A    between atoms: C_47  and  C_49 
REMARK   21  A    between atoms: C_49  and  C_50 
REMARK   22  A    between atoms: C_50  and  C_52 
REMARK   23  A    between atoms: C_51  and  C_53 
REMARK   24  A    between atoms: C_51  and  C_55 
REMARK   25  A    between atoms: C_52  and  C_54 
REMARK   26  A    between atoms: C_54  and  C_59 
REMARK   27  A    between atoms: C_58  and  C_60 
REMARK   28  A    between atoms: C_61  and  C_62 
REMARK   29  A    between atoms: C_61  and  C_63 
REMARK   30  A    between atoms: C_63  and  C_64 
REMARK   31  A    between atoms: C_65  and  C_66 
REMARK   32  A    between atoms: C_65  and  C_67 
REMARK   33  A    between atoms: C_67  and  C_71 
REMARK   34  A    between atoms: C_71  and  C_75 
REMARK   35  A    between atoms: C_72  and  C_73 
REMARK   36  A    between atoms: C_72  and  C_76 
REMARK   37  A    between atoms: C_76  and  C_88 
REMARK   38  A    between atoms: C_77  and  C_81 
REMARK   39  A    between atoms: C_77  and  C_84 
REMARK   40  A    between atoms: C_79  and  C_86 
REMARK   41  A    between atoms: C_79  and  C_87 
REMARK   42  A    between atoms: C_80  and  C_83 
REMARK   43  A    between atoms: C_80  and  C_89 
REMARK   44  A    between atoms: C_83  and  C_90 
REMARK   45  A    between atoms: C_84  and  C_91 
REMARK   46  A    between atoms: C_86  and  C_92 
REMARK   47  A    between atoms: C_90  and  C_93 
REMARK   48  A    between atoms: C_92  and  C_105 
REMARK   49  A    between atoms: C_94  and  C_95 
REMARK   50  A    between atoms: C_94  and  C_101 
REMARK   51  A    between atoms: C_102  and  C_106 
REMARK   52  A    between atoms: C_102  and  C_107 
REMARK   53  A    between atoms: C_107  and  C_110 
REMARK   54  A    between atoms: C_111  and  C_112 
REMARK   55  A    between atoms: C_112  and  C_115 
ROOT
HETATM    1  C   UNK N   1      25.636  17.546   4.574  0.00  0.00     0.180 C 
ENDROOT
BRANCH   1   2
HETATM    2  N   UNK N   1      26.733  18.235   3.927  0.00  0.00    -0.346 N 
HETATM    3  C   UNK N   1      27.967  18.410   4.465  0.00  0.00     0.241 C 
HETATM    4  O   UNK N   1      28.813  18.993   3.806  0.00  0.00    -0.271 OA
HETATM    5  H   UNK N   1      26.571  18.605   3.029  0.00  0.00     0.163 HD
BRANCH   3   6
HETATM    6  C   UNK N   1      28.321  17.873   5.856  0.00  0.00     0.182 C 
BRANCH   6   7
HETATM    7  N   UNK N   1      29.685  17.394   5.877  0.00  0.00    -0.346 N 
HETATM    8  C   UNK N   1      29.946  16.070   5.958  0.00  0.00     0.241 C 
HETATM    9  O   UNK N   1      29.022  15.271   6.055  0.00  0.00    -0.271 OA
HETATM   10  H   UNK N   1      30.429  18.037   5.832  0.00  0.00     0.163 HD
BRANCH   8  11
HETATM   11  C   UNK N   1      31.345  15.556   5.893  0.00  0.00     0.177 C 
BRANCH  11  12
HETATM   12  N   UNK N   1      32.185  16.684   5.563  0.00  0.00    -0.346 N 
HETATM   13  C   UNK N   1      33.454  16.802   6.036  0.00  0.00     0.241 C 
HETATM   14  O   UNK N   1      33.990  17.896   6.009  0.00  0.00    -0.271 OA
HETATM   15  H   UNK N   1      31.827  17.390   4.978  0.00  0.00     0.163 HD
BRANCH  13  16
HETATM   16  C   UNK N   1      34.285  15.604   6.457  0.00  0.00     0.176 C 
BRANCH  16  17
HETATM   17  N   UNK N   1      34.949  15.942   7.686  0.00  0.00    -0.346 N 
HETATM   18  C   UNK N   1      34.570  15.526   8.921  0.00  0.00     0.243 C 
HETATM   19  O   UNK N   1      33.393  15.395   9.211  0.00  0.00    -0.271 OA
HETATM   20  H   UNK N   1      35.742  16.523   7.627  0.00  0.00     0.163 HD
BRANCH  18  21
HETATM   21  C   UNK N   1      35.643  15.020   9.847  0.00  0.00     0.200 C 
BRANCH  21  22
HETATM   22  N   UNK N   1      35.163  13.800  10.470  0.00  0.00    -0.344 N 
HETATM   23  C   UNK N   1      35.921  12.946  11.221  0.00  0.00     0.241 C 
HETATM   24  O   UNK N   1      37.140  12.961  11.173  0.00  0.00    -0.271 OA
HETATM   25  H   UNK N   1      34.214  13.570  10.341  0.00  0.00     0.163 HD
BRANCH  23  26
HETATM   26  C   UNK N   1      35.225  12.053  12.182  0.00  0.00     0.180 C 
BRANCH  26  27
HETATM   27  N   UNK N   1      34.066  11.587  11.481  0.00  0.00    -0.346 N 
HETATM   28  C   UNK N   1      34.001  10.340  10.984  0.00  0.00     0.243 C 
HETATM   29  O   UNK N   1      34.821   9.492  11.309  0.00  0.00    -0.271 OA
HETATM   30  H   UNK N   1      33.300  12.194  11.360  0.00  0.00     0.163 HD
BRANCH  28  31
HETATM   31  C   UNK N   1      33.000  10.073   9.918  0.00  0.00     0.200 C 
BRANCH  31  32
HETATM   32  N   UNK N   1      33.577  10.291   8.606  0.00  0.00    -0.346 N 
HETATM   33  C   UNK N   1      33.499  11.457   7.915  0.00  0.00     0.214 C 
HETATM   34  O   UNK N   1      32.994  12.451   8.413  0.00  0.00    -0.274 OA
HETATM   35  C   UNK N   1      34.029  11.520   6.526  0.00  0.00     0.117 C 
HETATM   36  H   UNK N   1      34.058   9.541   8.187  0.00  0.00     0.163 HD
ENDBRANCH  31  32
BRANCH  31  37
HETATM   37  C   UNK N   1      32.284   8.748  10.056  0.00  0.00     0.199 C 
BRANCH  37  38
HETATM   38  O   UNK N   1      31.085   8.821   9.349  0.00  0.00    -0.398 OA
HETATM   39  H   UNK N   1      30.159   8.819   9.638  0.00  0.00     0.209 HD
ENDBRANCH  37  38
ENDBRANCH  31  37
ENDBRANCH  28  31
ENDBRANCH  26  27
BRANCH  26  40
HETATM   40  C   UNK N   1      34.859  12.943  13.386  0.00  0.00     0.073 C 
BRANCH  40  41
HETATM   41  C   UNK N   1      34.864  12.224  14.687  0.00  0.00    -0.056 A 
HETATM   42  C   UNK N   1      34.506  10.871  14.735  0.00  0.00     0.010 A 
HETATM   43  C   UNK N   1      34.585  10.169  15.935  0.00  0.00     0.037 A 
HETATM   44  C   UNK N   1      35.009  10.822  17.094  0.00  0.00     0.065 A 
HETATM   45  C   UNK N   1      35.328  12.185  17.056  0.00  0.00     0.037 A 
HETATM   46  C   UNK N   1      35.255  12.886  15.850  0.00  0.00     0.010 A 
BRANCH  44  47
HETATM   47  O   UNK N   1      35.117  10.139  18.242  0.00  0.00    -0.361 OA
HETATM   48  H   UNK N   1      34.848   9.242  18.282  0.00  0.00     0.217 HD
ENDBRANCH  44  47
ENDBRANCH  40  41
ENDBRANCH  26  40
ENDBRANCH  23  26
ENDBRANCH  21  22
BRANCH  21  49
HETATM   49  C   UNK N   1      35.940  16.116  10.879  0.00  0.00     0.199 C 
BRANCH  49  50
HETATM   50  O   UNK N   1      34.997  17.140  10.819  0.00  0.00    -0.398 OA
HETATM   51  H   UNK N   1      34.257  17.159  11.447  0.00  0.00     0.209 HD
ENDBRANCH  49  50
ENDBRANCH  21  49
ENDBRANCH  18  21
ENDBRANCH  16  17
BRANCH  16  52
HETATM   52  C   UNK N   1      35.144  14.858   5.446  0.00  0.00     0.035 C 
BRANCH  52  53
HETATM   53  C   UNK N   1      36.493  14.522   6.076  0.00  0.00     0.002 C 
BRANCH  53  54
HETATM   54  C   UNK N   1      37.264  13.522   5.225  0.00  0.00    -0.004 C 
HETATM   55  C   UNK N   1      37.944  12.507   6.120  0.00  0.00     0.005 C 
ENDBRANCH  53  54
ENDBRANCH  52  53
ENDBRANCH  16  52
ENDBRANCH  13  16
ENDBRANCH  11  12
BRANCH  11  56
HETATM   56  C   UNK N   1      31.522  14.378   4.931  0.00  0.00     0.045 C 
BRANCH  56  57
HETATM   57  C   UNK N   1      31.420  14.769   3.471  0.00  0.00     0.112 C 
BRANCH  57  58
HETATM   58  C   UNK N   1      32.738  14.550   2.809  0.00  0.00     0.139 C 
HETATM   59  O   UNK N   1      33.154  13.418   2.622  0.00  0.00    -0.650 OA
BRANCH  58  60
HETATM   60  O   UNK N   1      33.475  15.607   2.422  0.00  0.00    -0.776 OA
HETATM   61  H   UNK N   1      34.312  15.949   2.174  0.00  0.00     0.167 HD
ENDBRANCH  58  60
ENDBRANCH  57  58
ENDBRANCH  56  57
ENDBRANCH  11  56
ENDBRANCH   8  11
ENDBRANCH   6   7
BRANCH   6  62
HETATM   62  C   UNK N   1      28.154  18.904   6.977  0.00  0.00     0.093 C 
BRANCH  62  63
HETATM   63  C   UNK N   1      28.563  18.347   8.292  0.00  0.00     0.028 A 
HETATM   64  N   UNK N   1      27.890  17.386   8.941  0.00  0.00    -0.354 N 
HETATM   65  C   UNK N   1      28.607  17.157  10.058  0.00  0.00     0.180 A 
HETATM   66  H   UNK N   1      27.056  16.942   8.661  0.00  0.00     0.166 HD
HETATM   67  N   UNK N   1      29.698  17.947  10.120  0.00  0.00    -0.360 N 
HETATM   68  C   UNK N   1      29.673  18.702   9.009  0.00  0.00     0.114 A 
ATOM     69  HN  UNK N   1      30.400  17.967  10.860  1.00  0.00     0.166 HD
ENDBRANCH  62  63
ENDBRANCH   6  62
ENDBRANCH   3   6
ENDBRANCH   1   2
BRANCH   1  70
HETATM   70  C   UNK N   1      24.580  18.474   5.110  0.00  0.00     0.241 C 
HETATM   71  O   UNK N   1      24.875  19.647   5.264  0.00  0.00    -0.271 OA
HETATM   72  N   UNK N   1      23.304  18.090   5.367  0.00  0.00    -0.346 N 
HETATM   73  H   UNK N   1      22.709  18.779   5.742  0.00  0.00     0.163 HD
BRANCH  72  74
HETATM   74  C   UNK N   1      22.713  16.780   5.152  0.00  0.00     0.176 C 
BRANCH  74  75
HETATM   75  C   UNK N   1      22.000  16.281   6.384  0.00  0.00     0.241 C 
HETATM   76  O   UNK N   1      21.609  17.090   7.209  0.00  0.00    -0.271 OA
HETATM   77  N   UNK N   1      21.764  14.959   6.588  0.00  0.00    -0.346 N 
HETATM   78  H   UNK N   1      21.297  14.689   7.411  0.00  0.00     0.163 HD
BRANCH  77  79
HETATM   79  C   UNK N   1      22.165  13.928   5.652  0.00  0.00     0.181 C 
BRANCH  79  80
HETATM   80  C   UNK N   1      21.116  13.388   4.731  0.00  0.00     0.241 C 
HETATM   81  O   UNK N   1      20.050  13.013   5.187  0.00  0.00    -0.271 OA
HETATM   82  N   UNK N   1      21.334  13.320   3.398  0.00  0.00    -0.351 N 
HETATM   83  H   UNK N   1      20.647  12.916   2.819  0.00  0.00     0.163 HD
BRANCH  82  84
HETATM   84  C   UNK N   1      22.550  13.822   2.803  0.00  0.00     0.225 C 
BRANCH  84  85
HETATM   85  C   UNK N   1      22.388  14.053   1.317  0.00  0.00     0.236 C 
HETATM   86  O   UNK N   1      21.917  15.104   0.909  0.00  0.00    -0.272 OA
HETATM   87  N   UNK N   1      22.757  13.107   0.420  0.00  0.00    -0.346 N 
HETATM   88  H   UNK N   1      22.612  13.295  -0.536  0.00  0.00     0.163 HD
BRANCH  87  89
HETATM   89  C   UNK N   1      23.353  11.837   0.779  0.00  0.00     0.176 C 
BRANCH  89  90
HETATM   90  C   UNK N   1      22.997  10.766  -0.232  0.00  0.00     0.243 C 
HETATM   91  O   UNK N   1      23.587  10.748  -1.295  0.00  0.00    -0.271 OA
HETATM   92  N   UNK N   1      22.024   9.845   0.040  0.00  0.00    -0.337 N 
HETATM   93  C   UNK N   1      21.514   8.949  -0.969  0.00  0.00     0.179 C 
HETATM   94  C   UNK N   1      21.228   9.896   1.230  0.00  0.00     0.127 C 
HETATM   95  C   UNK N   1      20.026   8.987  -0.659  0.00  0.00     0.037 C 
HETATM   96  C   UNK N   1      19.923   9.225   0.847  0.00  0.00     0.022 C 
BRANCH  93  97
HETATM   97  C   UNK N   1      22.009   7.529  -0.750  0.00  0.00     0.241 C 
HETATM   98  O   UNK N   1      21.712   6.937   0.276  0.00  0.00    -0.271 OA
HETATM   99  N   UNK N   1      22.735   6.872  -1.697  0.00  0.00    -0.346 N 
HETATM  100  H   UNK N   1      22.995   5.943  -1.498  0.00  0.00     0.163 HD
BRANCH  99 101
HETATM  101  C   UNK N   1      23.162   7.423  -2.974  0.00  0.00     0.179 C 
BRANCH 101 102
HETATM  102  C   UNK N   1      22.643   6.696  -4.217  0.00  0.00     0.009 C 
HETATM  103  C   UNK N   1      22.138   5.298  -3.908  0.00  0.00     0.012 C 
HETATM  104  C   UNK N   1      21.540   7.509  -4.861  0.00  0.00     0.012 C 
ENDBRANCH 101 102
BRANCH 101 105
HETATM  105  C   UNK N   1      24.519   8.075  -3.028  0.00  0.00     0.238 C 
HETATM  106  O   UNK N   1      24.954   8.488  -4.091  0.00  0.00    -0.271 OA
HETATM  107  N   UNK N   1      25.300   8.116  -1.930  0.00  0.00    -0.368 N 
HETATM  108  H   UNK N   1      25.975   8.323  -1.243  0.00  0.00     0.159 HD
HETATM  109  H   UNK N   1      24.866   7.375  -1.449  0.00  0.00     0.159 HD
ENDBRANCH 101 105
ENDBRANCH  99 101
ENDBRANCH  93  97
ENDBRANCH  89  90
BRANCH  89 110
HETATM  110  C   UNK N   1      24.879  11.952   0.849  0.00  0.00     0.035 C 
BRANCH 110 111
HETATM  111  C   UNK N   1      25.531  10.919   1.758  0.00  0.00     0.004 C 
BRANCH 111 112
HETATM  112  C   UNK N   1      24.776  10.780   3.075  0.00  0.00     0.019 C 
BRANCH 112 113
HETATM  113  C   UNK N   1      24.631   9.323   3.491  0.00  0.00     0.111 C 
BRANCH 113 114
HETATM  114  N   UNK N   1      24.384   8.488   2.329  0.00  0.00    -0.430 N 
HETATM  115  H   UNK N   1      25.098   7.959   1.827  0.00  0.00     0.149 HD
HETATM  116  H   UNK N   1      23.425   8.426   1.988  0.00  0.00     0.149 HD
ENDBRANCH 113 114
ENDBRANCH 112 113
ENDBRANCH 111 112
ENDBRANCH 110 111
ENDBRANCH  89 110
ENDBRANCH  87  89
ENDBRANCH  84  85
ENDBRANCH  82  84
ENDBRANCH  79  80
BRANCH  79 117
HETATM  117  C   UNK N   1      23.553  13.301   5.749  0.00  0.00     0.075 C 
BRANCH 117 118
HETATM  118  C   UNK N   1      24.225  13.485   7.079  0.00  0.00    -0.028 A 
HETATM  119  C   UNK N   1      23.901  12.817   8.228  0.00  0.00    -0.002 A 
HETATM  120  C   UNK N   1      24.759  13.248   9.197  0.00  0.00     0.042 A 
HETATM  121  C   UNK N   1      22.927  11.855   8.483  0.00  0.00     0.014 A 
HETATM  122  N   UNK N   1      25.614  14.166   8.712  0.00  0.00    -0.365 N 
HETATM  123  C   UNK N   1      24.714  12.748  10.494  0.00  0.00     0.030 A 
HETATM  124  C   UNK N   1      25.297  14.317   7.401  0.00  0.00     0.096 A 
HETATM  125  H   UNK N   1      26.325  14.632   9.207  0.00  0.00     0.165 HD
HETATM  126  C   UNK N   1      23.745  11.768  10.785  0.00  0.00     0.002 A 
HETATM  127  C   UNK N   1      22.855  11.323   9.782  0.00  0.00     0.001 A 
ENDBRANCH 117 118
ENDBRANCH  79 117
ENDBRANCH  77  79
ENDBRANCH  74  75
BRANCH  74 128
HETATM  128  C   UNK N   1      21.714  16.839   3.997  0.00  0.00     0.036 C 
BRANCH 128 129
HETATM  129  C   UNK N   1      21.640  18.222   3.358  0.00  0.00     0.023 C 
BRANCH 129 130
HETATM  130  C   UNK N   1      20.197  18.626   3.123  0.00  0.00     0.138 C 
BRANCH 130 131
HETATM  131  N   UNK N   1      20.063  19.192   1.808  0.00  0.00    -0.227 N 
HETATM  132  C   UNK N   1      20.508  20.503   1.520  0.00  0.00     0.665 C 
HETATM  133  N   UNK N   1      20.968  21.351   2.555  0.00  0.00    -0.235 N 
HETATM  134  N   UNK N   1      20.526  20.913   0.308  0.00  0.00    -0.235 N 
HETATM  135  H   UNK N   1      21.261  21.141   3.471  0.00  0.00     0.174 HD
HETATM  136  H   UNK N   1      20.998  22.307   2.322  0.00  0.00     0.174 HD
HETATM  137  H   UNK N   1      21.118  21.424  -0.291  0.00  0.00     0.174 HD
ATOM    138  HN  UNK N   1      19.679  20.627  -0.182  1.00  0.00     0.174 HD
HETATM  139  H   UNK N   1      19.651  18.655   1.093  0.00  0.00     0.177 HD
ENDBRANCH 130 131
ENDBRANCH 129 130
ENDBRANCH 128 129
ENDBRANCH  74 128
ENDBRANCH  72  74
ENDBRANCH   1  70
BRANCH   1 140
HETATM  140  C   UNK N   1      25.028  16.522   3.628  0.00  0.00     0.073 C 
BRANCH 140 141
HETATM  141  C   UNK N   1      26.028  15.488   3.230  0.00  0.00    -0.056 A 
HETATM  142  C   UNK N   1      26.607  15.502   1.955  0.00  0.00     0.007 A 
HETATM  143  C   UNK N   1      27.540  14.524   1.597  0.00  0.00     0.001 A 
HETATM  144  C   UNK N   1      27.893  13.527   2.512  0.00  0.00     0.000 A 
HETATM  145  C   UNK N   1      27.311  13.506   3.783  0.00  0.00     0.001 A 
HETATM  146  C   UNK N   1      26.380  14.486   4.142  0.00  0.00     0.007 A 
ENDBRANCH 140 141
ENDBRANCH   1 140
TORSDOF 55
ENDMDL
MODEL 7
REMARK VINA RESULT:      -6.8      2.527      6.352
REMARK WARNING: 32 MAX_TORS EXCEEDED!!!
REMARK  55 active torsions:
REMARK  status: ('A' for Active; 'I' for Inactive)
REMARK    1  A    between atoms: O_12  and  C_101 
REMARK    2  A    between atoms: O_13  and  C_105 
REMARK    3  A    between atoms: O_17  and  C_115 
REMARK    4  A    between atoms: O_18  and  C_118 
REMARK       I    between atoms: N_20  and  C_47 
REMARK       I    between atoms: N_21  and  C_48 
REMARK    5  A    between atoms: C_51  and  N_21 
REMARK    6  A    between atoms: C_49  and  N_22 
REMARK       I    between atoms: N_22  and  C_58 
REMARK       I    between atoms: N_23  and  C_55 
REMARK    7  A    between atoms: N_24  and  C_59 
REMARK    8  A    between atoms: N_25  and  C_60 
REMARK       I    between atoms: N_25  and  C_62 
REMARK    9  A    between atoms: C_61  and  N_26 
REMARK       I    between atoms: N_26  and  C_66 
REMARK   10  A    between atoms: C_65  and  N_27 
REMARK       I    between atoms: N_27  and  C_73 
REMARK   11  A    between atoms: C_72  and  N_29 
REMARK       I    between atoms: N_29  and  C_81 
REMARK   12  A    between atoms: C_77  and  N_30 
REMARK       I    between atoms: N_30  and  C_87 
REMARK   13  A    between atoms: C_79  and  N_31 
REMARK       I    between atoms: N_31  and  C_89 
REMARK   14  A    between atoms: N_32  and  C_75 
REMARK       I    between atoms: N_32  and  C_98 
REMARK   15  A    between atoms: C_80  and  N_33 
REMARK       I    between atoms: N_33  and  C_95 
REMARK   16  A    between atoms: C_94  and  N_35 
REMARK       I    between atoms: N_35  and  C_106 
REMARK   17  A    between atoms: C_102  and  N_38 
REMARK       I    between atoms: N_38  and  C_111 
REMARK       I    between atoms: N_39  and  C_98 
REMARK   18  A    between atoms: C_112  and  N_42 
REMARK       I    between atoms: N_42  and  C_119 
REMARK   19  A    between atoms: C_43  and  C_48 
REMARK   20  A    between atoms: C_47  and  C_49 
REMARK   21  A    between atoms: C_49  and  C_50 
REMARK   22  A    between atoms: C_50  and  C_52 
REMARK   23  A    between atoms: C_51  and  C_53 
REMARK   24  A    between atoms: C_51  and  C_55 
REMARK   25  A    between atoms: C_52  and  C_54 
REMARK   26  A    between atoms: C_54  and  C_59 
REMARK   27  A    between atoms: C_58  and  C_60 
REMARK   28  A    between atoms: C_61  and  C_62 
REMARK   29  A    between atoms: C_61  and  C_63 
REMARK   30  A    between atoms: C_63  and  C_64 
REMARK   31  A    between atoms: C_65  and  C_66 
REMARK   32  A    between atoms: C_65  and  C_67 
REMARK   33  A    between atoms: C_67  and  C_71 
REMARK   34  A    between atoms: C_71  and  C_75 
REMARK   35  A    between atoms: C_72  and  C_73 
REMARK   36  A    between atoms: C_72  and  C_76 
REMARK   37  A    between atoms: C_76  and  C_88 
REMARK   38  A    between atoms: C_77  and  C_81 
REMARK   39  A    between atoms: C_77  and  C_84 
REMARK   40  A    between atoms: C_79  and  C_86 
REMARK   41  A    between atoms: C_79  and  C_87 
REMARK   42  A    between atoms: C_80  and  C_83 
REMARK   43  A    between atoms: C_80  and  C_89 
REMARK   44  A    between atoms: C_83  and  C_90 
REMARK   45  A    between atoms: C_84  and  C_91 
REMARK   46  A    between atoms: C_86  and  C_92 
REMARK   47  A    between atoms: C_90  and  C_93 
REMARK   48  A    between atoms: C_92  and  C_105 
REMARK   49  A    between atoms: C_94  and  C_95 
REMARK   50  A    between atoms: C_94  and  C_101 
REMARK   51  A    between atoms: C_102  and  C_106 
REMARK   52  A    between atoms: C_102  and  C_107 
REMARK   53  A    between atoms: C_107  and  C_110 
REMARK   54  A    between atoms: C_111  and  C_112 
REMARK   55  A    between atoms: C_112  and  C_115 
ROOT
HETATM    1  C   UNK N   1      25.521  15.594   4.049  0.00  0.00     0.180 C 
ENDROOT
BRANCH   1   2
HETATM    2  N   UNK N   1      25.430  14.378   4.829  0.00  0.00    -0.346 N 
HETATM    3  C   UNK N   1      26.476  13.566   5.128  0.00  0.00     0.241 C 
HETATM    4  O   UNK N   1      26.269  12.576   5.813  0.00  0.00    -0.271 OA
HETATM    5  H   UNK N   1      24.542  14.120   5.167  0.00  0.00     0.163 HD
BRANCH   3   6
HETATM    6  C   UNK N   1      27.898  13.877   4.651  0.00  0.00     0.182 C 
BRANCH   6   7
HETATM    7  N   UNK N   1      28.481  14.923   5.460  0.00  0.00    -0.346 N 
HETATM    8  C   UNK N   1      29.202  15.913   4.887  0.00  0.00     0.241 C 
HETATM    9  O   UNK N   1      29.398  15.902   3.677  0.00  0.00    -0.271 OA
HETATM   10  H   UNK N   1      28.352  14.915   6.436  0.00  0.00     0.163 HD
BRANCH   8  11
HETATM   11  C   UNK N   1      29.737  17.045   5.698  0.00  0.00     0.177 C 
BRANCH  11  12
HETATM   12  N   UNK N   1      31.070  17.310   5.210  0.00  0.00    -0.346 N 
HETATM   13  C   UNK N   1      32.178  16.876   5.867  0.00  0.00     0.241 C 
HETATM   14  O   UNK N   1      33.252  17.393   5.609  0.00  0.00    -0.271 OA
HETATM   15  H   UNK N   1      31.179  17.820   4.375  0.00  0.00     0.163 HD
BRANCH  13  16
HETATM   16  C   UNK N   1      32.162  15.677   6.796  0.00  0.00     0.176 C 
BRANCH  16  17
HETATM   17  N   UNK N   1      33.134  15.911   7.829  0.00  0.00    -0.346 N 
HETATM   18  C   UNK N   1      33.133  15.322   9.052  0.00  0.00     0.243 C 
HETATM   19  O   UNK N   1      32.091  15.073   9.634  0.00  0.00    -0.271 OA
HETATM   20  H   UNK N   1      33.857  16.549   7.634  0.00  0.00     0.163 HD
BRANCH  18  21
HETATM   21  C   UNK N   1      34.441  14.786   9.570  0.00  0.00     0.200 C 
BRANCH  21  22
HETATM   22  N   UNK N   1      34.172  13.547  10.277  0.00  0.00    -0.344 N 
HETATM   23  C   UNK N   1      35.118  12.643  10.674  0.00  0.00     0.241 C 
HETATM   24  O   UNK N   1      36.239  12.636  10.192  0.00  0.00    -0.271 OA
HETATM   25  H   UNK N   1      33.232  13.342  10.489  0.00  0.00     0.163 HD
BRANCH  23  26
HETATM   26  C   UNK N   1      34.780  11.720  11.787  0.00  0.00     0.180 C 
BRANCH  26  27
HETATM   27  N   UNK N   1      35.440  12.266  12.935  0.00  0.00    -0.346 N 
HETATM   28  C   UNK N   1      34.835  12.318  14.134  0.00  0.00     0.243 C 
HETATM   29  O   UNK N   1      33.801  11.696  14.341  0.00  0.00    -0.271 OA
HETATM   30  H   UNK N   1      36.357  12.613  12.843  0.00  0.00     0.163 HD
BRANCH  28  31
HETATM   31  C   UNK N   1      35.376  13.268  15.140  0.00  0.00     0.200 C 
BRANCH  31  32
HETATM   32  N   UNK N   1      35.176  12.762  16.483  0.00  0.00    -0.346 N 
HETATM   33  C   UNK N   1      35.743  11.629  16.970  0.00  0.00     0.214 C 
HETATM   34  O   UNK N   1      36.550  10.995  16.309  0.00  0.00    -0.274 OA
HETATM   35  C   UNK N   1      35.367  11.149  18.327  0.00  0.00     0.117 C 
HETATM   36  H   UNK N   1      34.588  13.275  17.084  0.00  0.00     0.163 HD
ENDBRANCH  31  32
BRANCH  31  37
HETATM   37  C   UNK N   1      36.793  13.723  14.866  0.00  0.00     0.199 C 
BRANCH  37  38
HETATM   38  O   UNK N   1      36.759  14.675  13.848  0.00  0.00    -0.398 OA
HETATM   39  H   UNK N   1      36.043  15.231  13.502  0.00  0.00     0.209 HD
ENDBRANCH  37  38
ENDBRANCH  31  37
ENDBRANCH  28  31
ENDBRANCH  26  27
BRANCH  26  40
HETATM   40  C   UNK N   1      35.357  10.350  11.380  0.00  0.00     0.073 C 
BRANCH  40  41
HETATM   41  C   UNK N   1      34.322   9.349  11.012  0.00  0.00    -0.056 A 
HETATM   42  C   UNK N   1      33.102   9.775  10.472  0.00  0.00     0.010 A 
HETATM   43  C   UNK N   1      32.159   8.841  10.051  0.00  0.00     0.037 A 
HETATM   44  C   UNK N   1      32.428   7.477  10.181  0.00  0.00     0.065 A 
HETATM   45  C   UNK N   1      33.630   7.050  10.757  0.00  0.00     0.037 A 
HETATM   46  C   UNK N   1      34.578   7.987  11.174  0.00  0.00     0.010 A 
BRANCH  44  47
HETATM   47  O   UNK N   1      31.535   6.577   9.745  0.00  0.00    -0.361 OA
HETATM   48  H   UNK N   1      30.639   6.825   9.628  0.00  0.00     0.217 HD
ENDBRANCH  44  47
ENDBRANCH  40  41
ENDBRANCH  26  40
ENDBRANCH  23  26
ENDBRANCH  21  22
BRANCH  21  49
HETATM   49  C   UNK N   1      35.065  15.848  10.484  0.00  0.00     0.199 C 
BRANCH  49  50
HETATM   50  O   UNK N   1      34.488  17.099  10.278  0.00  0.00    -0.398 OA
HETATM   51  H   UNK N   1      33.551  17.244  10.487  0.00  0.00     0.209 HD
ENDBRANCH  49  50
ENDBRANCH  21  49
ENDBRANCH  18  21
ENDBRANCH  16  17
BRANCH  16  52
HETATM   52  C   UNK N   1      32.144  14.260   6.239  0.00  0.00     0.035 C 
BRANCH  52  53
HETATM   53  C   UNK N   1      33.420  14.014   5.438  0.00  0.00     0.002 C 
BRANCH  53  54
HETATM   54  C   UNK N   1      33.109  13.370   4.093  0.00  0.00    -0.004 C 
HETATM   55  C   UNK N   1      32.569  14.415   3.139  0.00  0.00     0.005 C 
ENDBRANCH  53  54
ENDBRANCH  52  53
ENDBRANCH  16  52
ENDBRANCH  13  16
ENDBRANCH  11  12
BRANCH  11  56
HETATM   56  C   UNK N   1      29.691  16.794   7.207  0.00  0.00     0.045 C 
BRANCH  56  57
HETATM   57  C   UNK N   1      29.152  17.966   8.000  0.00  0.00     0.112 C 
BRANCH  57  58
HETATM   58  C   UNK N   1      30.142  18.352   9.046  0.00  0.00     0.139 C 
HETATM   59  O   UNK N   1      31.336  18.350   8.795  0.00  0.00    -0.650 OA
BRANCH  58  60
HETATM   60  O   UNK N   1      29.715  18.699  10.274  0.00  0.00    -0.776 OA
HETATM   61  H   UNK N   1      29.436  19.374  10.861  0.00  0.00     0.167 HD
ENDBRANCH  58  60
ENDBRANCH  57  58
ENDBRANCH  56  57
ENDBRANCH  11  56
ENDBRANCH   8  11
ENDBRANCH   6   7
BRANCH   6  62
HETATM   62  C   UNK N   1      28.837  12.666   4.676  0.00  0.00     0.093 C 
BRANCH  62  63
HETATM   63  C   UNK N   1      29.387  12.377   3.328  0.00  0.00     0.028 A 
HETATM   64  N   UNK N   1      29.179  13.149   2.251  0.00  0.00    -0.354 N 
HETATM   65  C   UNK N   1      29.868  12.552   1.260  0.00  0.00     0.180 A 
HETATM   66  H   UNK N   1      28.641  13.973   2.198  0.00  0.00     0.166 HD
HETATM   67  N   UNK N   1      30.494  11.437   1.690  0.00  0.00    -0.360 N 
HETATM   68  C   UNK N   1      30.190  11.321   2.994  0.00  0.00     0.114 A 
ATOM     69  HN  UNK N   1      31.079  10.810   1.137  1.00  0.00     0.166 HD
ENDBRANCH  62  63
ENDBRANCH   6  62
ENDBRANCH   3   6
ENDBRANCH   1   2
BRANCH   1  70
HETATM   70  C   UNK N   1      24.941  15.464   2.666  0.00  0.00     0.241 C 
HETATM   71  O   UNK N   1      25.668  15.704   1.718  0.00  0.00    -0.271 OA
HETATM   72  N   UNK N   1      23.679  15.030   2.420  0.00  0.00    -0.346 N 
HETATM   73  H   UNK N   1      23.402  15.013   1.476  0.00  0.00     0.163 HD
BRANCH  72  74
HETATM   74  C   UNK N   1      22.689  14.589   3.388  0.00  0.00     0.176 C 
BRANCH  74  75
HETATM   75  C   UNK N   1      21.897  15.746   3.944  0.00  0.00     0.241 C 
HETATM   76  O   UNK N   1      21.661  16.701   3.222  0.00  0.00    -0.271 OA
HETATM   77  N   UNK N   1      21.423  15.743   5.216  0.00  0.00    -0.346 N 
HETATM   78  H   UNK N   1      20.915  16.527   5.528  0.00  0.00     0.163 HD
BRANCH  77  79
HETATM   79  C   UNK N   1      21.629  14.643   6.137  0.00  0.00     0.181 C 
BRANCH  79  80
HETATM   80  C   UNK N   1      20.796  13.415   5.939  0.00  0.00     0.241 C 
HETATM   81  O   UNK N   1      19.588  13.520   5.818  0.00  0.00    -0.271 OA
HETATM   82  N   UNK N   1      21.370  12.192   5.884  0.00  0.00    -0.351 N 
HETATM   83  H   UNK N   1      20.796  11.395   5.802  0.00  0.00     0.163 HD
BRANCH  82  84
HETATM   84  C   UNK N   1      22.803  12.024   5.946  0.00  0.00     0.225 C 
BRANCH  84  85
HETATM   85  C   UNK N   1      23.182  10.607   6.314  0.00  0.00     0.236 C 
HETATM   86  O   UNK N   1      23.494  10.335   7.463  0.00  0.00    -0.272 OA
HETATM   87  N   UNK N   1      23.181   9.621   5.384  0.00  0.00    -0.346 N 
HETATM   88  H   UNK N   1      23.456   8.719   5.666  0.00  0.00     0.163 HD
BRANCH  87  89
HETATM   89  C   UNK N   1      22.802   9.812   3.999  0.00  0.00     0.176 C 
BRANCH  89  90
HETATM   90  C   UNK N   1      23.803   9.159   3.067  0.00  0.00     0.243 C 
HETATM   91  O   UNK N   1      23.939   7.951   3.111  0.00  0.00    -0.271 OA
HETATM   92  N   UNK N   1      24.547   9.912   2.203  0.00  0.00    -0.337 N 
HETATM   93  C   UNK N   1      25.650   9.357   1.458  0.00  0.00     0.179 C 
HETATM   94  C   UNK N   1      24.501  11.345   2.196  0.00  0.00     0.127 C 
HETATM   95  C   UNK N   1      26.672  10.477   1.581  0.00  0.00     0.037 C 
HETATM   96  C   UNK N   1      25.860  11.769   1.673  0.00  0.00     0.022 C 
BRANCH  93  97
HETATM   97  C   UNK N   1      25.299   9.195  -0.012  0.00  0.00     0.241 C 
HETATM   98  O   UNK N   1      24.329   9.780  -0.470  0.00  0.00    -0.271 OA
HETATM   99  N   UNK N   1      26.072   8.453  -0.853  0.00  0.00    -0.346 N 
HETATM  100  H   UNK N   1      25.800   8.418  -1.799  0.00  0.00     0.163 HD
BRANCH  99 101
HETATM  101  C   UNK N   1      27.262   7.706  -0.476  0.00  0.00     0.179 C 
BRANCH 101 102
HETATM  102  C   UNK N   1      28.507   7.967  -1.327  0.00  0.00     0.009 C 
HETATM  103  C   UNK N   1      28.204   7.984  -2.815  0.00  0.00     0.012 C 
HETATM  104  C   UNK N   1      29.140   9.280  -0.918  0.00  0.00     0.012 C 
ENDBRANCH 101 102
BRANCH 101 105
HETATM  105  C   UNK N   1      27.061   6.334   0.115  0.00  0.00     0.238 C 
HETATM  106  O   UNK N   1      26.285   5.553  -0.411  0.00  0.00    -0.271 OA
HETATM  107  N   UNK N   1      27.656   5.999   1.277  0.00  0.00    -0.368 N 
HETATM  108  H   UNK N   1      28.053   5.535   2.049  0.00  0.00     0.159 HD
HETATM  109  H   UNK N   1      27.810   6.916   1.600  0.00  0.00     0.159 HD
ENDBRANCH 101 105
ENDBRANCH  99 101
ENDBRANCH  93  97
ENDBRANCH  89  90
BRANCH  89 110
HETATM  110  C   UNK N   1      21.420   9.211   3.726  0.00  0.00     0.035 C 
BRANCH 110 111
HETATM  111  C   UNK N   1      20.610   9.980   2.690  0.00  0.00     0.004 C 
BRANCH 111 112
HETATM  112  C   UNK N   1      19.392  10.647   3.318  0.00  0.00     0.019 C 
BRANCH 112 113
HETATM  113  C   UNK N   1      18.683  11.568   2.336  0.00  0.00     0.111 C 
BRANCH 113 114
HETATM  114  N   UNK N   1      18.952  11.154   0.971  0.00  0.00    -0.430 N 
HETATM  115  H   UNK N   1      19.084  11.787   0.181  0.00  0.00     0.149 HD
HETATM  116  H   UNK N   1      19.013  10.153   0.785  0.00  0.00     0.149 HD
ENDBRANCH 113 114
ENDBRANCH 112 113
ENDBRANCH 111 112
ENDBRANCH 110 111
ENDBRANCH  89 110
ENDBRANCH  87  89
ENDBRANCH  84  85
ENDBRANCH  82  84
ENDBRANCH  79  80
BRANCH  79 117
HETATM  117  C   UNK N   1      22.521  14.823   7.361  0.00  0.00     0.075 C 
BRANCH 117 118
HETATM  118  C   UNK N   1      22.017  14.144   8.602  0.00  0.00    -0.028 A 
HETATM  119  C   UNK N   1      22.777  13.395   9.459  0.00  0.00    -0.002 A 
HETATM  120  C   UNK N   1      21.954  12.984  10.466  0.00  0.00     0.042 A 
HETATM  121  C   UNK N   1      24.128  13.064   9.430  0.00  0.00     0.014 A 
HETATM  122  N   UNK N   1      20.702  13.436  10.283  0.00  0.00    -0.365 N 
HETATM  123  C   UNK N   1      22.420  12.211  11.526  0.00  0.00     0.030 A 
HETATM  124  C   UNK N   1      20.729  14.160   9.136  0.00  0.00     0.096 A 
HETATM  125  H   UNK N   1      19.923  13.276  10.864  0.00  0.00     0.165 HD
HETATM  126  C   UNK N   1      23.785  11.863  11.532  0.00  0.00     0.002 A 
HETATM  127  C   UNK N   1      24.636  12.288  10.487  0.00  0.00     0.001 A 
ENDBRANCH 117 118
ENDBRANCH  79 117
ENDBRANCH  77  79
ENDBRANCH  74  75
BRANCH  74 128
HETATM  128  C   UNK N   1      21.723  13.601   2.735  0.00  0.00     0.036 C 
BRANCH 128 129
HETATM  129  C   UNK N   1      21.738  13.687   1.212  0.00  0.00     0.023 C 
BRANCH 129 130
HETATM  130  C   UNK N   1      20.517  14.429   0.707  0.00  0.00     0.138 C 
BRANCH 130 131
HETATM  131  N   UNK N   1      20.781  15.844   0.701  0.00  0.00    -0.227 N 
HETATM  132  C   UNK N   1      19.777  16.781   0.364  0.00  0.00     0.665 C 
HETATM  133  N   UNK N   1      18.520  16.346  -0.120  0.00  0.00    -0.235 N 
HETATM  134  N   UNK N   1      19.996  18.030   0.530  0.00  0.00    -0.235 N 
HETATM  135  H   UNK N   1      18.088  15.463  -0.074  0.00  0.00     0.174 HD
HETATM  136  H   UNK N   1      17.993  17.040  -0.578  0.00  0.00     0.174 HD
HETATM  137  H   UNK N   1      19.523  18.825   0.868  0.00  0.00     0.174 HD
ATOM    138  HN  UNK N   1      20.937  18.275   0.222  1.00  0.00     0.174 HD
HETATM  139  H   UNK N   1      21.680  16.165   0.937  0.00  0.00     0.177 HD
ENDBRANCH 130 131
ENDBRANCH 129 130
ENDBRANCH 128 129
ENDBRANCH  74 128
ENDBRANCH  72  74
ENDBRANCH   1  70
BRANCH   1 140
HETATM  140  C   UNK N   1      24.876  16.749   4.800  0.00  0.00     0.073 C 
BRANCH 140 141
HETATM  141  C   UNK N   1      25.316  18.066   4.252  0.00  0.00    -0.056 A 
HETATM  142  C   UNK N   1      24.388  18.962   3.705  0.00  0.00     0.007 A 
HETATM  143  C   UNK N   1      24.816  20.190   3.192  0.00  0.00     0.001 A 
HETATM  144  C   UNK N   1      26.174  20.524   3.222  0.00  0.00     0.000 A 
HETATM  145  C   UNK N   1      27.103  19.630   3.759  0.00  0.00     0.001 A 
HETATM  146  C   UNK N   1      26.675  18.402   4.275  0.00  0.00     0.007 A 
ENDBRANCH 140 141
ENDBRANCH   1 140
TORSDOF 55
ENDMDL
MODEL 8
REMARK VINA RESULT:      -6.7      3.097     14.013
REMARK WARNING: 32 MAX_TORS EXCEEDED!!!
REMARK  55 active torsions:
REMARK  status: ('A' for Active; 'I' for Inactive)
REMARK    1  A    between atoms: O_12  and  C_101 
REMARK    2  A    between atoms: O_13  and  C_105 
REMARK    3  A    between atoms: O_17  and  C_115 
REMARK    4  A    between atoms: O_18  and  C_118 
REMARK       I    between atoms: N_20  and  C_47 
REMARK       I    between atoms: N_21  and  C_48 
REMARK    5  A    between atoms: C_51  and  N_21 
REMARK    6  A    between atoms: C_49  and  N_22 
REMARK       I    between atoms: N_22  and  C_58 
REMARK       I    between atoms: N_23  and  C_55 
REMARK    7  A    between atoms: N_24  and  C_59 
REMARK    8  A    between atoms: N_25  and  C_60 
REMARK       I    between atoms: N_25  and  C_62 
REMARK    9  A    between atoms: C_61  and  N_26 
REMARK       I    between atoms: N_26  and  C_66 
REMARK   10  A    between atoms: C_65  and  N_27 
REMARK       I    between atoms: N_27  and  C_73 
REMARK   11  A    between atoms: C_72  and  N_29 
REMARK       I    between atoms: N_29  and  C_81 
REMARK   12  A    between atoms: C_77  and  N_30 
REMARK       I    between atoms: N_30  and  C_87 
REMARK   13  A    between atoms: C_79  and  N_31 
REMARK       I    between atoms: N_31  and  C_89 
REMARK   14  A    between atoms: N_32  and  C_75 
REMARK       I    between atoms: N_32  and  C_98 
REMARK   15  A    between atoms: C_80  and  N_33 
REMARK       I    between atoms: N_33  and  C_95 
REMARK   16  A    between atoms: C_94  and  N_35 
REMARK       I    between atoms: N_35  and  C_106 
REMARK   17  A    between atoms: C_102  and  N_38 
REMARK       I    between atoms: N_38  and  C_111 
REMARK       I    between atoms: N_39  and  C_98 
REMARK   18  A    between atoms: C_112  and  N_42 
REMARK       I    between atoms: N_42  and  C_119 
REMARK   19  A    between atoms: C_43  and  C_48 
REMARK   20  A    between atoms: C_47  and  C_49 
REMARK   21  A    between atoms: C_49  and  C_50 
REMARK   22  A    between atoms: C_50  and  C_52 
REMARK   23  A    between atoms: C_51  and  C_53 
REMARK   24  A    between atoms: C_51  and  C_55 
REMARK   25  A    between atoms: C_52  and  C_54 
REMARK   26  A    between atoms: C_54  and  C_59 
REMARK   27  A    between atoms: C_58  and  C_60 
REMARK   28  A    between atoms: C_61  and  C_62 
REMARK   29  A    between atoms: C_61  and  C_63 
REMARK   30  A    between atoms: C_63  and  C_64 
REMARK   31  A    between atoms: C_65  and  C_66 
REMARK   32  A    between atoms: C_65  and  C_67 
REMARK   33  A    between atoms: C_67  and  C_71 
REMARK   34  A    between atoms: C_71  and  C_75 
REMARK   35  A    between atoms: C_72  and  C_73 
REMARK   36  A    between atoms: C_72  and  C_76 
REMARK   37  A    between atoms: C_76  and  C_88 
REMARK   38  A    between atoms: C_77  and  C_81 
REMARK   39  A    between atoms: C_77  and  C_84 
REMARK   40  A    between atoms: C_79  and  C_86 
REMARK   41  A    between atoms: C_79  and  C_87 
REMARK   42  A    between atoms: C_80  and  C_83 
REMARK   43  A    between atoms: C_80  and  C_89 
REMARK   44  A    between atoms: C_83  and  C_90 
REMARK   45  A    between atoms: C_84  and  C_91 
REMARK   46  A    between atoms: C_86  and  C_92 
REMARK   47  A    between atoms: C_90  and  C_93 
REMARK   48  A    between atoms: C_92  and  C_105 
REMARK   49  A    between atoms: C_94  and  C_95 
REMARK   50  A    between atoms: C_94  and  C_101 
REMARK   51  A    between atoms: C_102  and  C_106 
REMARK   52  A    between atoms: C_102  and  C_107 
REMARK   53  A    between atoms: C_107  and  C_110 
REMARK   54  A    between atoms: C_111  and  C_112 
REMARK   55  A    between atoms: C_112  and  C_115 
ROOT
HETATM    1  C   UNK N   1      31.802  15.645   4.737  0.00  0.00     0.180 C 
ENDROOT
BRANCH   1   2
HETATM    2  N   UNK N   1      31.000  15.916   5.911  0.00  0.00    -0.346 N 
HETATM    3  C   UNK N   1      29.844  16.628   5.915  0.00  0.00     0.241 C 
HETATM    4  O   UNK N   1      29.250  16.769   6.972  0.00  0.00    -0.271 OA
HETATM    5  H   UNK N   1      31.317  15.558   6.771  0.00  0.00     0.163 HD
BRANCH   3   6
HETATM    6  C   UNK N   1      29.264  17.227   4.630  0.00  0.00     0.182 C 
BRANCH   6   7
HETATM    7  N   UNK N   1      27.867  16.880   4.500  0.00  0.00    -0.346 N 
HETATM    8  C   UNK N   1      27.451  16.070   3.501  0.00  0.00     0.241 C 
HETATM    9  O   UNK N   1      28.257  15.658   2.675  0.00  0.00    -0.271 OA
HETATM   10  H   UNK N   1      27.213  17.236   5.144  0.00  0.00     0.163 HD
BRANCH   8  11
HETATM   11  C   UNK N   1      26.027  15.633   3.406  0.00  0.00     0.177 C 
BRANCH  11  12
HETATM   12  N   UNK N   1      25.988  14.557   2.444  0.00  0.00    -0.346 N 
HETATM   13  C   UNK N   1      26.006  13.251   2.820  0.00  0.00     0.241 C 
HETATM   14  O   UNK N   1      26.303  12.407   1.992  0.00  0.00    -0.271 OA
HETATM   15  H   UNK N   1      25.948  14.777   1.485  0.00  0.00     0.163 HD
BRANCH  13  16
HETATM   16  C   UNK N   1      25.528  12.786   4.183  0.00  0.00     0.176 C 
BRANCH  16  17
HETATM   17  N   UNK N   1      24.100  12.950   4.225  0.00  0.00    -0.346 N 
HETATM   18  C   UNK N   1      23.192  11.973   3.975  0.00  0.00     0.243 C 
HETATM   19  O   UNK N   1      23.398  11.118   3.130  0.00  0.00    -0.271 OA
HETATM   20  H   UNK N   1      23.753  13.843   4.452  0.00  0.00     0.163 HD
BRANCH  18  21
HETATM   21  C   UNK N   1      22.028  11.843   4.920  0.00  0.00     0.200 C 
BRANCH  21  22
HETATM   22  N   UNK N   1      21.598  13.179   5.293  0.00  0.00    -0.344 N 
HETATM   23  C   UNK N   1      20.454  13.478   5.979  0.00  0.00     0.241 C 
HETATM   24  O   UNK N   1      19.532  12.684   6.062  0.00  0.00    -0.271 OA
HETATM   25  H   UNK N   1      22.179  13.930   5.031  0.00  0.00     0.163 HD
BRANCH  23  26
HETATM   26  C   UNK N   1      20.395  14.768   6.712  0.00  0.00     0.180 C 
BRANCH  26  27
HETATM   27  N   UNK N   1      20.468  15.775   5.695  0.00  0.00    -0.346 N 
HETATM   28  C   UNK N   1      19.373  16.186   5.035  0.00  0.00     0.243 C 
HETATM   29  O   UNK N   1      18.253  15.892   5.433  0.00  0.00    -0.271 OA
HETATM   30  H   UNK N   1      21.341  16.173   5.474  0.00  0.00     0.163 HD
BRANCH  28  31
HETATM   31  C   UNK N   1      19.570  16.875   3.733  0.00  0.00     0.200 C 
BRANCH  31  32
HETATM   32  N   UNK N   1      20.479  17.995   3.878  0.00  0.00    -0.346 N 
HETATM   33  C   UNK N   1      20.846  18.823   2.867  0.00  0.00     0.214 C 
HETATM   34  O   UNK N   1      20.348  18.721   1.757  0.00  0.00    -0.274 OA
HETATM   35  C   UNK N   1      21.878  19.866   3.115  0.00  0.00     0.117 C 
HETATM   36  H   UNK N   1      20.855  18.168   4.771  0.00  0.00     0.163 HD
ENDBRANCH  31  32
BRANCH  31  37
HETATM   37  C   UNK N   1      19.921  15.952   2.587  0.00  0.00     0.199 C 
BRANCH  37  38
HETATM   38  O   UNK N   1      21.278  15.645   2.672  0.00  0.00    -0.398 OA
HETATM   39  H   UNK N   1      21.759  14.805   2.607  0.00  0.00     0.209 HD
ENDBRANCH  37  38
ENDBRANCH  31  37
ENDBRANCH  28  31
ENDBRANCH  26  27
BRANCH  26  40
HETATM   40  C   UNK N   1      21.630  14.780   7.634  0.00  0.00     0.073 C 
BRANCH  40  41
HETATM   41  C   UNK N   1      21.463  13.971   8.870  0.00  0.00    -0.056 A 
HETATM   42  C   UNK N   1      20.251  14.011   9.570  0.00  0.00     0.010 A 
HETATM   43  C   UNK N   1      20.059  13.196  10.682  0.00  0.00     0.037 A 
HETATM   44  C   UNK N   1      21.084  12.347  11.106  0.00  0.00     0.065 A 
HETATM   45  C   UNK N   1      22.310  12.335  10.431  0.00  0.00     0.037 A 
HETATM   46  C   UNK N   1      22.500  13.148   9.311  0.00  0.00     0.010 A 
BRANCH  44  47
HETATM   47  O   UNK N   1      20.887  11.538  12.156  0.00  0.00    -0.361 OA
HETATM   48  H   UNK N   1      20.521  11.878  12.949  0.00  0.00     0.217 HD
ENDBRANCH  44  47
ENDBRANCH  40  41
ENDBRANCH  26  40
ENDBRANCH  23  26
ENDBRANCH  21  22
BRANCH  21  49
HETATM   49  C   UNK N   1      22.486  11.025   6.134  0.00  0.00     0.199 C 
BRANCH  49  50
HETATM   50  O   UNK N   1      23.550  10.186   5.810  0.00  0.00    -0.398 OA
HETATM   51  H   UNK N   1      24.449  10.543   5.742  0.00  0.00     0.209 HD
ENDBRANCH  49  50
ENDBRANCH  21  49
ENDBRANCH  18  21
ENDBRANCH  16  17
BRANCH  16  52
HETATM   52  C   UNK N   1      26.260  13.203   5.450  0.00  0.00     0.035 C 
BRANCH  52  53
HETATM   53  C   UNK N   1      25.328  13.050   6.648  0.00  0.00     0.002 C 
BRANCH  53  54
HETATM   54  C   UNK N   1      25.062  14.395   7.313  0.00  0.00    -0.004 C 
HETATM   55  C   UNK N   1      26.214  15.338   7.036  0.00  0.00     0.005 C 
ENDBRANCH  53  54
ENDBRANCH  52  53
ENDBRANCH  16  52
ENDBRANCH  13  16
ENDBRANCH  11  12
BRANCH  11  56
HETATM   56  C   UNK N   1      25.058  16.770   3.071  0.00  0.00     0.045 C 
BRANCH  56  57
HETATM   57  C   UNK N   1      24.667  17.605   4.273  0.00  0.00     0.112 C 
BRANCH  57  58
HETATM   58  C   UNK N   1      23.539  16.942   4.989  0.00  0.00     0.139 C 
HETATM   59  O   UNK N   1      23.239  15.788   4.730  0.00  0.00    -0.650 OA
BRANCH  58  60
HETATM   60  O   UNK N   1      22.846  17.624   5.919  0.00  0.00    -0.776 OA
HETATM   61  H   UNK N   1      22.830  18.029   6.764  0.00  0.00     0.167 HD
ENDBRANCH  58  60
ENDBRANCH  57  58
ENDBRANCH  56  57
ENDBRANCH  11  56
ENDBRANCH   8  11
ENDBRANCH   6   7
BRANCH   6  62
HETATM   62  C   UNK N   1      29.392  18.752   4.546  0.00  0.00     0.093 C 
BRANCH  62  63
HETATM   63  C   UNK N   1      28.161  19.427   5.028  0.00  0.00     0.028 A 
HETATM   64  N   UNK N   1      27.763  19.438   6.308  0.00  0.00    -0.354 N 
HETATM   65  C   UNK N   1      26.635  20.174   6.313  0.00  0.00     0.180 A 
HETATM   66  H   UNK N   1      28.201  19.004   7.077  0.00  0.00     0.166 HD
HETATM   67  N   UNK N   1      26.324  20.616   5.078  0.00  0.00    -0.360 N 
HETATM   68  C   UNK N   1      27.282  20.145   4.263  0.00  0.00     0.114 A 
ATOM     69  HN  UNK N   1      25.523  21.193   4.816  1.00  0.00     0.166 HD
ENDBRANCH  62  63
ENDBRANCH   6  62
ENDBRANCH   3   6
ENDBRANCH   1   2
BRANCH   1  70
HETATM   70  C   UNK N   1      32.826  16.711   4.451  0.00  0.00     0.241 C 
HETATM   71  O   UNK N   1      32.699  17.365   3.431  0.00  0.00    -0.271 OA
HETATM   72  N   UNK N   1      33.838  17.025   5.299  0.00  0.00    -0.346 N 
HETATM   73  H   UNK N   1      34.462  17.721   4.991  0.00  0.00     0.163 HD
BRANCH  72  74
HETATM   74  C   UNK N   1      34.108  16.453   6.607  0.00  0.00     0.176 C 
BRANCH  74  75
HETATM   75  C   UNK N   1      35.118  15.335   6.530  0.00  0.00     0.241 C 
HETATM   76  O   UNK N   1      35.892  15.302   5.587  0.00  0.00    -0.271 OA
HETATM   77  N   UNK N   1      35.202  14.380   7.491  0.00  0.00    -0.346 N 
HETATM   78  H   UNK N   1      35.878  13.671   7.388  0.00  0.00     0.163 HD
BRANCH  77  79
HETATM   79  C   UNK N   1      34.346  14.352   8.660  0.00  0.00     0.181 C 
BRANCH  79  80
HETATM   80  C   UNK N   1      32.936  13.888   8.470  0.00  0.00     0.241 C 
HETATM   81  O   UNK N   1      32.066  14.699   8.203  0.00  0.00    -0.271 OA
HETATM   82  N   UNK N   1      32.618  12.578   8.583  0.00  0.00    -0.351 N 
HETATM   83  H   UNK N   1      31.675  12.305   8.502  0.00  0.00     0.163 HD
BRANCH  82  84
HETATM   84  C   UNK N   1      33.625  11.572   8.823  0.00  0.00     0.225 C 
BRANCH  84  85
HETATM   85  C   UNK N   1      33.610  10.504   7.752  0.00  0.00     0.236 C 
HETATM   86  O   UNK N   1      32.645  10.393   7.012  0.00  0.00    -0.272 OA
HETATM   87  N   UNK N   1      34.656   9.657   7.596  0.00  0.00    -0.346 N 
HETATM   88  H   UNK N   1      34.591   8.965   6.900  0.00  0.00     0.163 HD
BRANCH  87  89
HETATM   89  C   UNK N   1      35.866   9.708   8.391  0.00  0.00     0.176 C 
BRANCH  89  90
HETATM   90  C   UNK N   1      36.885  10.641   7.768  0.00  0.00     0.243 C 
HETATM   91  O   UNK N   1      36.710  11.840   7.859  0.00  0.00    -0.271 OA
HETATM   92  N   UNK N   1      37.974  10.144   7.108  0.00  0.00    -0.337 N 
HETATM   93  C   UNK N   1      38.846  10.987   6.327  0.00  0.00     0.179 C 
HETATM   94  C   UNK N   1      38.162   8.742   6.880  0.00  0.00     0.127 C 
HETATM   95  C   UNK N   1      39.082  10.107   5.110  0.00  0.00     0.037 C 
HETATM   96  C   UNK N   1      39.000   8.667   5.619  0.00  0.00     0.022 C 
BRANCH  93  97
HETATM   97  C   UNK N   1      40.180  11.199   7.024  0.00  0.00     0.241 C 
HETATM   98  O   UNK N   1      40.526  10.436   7.913  0.00  0.00    -0.271 OA
HETATM   99  N   UNK N   1      41.032  12.193   6.647  0.00  0.00    -0.346 N 
HETATM  100  H   UNK N   1      41.892  12.250   7.123  0.00  0.00     0.163 HD
BRANCH  99 101
HETATM  101  C   UNK N   1      40.783  13.176   5.605  0.00  0.00     0.179 C 
BRANCH 101 102
HETATM  102  C   UNK N   1      41.868  13.297   4.532  0.00  0.00     0.009 C 
HETATM  103  C   UNK N   1      43.255  13.475   5.122  0.00  0.00     0.012 C 
HETATM  104  C   UNK N   1      41.843  12.073   3.641  0.00  0.00     0.012 C 
ENDBRANCH 101 102
BRANCH 101 105
HETATM  105  C   UNK N   1      39.998  14.405   5.985  0.00  0.00     0.238 C 
HETATM  106  O   UNK N   1      40.260  14.999   7.019  0.00  0.00    -0.271 OA
HETATM  107  N   UNK N   1      38.943  14.797   5.243  0.00  0.00    -0.368 N 
HETATM  108  H   UNK N   1      38.212  15.291   4.805  0.00  0.00     0.159 HD
HETATM  109  H   UNK N   1      38.773  13.928   4.811  0.00  0.00     0.159 HD
ENDBRANCH 101 105
ENDBRANCH  99 101
ENDBRANCH  93  97
ENDBRANCH  89  90
BRANCH  89 110
HETATM  110  C   UNK N   1      35.564  10.196   9.811  0.00  0.00     0.035 C 
BRANCH 110 111
HETATM  111  C   UNK N   1      35.678   9.109  10.871  0.00  0.00     0.004 C 
BRANCH 111 112
HETATM  112  C   UNK N   1      36.870   8.196  10.607  0.00  0.00     0.019 C 
BRANCH 112 113
HETATM  113  C   UNK N   1      38.121   8.678  11.327  0.00  0.00     0.111 C 
BRANCH 113 114
HETATM  114  N   UNK N   1      39.042   9.289  10.386  0.00  0.00    -0.430 N 
HETATM  115  H   UNK N   1      39.888   8.847  10.024  0.00  0.00     0.149 HD
HETATM  116  H   UNK N   1      38.828  10.232  10.062  0.00  0.00     0.149 HD
ENDBRANCH 113 114
ENDBRANCH 112 113
ENDBRANCH 111 112
ENDBRANCH 110 111
ENDBRANCH  89 110
ENDBRANCH  87  89
ENDBRANCH  84  85
ENDBRANCH  82  84
ENDBRANCH  79  80
BRANCH  79 117
HETATM  117  C   UNK N   1      34.825  14.956   9.977  0.00  0.00     0.075 C 
BRANCH 117 118
HETATM  118  C   UNK N   1      35.990  14.241  10.599  0.00  0.00    -0.028 A 
HETATM  119  C   UNK N   1      35.910  13.350  11.635  0.00  0.00    -0.002 A 
HETATM  120  C   UNK N   1      37.177  12.910  11.882  0.00  0.00     0.042 A 
HETATM  121  C   UNK N   1      34.816  12.887  12.360  0.00  0.00     0.014 A 
HETATM  122  N   UNK N   1      38.061  13.487  11.049  0.00  0.00    -0.365 N 
HETATM  123  C   UNK N   1      37.449  11.970  12.871  0.00  0.00     0.030 A 
HETATM  124  C   UNK N   1      37.338  14.309  10.248  0.00  0.00     0.096 A 
HETATM  125  H   UNK N   1      39.034  13.343  11.026  0.00  0.00     0.165 HD
HETATM  126  C   UNK N   1      36.364  11.475  13.619  0.00  0.00     0.002 A 
HETATM  127  C   UNK N   1      35.051  11.933  13.364  0.00  0.00     0.001 A 
ENDBRANCH 117 118
ENDBRANCH  79 117
ENDBRANCH  77  79
ENDBRANCH  74  75
BRANCH  74 128
HETATM  128  C   UNK N   1      34.640  17.532   7.550  0.00  0.00     0.036 C 
BRANCH 128 129
HETATM  129  C   UNK N   1      33.731  17.757   8.755  0.00  0.00     0.023 C 
BRANCH 129 130
HETATM  130  C   UNK N   1      32.299  17.973   8.310  0.00  0.00     0.138 C 
BRANCH 130 131
HETATM  131  N   UNK N   1      31.408  17.263   9.189  0.00  0.00    -0.227 N 
HETATM  132  C   UNK N   1      30.153  17.799   9.558  0.00  0.00     0.665 C 
HETATM  133  N   UNK N   1      29.796  19.117   9.188  0.00  0.00    -0.235 N 
HETATM  134  N   UNK N   1      29.320  17.072  10.203  0.00  0.00    -0.235 N 
HETATM  135  H   UNK N   1      30.174  19.713   8.503  0.00  0.00     0.174 HD
HETATM  136  H   UNK N   1      29.047  19.500   9.700  0.00  0.00     0.174 HD
HETATM  137  H   UNK N   1      28.354  16.875  10.201  0.00  0.00     0.174 HD
ATOM    138  HN  UNK N   1      29.794  16.541  10.932  1.00  0.00     0.174 HD
HETATM  139  H   UNK N   1      31.680  16.385   9.542  0.00  0.00     0.177 HD
ENDBRANCH 130 131
ENDBRANCH 129 130
ENDBRANCH 128 129
ENDBRANCH  74 128
ENDBRANCH  72  74
ENDBRANCH   1  70
BRANCH   1 140
HETATM  140  C   UNK N   1      32.462  14.279   4.856  0.00  0.00     0.073 C 
BRANCH 140 141
HETATM  141  C   UNK N   1      32.191  13.439   3.652  0.00  0.00    -0.056 A 
HETATM  142  C   UNK N   1      30.985  12.739   3.521  0.00  0.00     0.007 A 
HETATM  143  C   UNK N   1      30.748  11.953   2.389  0.00  0.00     0.001 A 
HETATM  144  C   UNK N   1      31.719  11.863   1.386  0.00  0.00     0.000 A 
HETATM  145  C   UNK N   1      32.927  12.553   1.517  0.00  0.00     0.001 A 
HETATM  146  C   UNK N   1      33.162  13.341   2.648  0.00  0.00     0.007 A 
ENDBRANCH 140 141
ENDBRANCH   1 140
TORSDOF 55
ENDMDL
MODEL 9
REMARK VINA RESULT:      -6.7      2.749      5.581
REMARK WARNING: 32 MAX_TORS EXCEEDED!!!
REMARK  55 active torsions:
REMARK  status: ('A' for Active; 'I' for Inactive)
REMARK    1  A    between atoms: O_12  and  C_101 
REMARK    2  A    between atoms: O_13  and  C_105 
REMARK    3  A    between atoms: O_17  and  C_115 
REMARK    4  A    between atoms: O_18  and  C_118 
REMARK       I    between atoms: N_20  and  C_47 
REMARK       I    between atoms: N_21  and  C_48 
REMARK    5  A    between atoms: C_51  and  N_21 
REMARK    6  A    between atoms: C_49  and  N_22 
REMARK       I    between atoms: N_22  and  C_58 
REMARK       I    between atoms: N_23  and  C_55 
REMARK    7  A    between atoms: N_24  and  C_59 
REMARK    8  A    between atoms: N_25  and  C_60 
REMARK       I    between atoms: N_25  and  C_62 
REMARK    9  A    between atoms: C_61  and  N_26 
REMARK       I    between atoms: N_26  and  C_66 
REMARK   10  A    between atoms: C_65  and  N_27 
REMARK       I    between atoms: N_27  and  C_73 
REMARK   11  A    between atoms: C_72  and  N_29 
REMARK       I    between atoms: N_29  and  C_81 
REMARK   12  A    between atoms: C_77  and  N_30 
REMARK       I    between atoms: N_30  and  C_87 
REMARK   13  A    between atoms: C_79  and  N_31 
REMARK       I    between atoms: N_31  and  C_89 
REMARK   14  A    between atoms: N_32  and  C_75 
REMARK       I    between atoms: N_32  and  C_98 
REMARK   15  A    between atoms: C_80  and  N_33 
REMARK       I    between atoms: N_33  and  C_95 
REMARK   16  A    between atoms: C_94  and  N_35 
REMARK       I    between atoms: N_35  and  C_106 
REMARK   17  A    between atoms: C_102  and  N_38 
REMARK       I    between atoms: N_38  and  C_111 
REMARK       I    between atoms: N_39  and  C_98 
REMARK   18  A    between atoms: C_112  and  N_42 
REMARK       I    between atoms: N_42  and  C_119 
REMARK   19  A    between atoms: C_43  and  C_48 
REMARK   20  A    between atoms: C_47  and  C_49 
REMARK   21  A    between atoms: C_49  and  C_50 
REMARK   22  A    between atoms: C_50  and  C_52 
REMARK   23  A    between atoms: C_51  and  C_53 
REMARK   24  A    between atoms: C_51  and  C_55 
REMARK   25  A    between atoms: C_52  and  C_54 
REMARK   26  A    between atoms: C_54  and  C_59 
REMARK   27  A    between atoms: C_58  and  C_60 
REMARK   28  A    between atoms: C_61  and  C_62 
REMARK   29  A    between atoms: C_61  and  C_63 
REMARK   30  A    between atoms: C_63  and  C_64 
REMARK   31  A    between atoms: C_65  and  C_66 
REMARK   32  A    between atoms: C_65  and  C_67 
REMARK   33  A    between atoms: C_67  and  C_71 
REMARK   34  A    between atoms: C_71  and  C_75 
REMARK   35  A    between atoms: C_72  and  C_73 
REMARK   36  A    between atoms: C_72  and  C_76 
REMARK   37  A    between atoms: C_76  and  C_88 
REMARK   38  A    between atoms: C_77  and  C_81 
REMARK   39  A    between atoms: C_77  and  C_84 
REMARK   40  A    between atoms: C_79  and  C_86 
REMARK   41  A    between atoms: C_79  and  C_87 
REMARK   42  A    between atoms: C_80  and  C_83 
REMARK   43  A    between atoms: C_80  and  C_89 
REMARK   44  A    between atoms: C_83  and  C_90 
REMARK   45  A    between atoms: C_84  and  C_91 
REMARK   46  A    between atoms: C_86  and  C_92 
REMARK   47  A    between atoms: C_90  and  C_93 
REMARK   48  A    between atoms: C_92  and  C_105 
REMARK   49  A    between atoms: C_94  and  C_95 
REMARK   50  A    between atoms: C_94  and  C_101 
REMARK   51  A    between atoms: C_102  and  C_106 
REMARK   52  A    between atoms: C_102  and  C_107 
REMARK   53  A    between atoms: C_107  and  C_110 
REMARK   54  A    between atoms: C_111  and  C_112 
REMARK   55  A    between atoms: C_112  and  C_115 
ROOT
HETATM    1  C   UNK N   1      24.604  15.549   4.631  0.00  0.00     0.180 C 
ENDROOT
BRANCH   1   2
HETATM    2  N   UNK N   1      24.717  16.824   3.956  0.00  0.00    -0.346 N 
HETATM    3  C   UNK N   1      25.797  17.643   4.017  0.00  0.00     0.241 C 
HETATM    4  O   UNK N   1      25.776  18.686   3.382  0.00  0.00    -0.271 OA
HETATM    5  H   UNK N   1      23.951  17.120   3.411  0.00  0.00     0.163 HD
BRANCH   3   6
HETATM    6  C   UNK N   1      27.039  17.276   4.836  0.00  0.00     0.182 C 
BRANCH   6   7
HETATM    7  N   UNK N   1      28.021  16.627   3.995  0.00  0.00    -0.346 N 
HETATM    8  C   UNK N   1      28.589  15.462   4.377  0.00  0.00     0.241 C 
HETATM    9  O   UNK N   1      28.301  14.970   5.463  0.00  0.00    -0.271 OA
HETATM   10  H   UNK N   1      28.278  17.038   3.138  0.00  0.00     0.163 HD
BRANCH   8  11
HETATM   11  C   UNK N   1      29.538  14.738   3.482  0.00  0.00     0.177 C 
BRANCH  11  12
HETATM   12  N   UNK N   1      30.298  15.747   2.783  0.00  0.00    -0.346 N 
HETATM   13  C   UNK N   1      31.558  16.091   3.160  0.00  0.00     0.241 C 
HETATM   14  O   UNK N   1      32.019  17.149   2.766  0.00  0.00    -0.271 OA
HETATM   15  H   UNK N   1      29.891  16.200   2.010  0.00  0.00     0.163 HD
BRANCH  13  16
HETATM   16  C   UNK N   1      32.469  15.150   3.926  0.00  0.00     0.176 C 
BRANCH  16  17
HETATM   17  N   UNK N   1      32.869  15.816   5.135  0.00  0.00    -0.346 N 
HETATM   18  C   UNK N   1      32.460  15.481   6.385  0.00  0.00     0.243 C 
HETATM   19  O   UNK N   1      31.329  15.076   6.594  0.00  0.00    -0.271 OA
HETATM   20  H   UNK N   1      33.488  16.576   5.051  0.00  0.00     0.163 HD
BRANCH  18  21
HETATM   21  C   UNK N   1      33.504  15.413   7.467  0.00  0.00     0.200 C 
BRANCH  21  22
HETATM   22  N   UNK N   1      33.449  14.090   8.065  0.00  0.00    -0.344 N 
HETATM   23  C   UNK N   1      34.339  13.080   7.829  0.00  0.00     0.241 C 
HETATM   24  O   UNK N   1      35.074  13.089   6.856  0.00  0.00    -0.271 OA
HETATM   25  H   UNK N   1      32.711  13.908   8.691  0.00  0.00     0.163 HD
BRANCH  23  26
HETATM   26  C   UNK N   1      34.461  12.004   8.846  0.00  0.00     0.180 C 
BRANCH  26  27
HETATM   27  N   UNK N   1      35.614  12.357   9.620  0.00  0.00    -0.346 N 
HETATM   28  C   UNK N   1      35.540  13.250  10.621  0.00  0.00     0.243 C 
HETATM   29  O   UNK N   1      34.456  13.615  11.057  0.00  0.00    -0.271 OA
HETATM   30  H   UNK N   1      36.480  11.936   9.413  0.00  0.00     0.163 HD
BRANCH  28  31
HETATM   31  C   UNK N   1      36.805  13.886  11.073  0.00  0.00     0.200 C 
BRANCH  31  32
HETATM   32  N   UNK N   1      37.143  13.458  12.416  0.00  0.00    -0.346 N 
HETATM   33  C   UNK N   1      37.229  12.163  12.812  0.00  0.00     0.214 C 
HETATM   34  O   UNK N   1      37.105  11.250  12.010  0.00  0.00    -0.274 OA
HETATM   35  C   UNK N   1      37.468  11.852  14.247  0.00  0.00     0.117 C 
HETATM   36  H   UNK N   1      37.323  14.155  13.088  0.00  0.00     0.163 HD
ENDBRANCH  31  32
BRANCH  31  37
HETATM   37  C   UNK N   1      37.948  13.764  10.090  0.00  0.00     0.199 C 
BRANCH  37  38
HETATM   38  O   UNK N   1      39.088  13.372  10.790  0.00  0.00    -0.398 OA
HETATM   39  H   UNK N   1      39.494  12.503  10.938  0.00  0.00     0.209 HD
ENDBRANCH  37  38
ENDBRANCH  31  37
ENDBRANCH  28  31
ENDBRANCH  26  27
BRANCH  26  40
HETATM   40  C   UNK N   1      34.670  10.701   8.049  0.00  0.00     0.073 C 
BRANCH  40  41
HETATM   41  C   UNK N   1      33.404  10.026   7.663  0.00  0.00    -0.056 A 
HETATM   42  C   UNK N   1      33.082   9.872   6.309  0.00  0.00     0.010 A 
HETATM   43  C   UNK N   1      31.937   9.171   5.937  0.00  0.00     0.037 A 
HETATM   44  C   UNK N   1      31.104   8.633   6.920  0.00  0.00     0.065 A 
HETATM   45  C   UNK N   1      31.404   8.820   8.275  0.00  0.00     0.037 A 
HETATM   46  C   UNK N   1      32.555   9.518   8.646  0.00  0.00     0.010 A 
BRANCH  44  47
HETATM   47  O   UNK N   1      30.021   7.929   6.563  0.00  0.00    -0.361 OA
HETATM   48  H   UNK N   1      29.180   8.340   6.542  0.00  0.00     0.217 HD
ENDBRANCH  44  47
ENDBRANCH  40  41
ENDBRANCH  26  40
ENDBRANCH  23  26
ENDBRANCH  21  22
BRANCH  21  49
HETATM   49  C   UNK N   1      33.209  16.519   8.488  0.00  0.00     0.199 C 
BRANCH  49  50
HETATM   50  O   UNK N   1      32.146  16.173   9.320  0.00  0.00    -0.398 OA
HETATM   51  H   UNK N   1      32.042  16.606  10.183  0.00  0.00     0.209 HD
ENDBRANCH  49  50
ENDBRANCH  21  49
ENDBRANCH  18  21
ENDBRANCH  16  17
BRANCH  16  52
HETATM   52  C   UNK N   1      33.579  14.389   3.214  0.00  0.00     0.035 C 
BRANCH  52  53
HETATM   53  C   UNK N   1      32.984  13.185   2.489  0.00  0.00     0.002 C 
BRANCH  53  54
HETATM   54  C   UNK N   1      33.221  11.900   3.271  0.00  0.00    -0.004 C 
HETATM   55  C   UNK N   1      32.641  10.725   2.511  0.00  0.00     0.005 C 
ENDBRANCH  53  54
ENDBRANCH  52  53
ENDBRANCH  16  52
ENDBRANCH  13  16
ENDBRANCH  11  12
BRANCH  11  56
HETATM   56  C   UNK N   1      28.854  13.744   2.539  0.00  0.00     0.045 C 
BRANCH  56  57
HETATM   57  C   UNK N   1      29.319  12.315   2.726  0.00  0.00     0.112 C 
BRANCH  57  58
HETATM   58  C   UNK N   1      29.050  11.888   4.129  0.00  0.00     0.139 C 
HETATM   59  O   UNK N   1      29.967  11.785   4.928  0.00  0.00    -0.650 OA
BRANCH  58  60
HETATM   60  O   UNK N   1      27.792  11.608   4.513  0.00  0.00    -0.776 OA
HETATM   61  H   UNK N   1      27.219  11.166   5.108  0.00  0.00     0.167 HD
ENDBRANCH  58  60
ENDBRANCH  57  58
ENDBRANCH  56  57
ENDBRANCH  11  56
ENDBRANCH   8  11
ENDBRANCH   6   7
BRANCH   6  62
HETATM   62  C   UNK N   1      27.706  18.475   5.519  0.00  0.00     0.093 C 
BRANCH  62  63
HETATM   63  C   UNK N   1      27.840  18.260   6.982  0.00  0.00     0.028 A 
HETATM   64  N   UNK N   1      27.615  17.087   7.592  0.00  0.00    -0.354 N 
HETATM   65  C   UNK N   1      27.876  17.319   8.893  0.00  0.00     0.180 A 
HETATM   66  H   UNK N   1      27.324  16.242   7.179  0.00  0.00     0.166 HD
HETATM   67  N   UNK N   1      28.255  18.596   9.105  0.00  0.00    -0.360 N 
HETATM   68  C   UNK N   1      28.230  19.194   7.902  0.00  0.00     0.114 A 
ATOM     69  HN  UNK N   1      28.508  19.021   9.998  1.00  0.00     0.166 HD
ENDBRANCH  62  63
ENDBRANCH   6  62
ENDBRANCH   3   6
ENDBRANCH   1   2
BRANCH   1  70
HETATM   70  C   UNK N   1      24.468  15.672   6.125  0.00  0.00     0.241 C 
HETATM   71  O   UNK N   1      25.432  15.382   6.812  0.00  0.00    -0.271 OA
HETATM   72  N   UNK N   1      23.358  16.152   6.741  0.00  0.00    -0.346 N 
HETATM   73  H   UNK N   1      23.375  16.160   7.725  0.00  0.00     0.163 HD
BRANCH  72  74
HETATM   74  C   UNK N   1      22.146  16.655   6.116  0.00  0.00     0.176 C 
BRANCH  74  75
HETATM   75  C   UNK N   1      20.939  16.453   6.997  0.00  0.00     0.241 C 
HETATM   76  O   UNK N   1      20.541  17.384   7.678  0.00  0.00    -0.271 OA
HETATM   77  N   UNK N   1      20.271  15.271   7.035  0.00  0.00    -0.346 N 
HETATM   78  H   UNK N   1      19.491  15.193   7.631  0.00  0.00     0.163 HD
BRANCH  77  79
HETATM   79  C   UNK N   1      20.651  14.119   6.242  0.00  0.00     0.181 C 
BRANCH  79  80
HETATM   80  C   UNK N   1      19.889  13.873   4.977  0.00  0.00     0.241 C 
HETATM   81  O   UNK N   1      19.622  14.810   4.244  0.00  0.00    -0.271 OA
HETATM   82  N   UNK N   1      19.502  12.624   4.634  0.00  0.00    -0.351 N 
HETATM   83  H   UNK N   1      18.960  12.495   3.822  0.00  0.00     0.163 HD
BRANCH  82  84
HETATM   84  C   UNK N   1      19.861  11.474   5.431  0.00  0.00     0.225 C 
BRANCH  84  85
HETATM   85  C   UNK N   1      19.300  10.197   4.848  0.00  0.00     0.236 C 
HETATM   86  O   UNK N   1      18.134   9.892   5.051  0.00  0.00    -0.272 OA
HETATM   87  N   UNK N   1      20.072   9.374   4.098  0.00  0.00    -0.346 N 
HETATM   88  H   UNK N   1      19.668   8.543   3.759  0.00  0.00     0.163 HD
BRANCH  87  89
HETATM   89  C   UNK N   1      21.456   9.641   3.765  0.00  0.00     0.176 C 
BRANCH  89  90
HETATM   90  C   UNK N   1      22.350   8.498   4.202  0.00  0.00     0.243 C 
HETATM   91  O   UNK N   1      22.296   7.449   3.589  0.00  0.00    -0.271 OA
HETATM   92  N   UNK N   1      23.191   8.637   5.270  0.00  0.00    -0.337 N 
HETATM   93  C   UNK N   1      23.895   7.516   5.843  0.00  0.00     0.179 C 
HETATM   94  C   UNK N   1      23.205   9.814   6.089  0.00  0.00     0.127 C 
HETATM   95  C   UNK N   1      23.740   7.808   7.327  0.00  0.00     0.037 C 
HETATM   96  C   UNK N   1      23.682   9.331   7.444  0.00  0.00     0.022 C 
BRANCH  93  97
HETATM   97  C   UNK N   1      25.375   7.560   5.502  0.00  0.00     0.241 C 
HETATM   98  O   UNK N   1      25.851   8.568   5.003  0.00  0.00    -0.271 OA
HETATM   99  N   UNK N   1      26.205   6.518   5.788  0.00  0.00    -0.346 N 
HETATM  100  H   UNK N   1      27.158   6.631   5.567  0.00  0.00     0.163 HD
BRANCH  99 101
HETATM  101  C   UNK N   1      25.806   5.256   6.390  0.00  0.00     0.179 C 
BRANCH 101 102
HETATM  102  C   UNK N   1      26.509   4.895   7.701  0.00  0.00     0.009 C 
HETATM  103  C   UNK N   1      27.851   5.587   7.855  0.00  0.00     0.012 C 
HETATM  104  C   UNK N   1      25.615   5.243   8.873  0.00  0.00     0.012 C 
ENDBRANCH 101 102
BRANCH 101 105
HETATM  105  C   UNK N   1      25.390   4.146   5.460  0.00  0.00     0.238 C 
HETATM  106  O   UNK N   1      24.960   4.411   4.350  0.00  0.00    -0.271 OA
HETATM  107  N   UNK N   1      25.393   2.865   5.883  0.00  0.00    -0.368 N 
HETATM  108  H   UNK N   1      25.402   1.883   5.961  0.00  0.00     0.159 HD
HETATM  109  H   UNK N   1      25.360   3.059   6.848  0.00  0.00     0.159 HD
ENDBRANCH 101 105
ENDBRANCH  99 101
ENDBRANCH  93  97
ENDBRANCH  89  90
BRANCH  89 110
HETATM  110  C   UNK N   1      21.623   9.839   2.256  0.00  0.00     0.035 C 
BRANCH 110 111
HETATM  111  C   UNK N   1      21.498  11.290   1.809  0.00  0.00     0.004 C 
BRANCH 111 112
HETATM  112  C   UNK N   1      20.138  11.563   1.178  0.00  0.00     0.019 C 
BRANCH 112 113
HETATM  113  C   UNK N   1      20.009  13.008   0.717  0.00  0.00     0.111 C 
BRANCH 113 114
HETATM  114  N   UNK N   1      18.894  13.654   1.384  0.00  0.00    -0.430 N 
HETATM  115  H   UNK N   1      18.025  13.938   0.931  0.00  0.00     0.149 HD
HETATM  116  H   UNK N   1      18.985  13.839   2.383  0.00  0.00     0.149 HD
ENDBRANCH 113 114
ENDBRANCH 112 113
ENDBRANCH 111 112
ENDBRANCH 110 111
ENDBRANCH  89 110
ENDBRANCH  87  89
ENDBRANCH  84  85
ENDBRANCH  82  84
ENDBRANCH  79  80
BRANCH  79 117
HETATM  117  C   UNK N   1      21.656  13.109   6.786  0.00  0.00     0.075 C 
BRANCH 117 118
HETATM  118  C   UNK N   1      21.614  12.934   8.277  0.00  0.00    -0.028 A 
HETATM  119  C   UNK N   1      22.693  12.656   9.072  0.00  0.00    -0.002 A 
HETATM  120  C   UNK N   1      22.239  12.603  10.357  0.00  0.00     0.042 A 
HETATM  121  C   UNK N   1      24.035  12.464   8.756  0.00  0.00     0.014 A 
HETATM  122  N   UNK N   1      20.916  12.831  10.412  0.00  0.00    -0.365 N 
HETATM  123  C   UNK N   1      23.093  12.358  11.428  0.00  0.00     0.030 A 
HETATM  124  C   UNK N   1      20.518  13.042   9.132  0.00  0.00     0.096 A 
HETATM  125  H   UNK N   1      20.350  12.843  11.218  0.00  0.00     0.165 HD
HETATM  126  C   UNK N   1      24.459  12.166  11.145  0.00  0.00     0.002 A 
HETATM  127  C   UNK N   1      24.928  12.219   9.814  0.00  0.00     0.001 A 
ENDBRANCH 117 118
ENDBRANCH  79 117
ENDBRANCH  77  79
ENDBRANCH  74  75
BRANCH  74 128
HETATM  128  C   UNK N   1      22.292  18.147   5.817  0.00  0.00     0.036 C 
BRANCH 128 129
HETATM  129  C   UNK N   1      21.361  18.614   4.702  0.00  0.00     0.023 C 
BRANCH 129 130
HETATM  130  C   UNK N   1      21.785  18.028   3.370  0.00  0.00     0.138 C 
BRANCH 130 131
HETATM  131  N   UNK N   1      20.670  17.351   2.764  0.00  0.00    -0.227 N 
HETATM  132  C   UNK N   1      20.020  17.877   1.623  0.00  0.00     0.665 C 
HETATM  133  N   UNK N   1      20.356  19.159   1.130  0.00  0.00    -0.235 N 
HETATM  134  N   UNK N   1      19.145  17.170   1.012  0.00  0.00    -0.235 N 
HETATM  135  H   UNK N   1      21.147  19.721   1.296  0.00  0.00     0.174 HD
HETATM  136  H   UNK N   1      19.691  19.554   0.521  0.00  0.00     0.174 HD
HETATM  137  H   UNK N   1      18.888  16.949   0.088  0.00  0.00     0.174 HD
ATOM    138  HN  UNK N   1      18.534  16.698   1.679  1.00  0.00     0.174 HD
HETATM  139  H   UNK N   1      20.352  16.505   3.152  0.00  0.00     0.177 HD
ENDBRANCH 130 131
ENDBRANCH 129 130
ENDBRANCH 128 129
ENDBRANCH  74 128
ENDBRANCH  72  74
ENDBRANCH   1  70
BRANCH   1 140
HETATM  140  C   UNK N   1      23.451  14.746   4.048  0.00  0.00     0.073 C 
BRANCH 140 141
HETATM  141  C   UNK N   1      23.866  14.017   2.814  0.00  0.00    -0.056 A 
HETATM  142  C   UNK N   1      23.401  14.415   1.553  0.00  0.00     0.007 A 
HETATM  143  C   UNK N   1      23.798  13.719   0.407  0.00  0.00     0.001 A 
HETATM  144  C   UNK N   1      24.657  12.621   0.518  0.00  0.00     0.000 A 
HETATM  145  C   UNK N   1      25.116  12.216   1.775  0.00  0.00     0.001 A 
HETATM  146  C   UNK N   1      24.722  12.914   2.921  0.00  0.00     0.007 A 
ENDBRANCH 140 141
ENDBRANCH   1 140
TORSDOF 55
ENDMDL
