MODEL 1
REMARK VINA RESULT:      -7.2      0.000      0.000
REMARK  6 active torsions:
REMARK  status: ('A' for Active; 'I' for Inactive)
REMARK    1  A    between atoms: O_1  and  C_7 
REMARK    2  A    between atoms: O_1  and  C_12 
REMARK    3  A    between atoms: O_2  and  C_13 
REMARK    4  A    between atoms: C_12  and  C_13 
REMARK    5  A    between atoms: C_13  and  C_14 
REMARK    6  A    between atoms: C_13  and  C_15 
ROOT
HETATM    1  C   UNK N   1      35.299  12.201  15.337  0.00  0.00     0.201 C 
ENDROOT
BRANCH   1   2
HETATM    2  O   UNK N   1      33.970  12.224  14.889  0.00  0.00    -0.371 OA
HETATM    3  H   UNK N   1      33.182  12.132  14.331  0.00  0.00     0.212 HD
ENDBRANCH   1   2
BRANCH   1   4
HETATM    4  C   UNK N   1      35.986  13.441  14.788  0.00  0.00     0.303 C 
HETATM    5  O   UNK N   1      36.989  13.893  15.329  0.00  0.00    -0.261 OA
BRANCH   4   6
HETATM    6  O   UNK N   1      35.464  14.046  13.692  0.00  0.00    -0.311 OA
BRANCH   6   7
HETATM    7  C   UNK N   1      36.169  14.348  12.551  0.00  0.00     0.158 C 
HETATM    8  C   UNK N   1      36.362  13.052  11.761  0.00  0.00     0.268 C 
HETATM    9  N   UNK N   1      37.035  13.248  10.467  0.00  0.00    -0.072 N 
HETATM   10  C   UNK N   1      36.875  14.588   9.884  0.00  0.00     0.236 C 
HETATM   11  C   UNK N   1      38.455  12.990  10.628  0.00  0.00     0.272 C 
HETATM   12  C   UNK N   1      36.505  12.263   9.539  0.00  0.00     0.272 C 
HETATM   13  C   UNK N   1      35.516  15.199  10.215  0.00  0.00     0.030 C 
HETATM   14  C   UNK N   1      35.356  15.362  11.727  0.00  0.00     0.036 C 
ENDBRANCH   6   7
ENDBRANCH   4   6
ENDBRANCH   1   4
BRANCH   1  15
HETATM   15  C   UNK N   1      35.913  10.902  14.841  0.00  0.00    -0.009 A 
HETATM   16  C   UNK N   1      37.305  10.731  14.734  0.00  0.00     0.011 A 
HETATM   17  C   UNK N   1      37.836   9.536  14.240  0.00  0.00     0.001 A 
HETATM   18  C   UNK N   1      36.984   8.502  13.844  0.00  0.00     0.000 A 
HETATM   19  C   UNK N   1      35.600   8.661  13.944  0.00  0.00     0.001 A 
HETATM   20  C   UNK N   1      35.068   9.855  14.439  0.00  0.00     0.011 A 
ENDBRANCH   1  15
BRANCH   1  21
HETATM   21  C   UNK N   1      35.322  12.249  16.858  0.00  0.00    -0.009 A 
HETATM   22  C   UNK N   1      35.062  13.454  17.536  0.00  0.00     0.011 A 
HETATM   23  C   UNK N   1      35.087  13.500  18.934  0.00  0.00     0.001 A 
HETATM   24  C   UNK N   1      35.363  12.344  19.667  0.00  0.00     0.000 A 
HETATM   25  C   UNK N   1      35.620  11.142  19.004  0.00  0.00     0.001 A 
HETATM   26  C   UNK N   1      35.604  11.095  17.608  0.00  0.00     0.011 A 
ENDBRANCH   1  21
TORSDOF 6
ENDMDL
MODEL 2
REMARK VINA RESULT:      -7.1      1.951      2.562
REMARK  6 active torsions:
REMARK  status: ('A' for Active; 'I' for Inactive)
REMARK    1  A    between atoms: O_1  and  C_7 
REMARK    2  A    between atoms: O_1  and  C_12 
REMARK    3  A    between atoms: O_2  and  C_13 
REMARK    4  A    between atoms: C_12  and  C_13 
REMARK    5  A    between atoms: C_13  and  C_14 
REMARK    6  A    between atoms: C_13  and  C_15 
ROOT
HETATM    1  C   UNK N   1      35.329  12.342  14.671  0.00  0.00     0.201 C 
ENDROOT
BRANCH   1   2
HETATM    2  O   UNK N   1      33.932  12.226  14.716  0.00  0.00    -0.371 OA
HETATM    3  H   UNK N   1      32.999  12.387  14.924  0.00  0.00     0.212 HD
ENDBRANCH   1   2
BRANCH   1   4
HETATM    4  C   UNK N   1      35.701  12.813  13.274  0.00  0.00     0.303 C 
HETATM    5  O   UNK N   1      36.694  12.370  12.708  0.00  0.00    -0.261 OA
BRANCH   4   6
HETATM    6  O   UNK N   1      34.920  13.741  12.667  0.00  0.00    -0.311 OA
BRANCH   6   7
HETATM    7  C   UNK N   1      35.185  14.314  11.446  0.00  0.00     0.158 C 
HETATM    8  C   UNK N   1      33.874  14.370  10.659  0.00  0.00     0.268 C 
HETATM    9  N   UNK N   1      34.000  15.042   9.356  0.00  0.00    -0.072 N 
HETATM   10  C   UNK N   1      35.092  16.023   9.269  0.00  0.00     0.236 C 
HETATM   11  C   UNK N   1      34.209  14.040   8.325  0.00  0.00     0.272 C 
HETATM   12  C   UNK N   1      32.741  15.711   9.079  0.00  0.00     0.272 C 
HETATM   13  C   UNK N   1      35.328  16.736  10.598  0.00  0.00     0.030 C 
HETATM   14  C   UNK N   1      35.731  15.733  11.680  0.00  0.00     0.036 C 
ENDBRANCH   6   7
ENDBRANCH   4   6
ENDBRANCH   1   4
BRANCH   1  15
HETATM   15  C   UNK N   1      35.900  10.977  15.019  0.00  0.00    -0.009 A 
HETATM   16  C   UNK N   1      37.267  10.791  15.294  0.00  0.00     0.011 A 
HETATM   17  C   UNK N   1      37.766   9.516  15.576  0.00  0.00     0.001 A 
HETATM   18  C   UNK N   1      36.907   8.414  15.582  0.00  0.00     0.000 A 
HETATM   19  C   UNK N   1      35.548   8.586  15.308  0.00  0.00     0.001 A 
HETATM   20  C   UNK N   1      35.048   9.860  15.028  0.00  0.00     0.011 A 
ENDBRANCH   1  15
BRANCH   1  21
HETATM   21  C   UNK N   1      35.786  13.380  15.686  0.00  0.00    -0.009 A 
HETATM   22  C   UNK N   1      36.797  14.301  15.357  0.00  0.00     0.011 A 
HETATM   23  C   UNK N   1      37.219  15.253  16.290  0.00  0.00     0.001 A 
HETATM   24  C   UNK N   1      36.631  15.300  17.556  0.00  0.00     0.000 A 
HETATM   25  C   UNK N   1      35.625  14.392  17.893  0.00  0.00     0.001 A 
HETATM   26  C   UNK N   1      35.207  13.436  16.965  0.00  0.00     0.011 A 
ENDBRANCH   1  21
TORSDOF 6
ENDMDL
MODEL 3
REMARK VINA RESULT:      -7.0      4.500      8.871
REMARK  6 active torsions:
REMARK  status: ('A' for Active; 'I' for Inactive)
REMARK    1  A    between atoms: O_1  and  C_7 
REMARK    2  A    between atoms: O_1  and  C_12 
REMARK    3  A    between atoms: O_2  and  C_13 
REMARK    4  A    between atoms: C_12  and  C_13 
REMARK    5  A    between atoms: C_13  and  C_14 
REMARK    6  A    between atoms: C_13  and  C_15 
ROOT
HETATM    1  C   UNK N   1      33.728  17.026   7.303  0.00  0.00     0.201 C 
ENDROOT
BRANCH   1   2
HETATM    2  O   UNK N   1      34.320  17.960   6.439  0.00  0.00    -0.371 OA
HETATM    3  H   UNK N   1      34.834  18.710   6.104  0.00  0.00     0.212 HD
ENDBRANCH   1   2
BRANCH   1   4
HETATM    4  C   UNK N   1      34.394  17.177   8.661  0.00  0.00     0.303 C 
HETATM    5  O   UNK N   1      35.048  18.178   8.930  0.00  0.00    -0.261 OA
BRANCH   4   6
HETATM    6  O   UNK N   1      34.258  16.179   9.570  0.00  0.00    -0.311 OA
BRANCH   6   7
HETATM    7  C   UNK N   1      35.301  15.560  10.217  0.00  0.00     0.158 C 
HETATM    8  C   UNK N   1      34.715  14.715  11.351  0.00  0.00     0.268 C 
HETATM    9  N   UNK N   1      35.723  13.928  12.077  0.00  0.00    -0.072 N 
HETATM   10  C   UNK N   1      36.928  13.598  11.302  0.00  0.00     0.236 C 
HETATM   11  C   UNK N   1      36.134  14.662  13.261  0.00  0.00     0.272 C 
HETATM   12  C   UNK N   1      35.091  12.694  12.514  0.00  0.00     0.272 C 
HETATM   13  C   UNK N   1      36.616  13.386   9.823  0.00  0.00     0.030 C 
HETATM   14  C   UNK N   1      36.040  14.663   9.208  0.00  0.00     0.036 C 
ENDBRANCH   6   7
ENDBRANCH   4   6
ENDBRANCH   1   4
BRANCH   1  15
HETATM   15  C   UNK N   1      33.931  15.654   6.681  0.00  0.00    -0.009 A 
HETATM   16  C   UNK N   1      34.907  15.421   5.696  0.00  0.00     0.011 A 
HETATM   17  C   UNK N   1      35.044  14.155   5.119  0.00  0.00     0.001 A 
HETATM   18  C   UNK N   1      34.205  13.111   5.515  0.00  0.00     0.000 A 
HETATM   19  C   UNK N   1      33.229  13.331   6.490  0.00  0.00     0.001 A 
HETATM   20  C   UNK N   1      33.093  14.595   7.070  0.00  0.00     0.011 A 
ENDBRANCH   1  15
BRANCH   1  21
HETATM   21  C   UNK N   1      32.242  17.330   7.438  0.00  0.00    -0.009 A 
HETATM   22  C   UNK N   1      31.732  17.868   8.633  0.00  0.00     0.011 A 
HETATM   23  C   UNK N   1      30.367  18.145   8.760  0.00  0.00     0.001 A 
HETATM   24  C   UNK N   1      29.501  17.895   7.692  0.00  0.00     0.000 A 
HETATM   25  C   UNK N   1      29.998  17.364   6.500  0.00  0.00     0.001 A 
HETATM   26  C   UNK N   1      31.359  17.079   6.374  0.00  0.00     0.011 A 
ENDBRANCH   1  21
TORSDOF 6
ENDMDL
MODEL 4
REMARK VINA RESULT:      -7.0      1.237      4.233
REMARK  6 active torsions:
REMARK  status: ('A' for Active; 'I' for Inactive)
REMARK    1  A    between atoms: O_1  and  C_7 
REMARK    2  A    between atoms: O_1  and  C_12 
REMARK    3  A    between atoms: O_2  and  C_13 
REMARK    4  A    between atoms: C_12  and  C_13 
REMARK    5  A    between atoms: C_13  and  C_14 
REMARK    6  A    between atoms: C_13  and  C_15 
ROOT
HETATM    1  C   UNK N   1      36.395  12.532  14.971  0.00  0.00     0.201 C 
ENDROOT
BRANCH   1   2
HETATM    2  O   UNK N   1      37.424  13.486  14.984  0.00  0.00    -0.371 OA
HETATM    3  H   UNK N   1      37.975  14.252  14.763  0.00  0.00     0.212 HD
ENDBRANCH   1   2
BRANCH   1   4
HETATM    4  C   UNK N   1      35.291  13.066  14.074  0.00  0.00     0.303 C 
HETATM    5  O   UNK N   1      34.156  12.606  14.136  0.00  0.00    -0.261 OA
BRANCH   4   6
HETATM    6  O   UNK N   1      35.585  14.056  13.194  0.00  0.00    -0.311 OA
BRANCH   6   7
HETATM    7  C   UNK N   1      35.431  13.966  11.831  0.00  0.00     0.158 C 
HETATM    8  C   UNK N   1      34.806  15.275  11.342  0.00  0.00     0.268 C 
HETATM    9  N   UNK N   1      34.663  15.346   9.879  0.00  0.00    -0.072 N 
HETATM   10  C   UNK N   1      35.615  14.519   9.124  0.00  0.00     0.236 C 
HETATM   11  C   UNK N   1      33.318  14.936   9.515  0.00  0.00     0.272 C 
HETATM   12  C   UNK N   1      34.827  16.735   9.485  0.00  0.00     0.272 C 
HETATM   13  C   UNK N   1      36.969  14.422   9.822  0.00  0.00     0.030 C 
HETATM   14  C   UNK N   1      36.817  13.764  11.195  0.00  0.00     0.036 C 
ENDBRANCH   6   7
ENDBRANCH   4   6
ENDBRANCH   1   4
BRANCH   1  15
HETATM   15  C   UNK N   1      35.956  12.332  16.413  0.00  0.00    -0.009 A 
HETATM   16  C   UNK N   1      35.535  13.406  17.218  0.00  0.00     0.011 A 
HETATM   17  C   UNK N   1      35.171  13.191  18.551  0.00  0.00     0.001 A 
HETATM   18  C   UNK N   1      35.230  11.906  19.095  0.00  0.00     0.000 A 
HETATM   19  C   UNK N   1      35.650  10.832  18.306  0.00  0.00     0.001 A 
HETATM   20  C   UNK N   1      36.011  11.044  16.973  0.00  0.00     0.011 A 
ENDBRANCH   1  15
BRANCH   1  21
HETATM   21  C   UNK N   1      36.922  11.226  14.393  0.00  0.00    -0.009 A 
HETATM   22  C   UNK N   1      38.232  10.800  14.675  0.00  0.00     0.011 A 
HETATM   23  C   UNK N   1      38.717   9.602  14.142  0.00  0.00     0.001 A 
HETATM   24  C   UNK N   1      37.898   8.815  13.329  0.00  0.00     0.000 A 
HETATM   25  C   UNK N   1      36.594   9.228  13.045  0.00  0.00     0.001 A 
HETATM   26  C   UNK N   1      36.110  10.428  13.570  0.00  0.00     0.011 A 
ENDBRANCH   1  21
TORSDOF 6
ENDMDL
MODEL 5
REMARK VINA RESULT:      -6.9     21.943     25.088
REMARK  6 active torsions:
REMARK  status: ('A' for Active; 'I' for Inactive)
REMARK    1  A    between atoms: O_1  and  C_7 
REMARK    2  A    between atoms: O_1  and  C_12 
REMARK    3  A    between atoms: O_2  and  C_13 
REMARK    4  A    between atoms: C_12  and  C_13 
REMARK    5  A    between atoms: C_13  and  C_14 
REMARK    6  A    between atoms: C_13  and  C_15 
ROOT
HETATM    1  C   UNK N   1      26.994  25.319  -4.248  0.00  0.00     0.201 C 
ENDROOT
BRANCH   1   2
HETATM    2  O   UNK N   1      26.137  24.918  -3.212  0.00  0.00    -0.371 OA
HETATM    3  H   UNK N   1      25.412  24.498  -2.725  0.00  0.00     0.212 HD
ENDBRANCH   1   2
BRANCH   1   4
HETATM    4  C   UNK N   1      26.475  24.697  -5.534  0.00  0.00     0.303 C 
HETATM    5  O   UNK N   1      25.275  24.683  -5.783  0.00  0.00    -0.261 OA
BRANCH   4   6
HETATM    6  O   UNK N   1      27.363  24.149  -6.400  0.00  0.00    -0.311 OA
BRANCH   6   7
HETATM    7  C   UNK N   1      27.347  22.839  -6.818  0.00  0.00     0.158 C 
HETATM    8  C   UNK N   1      27.051  22.828  -8.319  0.00  0.00     0.268 C 
HETATM    9  N   UNK N   1      27.087  21.483  -8.915  0.00  0.00    -0.072 N 
HETATM   10  C   UNK N   1      27.935  20.515  -8.205  0.00  0.00     0.236 C 
HETATM   11  C   UNK N   1      25.737  20.951  -8.965  0.00  0.00     0.272 C 
HETATM   12  C   UNK N   1      27.566  21.617 -10.280  0.00  0.00     0.272 C 
HETATM   13  C   UNK N   1      29.157  21.177  -7.574  0.00  0.00     0.030 C 
HETATM   14  C   UNK N   1      28.727  22.219  -6.539  0.00  0.00     0.036 C 
ENDBRANCH   6   7
ENDBRANCH   4   6
ENDBRANCH   1   4
BRANCH   1  15
HETATM   15  C   UNK N   1      28.392  24.852  -3.874  0.00  0.00    -0.009 A 
HETATM   16  C   UNK N   1      29.543  25.553  -4.277  0.00  0.00     0.011 A 
HETATM   17  C   UNK N   1      30.814  25.077  -3.946  0.00  0.00     0.001 A 
HETATM   18  C   UNK N   1      30.951  23.895  -3.214  0.00  0.00     0.000 A 
HETATM   19  C   UNK N   1      29.816  23.188  -2.811  0.00  0.00     0.001 A 
HETATM   20  C   UNK N   1      28.543  23.664  -3.139  0.00  0.00     0.011 A 
ENDBRANCH   1  15
BRANCH   1  21
HETATM   21  C   UNK N   1      26.961  26.835  -4.377  0.00  0.00    -0.009 A 
HETATM   22  C   UNK N   1      26.617  27.636  -3.273  0.00  0.00     0.011 A 
HETATM   23  C   UNK N   1      26.583  29.028  -3.391  0.00  0.00     0.001 A 
HETATM   24  C   UNK N   1      26.899  29.635  -4.609  0.00  0.00     0.000 A 
HETATM   25  C   UNK N   1      27.244  28.850  -5.711  0.00  0.00     0.001 A 
HETATM   26  C   UNK N   1      27.271  27.458  -5.597  0.00  0.00     0.011 A 
ENDBRANCH   1  21
TORSDOF 6
ENDMDL
MODEL 6
REMARK VINA RESULT:      -6.7      1.789      2.766
REMARK  6 active torsions:
REMARK  status: ('A' for Active; 'I' for Inactive)
REMARK    1  A    between atoms: O_1  and  C_7 
REMARK    2  A    between atoms: O_1  and  C_12 
REMARK    3  A    between atoms: O_2  and  C_13 
REMARK    4  A    between atoms: C_12  and  C_13 
REMARK    5  A    between atoms: C_13  and  C_14 
REMARK    6  A    between atoms: C_13  and  C_15 
ROOT
HETATM    1  C   UNK N   1      35.260  12.416  14.674  0.00  0.00     0.201 C 
ENDROOT
BRANCH   1   2
HETATM    2  O   UNK N   1      33.872  12.248  14.791  0.00  0.00    -0.371 OA
HETATM    3  H   UNK N   1      32.964  12.274  15.131  0.00  0.00     0.212 HD
ENDBRANCH   1   2
BRANCH   1   4
HETATM    4  C   UNK N   1      35.536  12.971  13.286  0.00  0.00     0.303 C 
HETATM    5  O   UNK N   1      34.722  13.700  12.731  0.00  0.00    -0.261 OA
BRANCH   4   6
HETATM    6  O   UNK N   1      36.696  12.638  12.668  0.00  0.00    -0.311 OA
BRANCH   6   7
HETATM    7  C   UNK N   1      36.786  12.094  11.409  0.00  0.00     0.158 C 
HETATM    8  C   UNK N   1      37.968  12.755  10.695  0.00  0.00     0.268 C 
HETATM    9  N   UNK N   1      38.231  12.201   9.358  0.00  0.00    -0.072 N 
HETATM   10  C   UNK N   1      37.784  10.814   9.164  0.00  0.00     0.236 C 
HETATM   11  C   UNK N   1      37.574  13.032   8.364  0.00  0.00     0.272 C 
HETATM   12  C   UNK N   1      39.663  12.273   9.122  0.00  0.00     0.272 C 
HETATM   13  C   UNK N   1      37.903   9.990  10.442  0.00  0.00     0.030 C 
HETATM   14  C   UNK N   1      37.022  10.580  11.545  0.00  0.00     0.036 C 
ENDBRANCH   6   7
ENDBRANCH   4   6
ENDBRANCH   1   4
BRANCH   1  15
HETATM   15  C   UNK N   1      35.894  11.056  14.917  0.00  0.00    -0.009 A 
HETATM   16  C   UNK N   1      37.249  10.919  15.270  0.00  0.00     0.011 A 
HETATM   17  C   UNK N   1      37.809   9.652  15.451  0.00  0.00     0.001 A 
HETATM   18  C   UNK N   1      37.026   8.508  15.277  0.00  0.00     0.000 A 
HETATM   19  C   UNK N   1      35.680   8.631  14.925  0.00  0.00     0.001 A 
HETATM   20  C   UNK N   1      35.117   9.898  14.745  0.00  0.00     0.011 A 
ENDBRANCH   1  15
BRANCH   1  21
HETATM   21  C   UNK N   1      35.739  13.416  15.717  0.00  0.00    -0.009 A 
HETATM   22  C   UNK N   1      35.158  13.443  16.997  0.00  0.00     0.011 A 
HETATM   23  C   UNK N   1      35.595  14.363  17.954  0.00  0.00     0.001 A 
HETATM   24  C   UNK N   1      36.622  15.259  17.646  0.00  0.00     0.000 A 
HETATM   25  C   UNK N   1      37.209  15.239  16.379  0.00  0.00     0.001 A 
HETATM   26  C   UNK N   1      36.768  14.325  15.418  0.00  0.00     0.011 A 
ENDBRANCH   1  21
TORSDOF 6
ENDMDL
MODEL 7
REMARK VINA RESULT:      -6.7      5.334      9.662
REMARK  6 active torsions:
REMARK  status: ('A' for Active; 'I' for Inactive)
REMARK    1  A    between atoms: O_1  and  C_7 
REMARK    2  A    between atoms: O_1  and  C_12 
REMARK    3  A    between atoms: O_2  and  C_13 
REMARK    4  A    between atoms: C_12  and  C_13 
REMARK    5  A    between atoms: C_13  and  C_14 
REMARK    6  A    between atoms: C_13  and  C_15 
ROOT
HETATM    1  C   UNK N   1      32.359  17.032   7.440  0.00  0.00     0.201 C 
ENDROOT
BRANCH   1   2
HETATM    2  O   UNK N   1      33.230  18.122   7.586  0.00  0.00    -0.371 OA
HETATM    3  H   UNK N   1      33.590  18.991   7.820  0.00  0.00     0.212 HD
ENDBRANCH   1   2
BRANCH   1   4
HETATM    4  C   UNK N   1      32.831  15.943   8.391  0.00  0.00     0.303 C 
HETATM    5  O   UNK N   1      32.028  15.181   8.917  0.00  0.00    -0.261 OA
BRANCH   4   6
HETATM    6  O   UNK N   1      34.157  15.834   8.654  0.00  0.00    -0.311 OA
BRANCH   6   7
HETATM    7  C   UNK N   1      34.704  15.004   9.603  0.00  0.00     0.158 C 
HETATM    8  C   UNK N   1      36.063  14.528   9.083  0.00  0.00     0.268 C 
HETATM    9  N   UNK N   1      36.799  13.692  10.045  0.00  0.00    -0.072 N 
HETATM   10  C   UNK N   1      36.457  13.925  11.456  0.00  0.00     0.236 C 
HETATM   11  C   UNK N   1      36.548  12.294   9.744  0.00  0.00     0.272 C 
HETATM   12  C   UNK N   1      38.217  13.942   9.855  0.00  0.00     0.272 C 
HETATM   13  C   UNK N   1      36.103  15.385  11.725  0.00  0.00     0.030 C 
HETATM   14  C   UNK N   1      34.878  15.799  10.908  0.00  0.00     0.036 C 
ENDBRANCH   6   7
ENDBRANCH   4   6
ENDBRANCH   1   4
BRANCH   1  15
HETATM   15  C   UNK N   1      32.405  16.618   5.979  0.00  0.00    -0.009 A 
HETATM   16  C   UNK N   1      32.268  15.275   5.581  0.00  0.00     0.011 A 
HETATM   17  C   UNK N   1      32.350  14.924   4.231  0.00  0.00     0.001 A 
HETATM   18  C   UNK N   1      32.576  15.907   3.264  0.00  0.00     0.000 A 
HETATM   19  C   UNK N   1      32.717  17.243   3.647  0.00  0.00     0.001 A 
HETATM   20  C   UNK N   1      32.633  17.596   4.996  0.00  0.00     0.011 A 
ENDBRANCH   1  15
BRANCH   1  21
HETATM   21  C   UNK N   1      30.949  17.454   7.825  0.00  0.00    -0.009 A 
HETATM   22  C   UNK N   1      29.844  17.019   7.072  0.00  0.00     0.011 A 
HETATM   23  C   UNK N   1      28.548  17.409   7.422  0.00  0.00     0.001 A 
HETATM   24  C   UNK N   1      28.342  18.230   8.533  0.00  0.00     0.000 A 
HETATM   25  C   UNK N   1      29.431  18.667   9.290  0.00  0.00     0.001 A 
HETATM   26  C   UNK N   1      30.727  18.285   8.937  0.00  0.00     0.011 A 
ENDBRANCH   1  21
TORSDOF 6
ENDMDL
MODEL 8
REMARK VINA RESULT:      -6.7     21.841     25.335
REMARK  6 active torsions:
REMARK  status: ('A' for Active; 'I' for Inactive)
REMARK    1  A    between atoms: O_1  and  C_7 
REMARK    2  A    between atoms: O_1  and  C_12 
REMARK    3  A    between atoms: O_2  and  C_13 
REMARK    4  A    between atoms: C_12  and  C_13 
REMARK    5  A    between atoms: C_13  and  C_14 
REMARK    6  A    between atoms: C_13  and  C_15 
ROOT
HETATM    1  C   UNK N   1      26.948  25.367  -4.382  0.00  0.00     0.201 C 
ENDROOT
BRANCH   1   2
HETATM    2  O   UNK N   1      26.262  25.714  -3.208  0.00  0.00    -0.371 OA
HETATM    3  H   UNK N   1      25.980  26.185  -2.409  0.00  0.00     0.212 HD
ENDBRANCH   1   2
BRANCH   1   4
HETATM    4  C   UNK N   1      26.022  24.487  -5.206  0.00  0.00     0.303 C 
HETATM    5  O   UNK N   1      24.864  24.828  -5.423  0.00  0.00    -0.261 OA
BRANCH   4   6
HETATM    6  O   UNK N   1      26.495  23.312  -5.690  0.00  0.00    -0.311 OA
BRANCH   6   7
HETATM    7  C   UNK N   1      26.430  22.922  -7.007  0.00  0.00     0.158 C 
HETATM    8  C   UNK N   1      27.760  22.254  -7.365  0.00  0.00     0.268 C 
HETATM    9  N   UNK N   1      27.794  21.711  -8.732  0.00  0.00    -0.072 N 
HETATM   10  C   UNK N   1      26.481  21.354  -9.289  0.00  0.00     0.236 C 
HETATM   11  C   UNK N   1      28.409  22.687  -9.614  0.00  0.00     0.272 C 
HETATM   12  C   UNK N   1      28.638  20.528  -8.718  0.00  0.00     0.272 C 
HETATM   13  C   UNK N   1      25.523  20.842  -8.216  0.00  0.00     0.030 C 
HETATM   14  C   UNK N   1      25.270  21.925  -7.165  0.00  0.00     0.036 C 
ENDBRANCH   6   7
ENDBRANCH   4   6
ENDBRANCH   1   4
BRANCH   1  15
HETATM   15  C   UNK N   1      28.227  24.664  -3.958  0.00  0.00    -0.009 A 
HETATM   16  C   UNK N   1      28.258  23.764  -2.877  0.00  0.00     0.011 A 
HETATM   17  C   UNK N   1      29.459  23.162  -2.491  0.00  0.00     0.001 A 
HETATM   18  C   UNK N   1      30.641  23.455  -3.175  0.00  0.00     0.000 A 
HETATM   19  C   UNK N   1      30.623  24.349  -4.248  0.00  0.00     0.001 A 
HETATM   20  C   UNK N   1      29.423  24.950  -4.637  0.00  0.00     0.011 A 
ENDBRANCH   1  15
BRANCH   1  21
HETATM   21  C   UNK N   1      27.274  26.627  -5.171  0.00  0.00    -0.009 A 
HETATM   22  C   UNK N   1      27.395  26.578  -6.571  0.00  0.00     0.011 A 
HETATM   23  C   UNK N   1      27.698  27.734  -7.297  0.00  0.00     0.001 A 
HETATM   24  C   UNK N   1      27.874  28.950  -6.633  0.00  0.00     0.000 A 
HETATM   25  C   UNK N   1      27.753  29.011  -5.243  0.00  0.00     0.001 A 
HETATM   26  C   UNK N   1      27.459  27.856  -4.516  0.00  0.00     0.011 A 
ENDBRANCH   1  21
TORSDOF 6
ENDMDL
MODEL 9
REMARK VINA RESULT:      -6.7      5.319     10.241
REMARK  6 active torsions:
REMARK  status: ('A' for Active; 'I' for Inactive)
REMARK    1  A    between atoms: O_1  and  C_7 
REMARK    2  A    between atoms: O_1  and  C_12 
REMARK    3  A    between atoms: O_2  and  C_13 
REMARK    4  A    between atoms: C_12  and  C_13 
REMARK    5  A    between atoms: C_13  and  C_14 
REMARK    6  A    between atoms: C_13  and  C_15 
ROOT
HETATM    1  C   UNK N   1      32.243  16.327   7.407  0.00  0.00     0.201 C 
ENDROOT
BRANCH   1   2
HETATM    2  O   UNK N   1      32.014  14.997   7.789  0.00  0.00    -0.371 OA
HETATM    3  H   UNK N   1      31.985  14.177   8.305  0.00  0.00     0.212 HD
ENDBRANCH   1   2
BRANCH   1   4
HETATM    4  C   UNK N   1      33.465  16.815   8.169  0.00  0.00     0.303 C 
HETATM    5  O   UNK N   1      34.263  17.585   7.645  0.00  0.00    -0.261 OA
BRANCH   4   6
HETATM    6  O   UNK N   1      33.663  16.377   9.437  0.00  0.00    -0.311 OA
BRANCH   6   7
HETATM    7  C   UNK N   1      34.808  15.762   9.885  0.00  0.00     0.158 C 
HETATM    8  C   UNK N   1      34.433  14.893  11.088  0.00  0.00     0.268 C 
HETATM    9  N   UNK N   1      35.559  14.108  11.618  0.00  0.00    -0.072 N 
HETATM   10  C   UNK N   1      36.617  13.806  10.642  0.00  0.00     0.236 C 
HETATM   11  C   UNK N   1      36.160  14.830  12.726  0.00  0.00     0.272 C 
HETATM   12  C   UNK N   1      35.025  12.860  12.136  0.00  0.00     0.272 C 
HETATM   13  C   UNK N   1      36.058  13.612   9.235  0.00  0.00     0.030 C 
HETATM   14  C   UNK N   1      35.372  14.890   8.750  0.00  0.00     0.036 C 
ENDBRANCH   6   7
ENDBRANCH   4   6
ENDBRANCH   1   4
BRANCH   1  15
HETATM   15  C   UNK N   1      30.979  17.107   7.731  0.00  0.00    -0.009 A 
HETATM   16  C   UNK N   1      30.961  18.123   8.704  0.00  0.00     0.011 A 
HETATM   17  C   UNK N   1      29.773  18.796   9.003  0.00  0.00     0.001 A 
HETATM   18  C   UNK N   1      28.592  18.460   8.338  0.00  0.00     0.000 A 
HETATM   19  C   UNK N   1      28.597  17.452   7.372  0.00  0.00     0.001 A 
HETATM   20  C   UNK N   1      29.784  16.779   7.070  0.00  0.00     0.011 A 
ENDBRANCH   1  15
BRANCH   1  21
HETATM   21  C   UNK N   1      32.530  16.384   5.913  0.00  0.00    -0.009 A 
HETATM   22  C   UNK N   1      33.156  15.303   5.267  0.00  0.00     0.011 A 
HETATM   23  C   UNK N   1      33.423  15.355   3.895  0.00  0.00     0.001 A 
HETATM   24  C   UNK N   1      33.061  16.483   3.155  0.00  0.00     0.000 A 
HETATM   25  C   UNK N   1      32.437  17.562   3.786  0.00  0.00     0.001 A 
HETATM   26  C   UNK N   1      32.177  17.515   5.157  0.00  0.00     0.011 A 
ENDBRANCH   1  21
TORSDOF 6
ENDMDL
