MODEL 1
REMARK VINA RESULT:      -6.6      0.000      0.000
REMARK  12 active torsions:
REMARK  status: ('A' for Active; 'I' for Inactive)
REMARK    1  A    between atoms: O_1  and  C_2 
REMARK    2  A    between atoms: C_3  and  C_2 
REMARK    3  A    between atoms: C_5  and  O_23 
REMARK    4  A    between atoms: C_6  and  O_7 
REMARK    5  A    between atoms: C_8  and  O_9 
REMARK    6  A    between atoms: C_10  and  O_11 
REMARK    7  A    between atoms: C_12  and  O_23 
REMARK    8  A    between atoms: C_13  and  C_14 
REMARK    9  A    between atoms: C_14  and  O_15 
REMARK   10  A    between atoms: C_17  and  O_18 
REMARK   11  A    between atoms: C_19  and  O_20 
REMARK   12  A    between atoms: C_21  and  O_22 
ROOT
HETATM    1  O   UNK N   1      32.591  15.961   7.391  0.00  0.00    -0.348 OA
ENDROOT
BRANCH   1   2
HETATM    2  C   UNK N   1      31.240  16.279   7.218  0.00  0.00     0.292 C 
HETATM    3  O   UNK N   1      30.861  17.164   8.250  0.00  0.00    -0.348 OA
HETATM    4  C   UNK N   1      29.466  17.307   8.194  0.00  0.00     0.179 C 
HETATM    5  C   UNK N   1      29.118  18.164   6.974  0.00  0.00     0.180 C 
HETATM    6  C   UNK N   1      29.586  17.412   5.727  0.00  0.00     0.183 C 
HETATM    7  C   UNK N   1      31.046  16.984   5.868  0.00  0.00     0.204 C 
BRANCH   4   8
HETATM    8  C   UNK N   1      28.980  17.966   9.476  0.00  0.00     0.198 C 
BRANCH   8   9
HETATM    9  O   UNK N   1      27.588  17.891   9.551  0.00  0.00    -0.398 OA
HETATM   10  H   UNK N   1      27.051  17.701   8.765  0.00  0.00     0.209 HD
ENDBRANCH   8   9
ENDBRANCH   4   8
BRANCH   5  11
HETATM   11  O   UNK N   1      27.741  18.380   6.903  0.00  0.00    -0.390 OA
HETATM   12  H   UNK N   1      27.190  18.740   6.191  0.00  0.00     0.210 HD
ENDBRANCH   5  11
BRANCH   6  13
HETATM   13  O   UNK N   1      29.429  18.216   4.597  0.00  0.00    -0.390 OA
HETATM   14  H   UNK N   1      30.078  18.901   4.374  0.00  0.00     0.210 HD
ENDBRANCH   6  13
BRANCH   7  15
HETATM   15  O   UNK N   1      31.388  16.123   4.823  0.00  0.00    -0.388 OA
HETATM   16  H   UNK N   1      32.280  15.976   4.471  0.00  0.00     0.210 HD
ENDBRANCH   7  15
ENDBRANCH   1   2
BRANCH   1  17
HETATM   17  C   UNK N   1      32.955  16.320   8.700  0.00  0.00     0.187 C 
HETATM   18  C   UNK N   1      34.334  17.020   8.700  0.00  0.00     0.180 C 
HETATM   19  O   UNK N   1      34.758  17.241  10.022  0.00  0.00    -0.349 OA
HETATM   20  C   UNK N   1      35.092  15.986  10.547  0.00  0.00     0.288 C 
HETATM   21  C   UNK N   1      33.800  15.230  10.843  0.00  0.00     0.204 C 
HETATM   22  C   UNK N   1      33.066  15.025   9.518  0.00  0.00     0.183 C 
BRANCH  18  23
HETATM   23  C   UNK N   1      34.272  18.362   7.993  0.00  0.00     0.198 C 
BRANCH  23  24
HETATM   24  O   UNK N   1      35.261  19.210   8.487  0.00  0.00    -0.398 OA
HETATM   25  H   UNK N   1      35.082  19.892   9.153  0.00  0.00     0.209 HD
ENDBRANCH  23  24
ENDBRANCH  18  23
BRANCH  20  26
HETATM   26  O   UNK N   1      35.834  16.159  11.716  0.00  0.00    -0.369 OA
HETATM   27  H   UNK N   1      36.491  16.863  11.832  0.00  0.00     0.212 HD
ENDBRANCH  20  26
BRANCH  21  28
HETATM   28  O   UNK N   1      34.092  13.988  11.409  0.00  0.00    -0.388 OA
HETATM   29  H   UNK N   1      33.850  13.134  11.017  0.00  0.00     0.210 HD
ENDBRANCH  21  28
BRANCH  22  30
HETATM   30  O   UNK N   1      31.801  14.477   9.743  0.00  0.00    -0.390 OA
HETATM   31  H   UNK N   1      31.644  13.640  10.206  0.00  0.00     0.210 HD
ENDBRANCH  22  30
ENDBRANCH   1  17
TORSDOF 12
ENDMDL
MODEL 2
REMARK VINA RESULT:      -6.3      3.157      5.261
REMARK  12 active torsions:
REMARK  status: ('A' for Active; 'I' for Inactive)
REMARK    1  A    between atoms: O_1  and  C_2 
REMARK    2  A    between atoms: C_3  and  C_2 
REMARK    3  A    between atoms: C_5  and  O_23 
REMARK    4  A    between atoms: C_6  and  O_7 
REMARK    5  A    between atoms: C_8  and  O_9 
REMARK    6  A    between atoms: C_10  and  O_11 
REMARK    7  A    between atoms: C_12  and  O_23 
REMARK    8  A    between atoms: C_13  and  C_14 
REMARK    9  A    between atoms: C_14  and  O_15 
REMARK   10  A    between atoms: C_17  and  O_18 
REMARK   11  A    between atoms: C_19  and  O_20 
REMARK   12  A    between atoms: C_21  and  O_22 
ROOT
HETATM    1  O   UNK N   1      34.212  14.955  10.518  0.00  0.00    -0.348 OA
ENDROOT
BRANCH   1   2
HETATM    2  C   UNK N   1      34.451  15.588   9.294  0.00  0.00     0.292 C 
HETATM    3  O   UNK N   1      33.338  15.361   8.457  0.00  0.00    -0.348 OA
HETATM    4  C   UNK N   1      33.675  15.812   7.171  0.00  0.00     0.179 C 
HETATM    5  C   UNK N   1      33.683  17.344   7.185  0.00  0.00     0.180 C 
HETATM    6  C   UNK N   1      34.767  17.795   8.166  0.00  0.00     0.183 C 
HETATM    7  C   UNK N   1      34.600  17.099   9.516  0.00  0.00     0.204 C 
BRANCH   4   8
HETATM    8  C   UNK N   1      32.656  15.285   6.173  0.00  0.00     0.198 C 
BRANCH   8   9
HETATM    9  O   UNK N   1      31.960  14.210   6.727  0.00  0.00    -0.398 OA
HETATM   10  H   UNK N   1      31.622  14.244   7.636  0.00  0.00     0.209 HD
ENDBRANCH   8   9
ENDBRANCH   4   8
BRANCH   5  11
HETATM   11  O   UNK N   1      33.963  17.844   5.913  0.00  0.00    -0.390 OA
HETATM   12  H   UNK N   1      34.686  18.407   5.597  0.00  0.00     0.210 HD
ENDBRANCH   5  11
BRANCH   6  13
HETATM   13  O   UNK N   1      34.716  19.180   8.330  0.00  0.00    -0.390 OA
HETATM   14  H   UNK N   1      34.329  19.577   9.126  0.00  0.00     0.210 HD
ENDBRANCH   6  13
BRANCH   7  15
HETATM   15  O   UNK N   1      35.712  17.359  10.321  0.00  0.00    -0.388 OA
HETATM   16  H   UNK N   1      35.749  17.282  11.287  0.00  0.00     0.210 HD
ENDBRANCH   7  15
ENDBRANCH   1   2
BRANCH   1  17
HETATM   17  C   UNK N   1      35.206  13.979  10.701  0.00  0.00     0.187 C 
HETATM   18  C   UNK N   1      34.572  12.569  10.736  0.00  0.00     0.180 C 
HETATM   19  O   UNK N   1      35.550  11.614  11.068  0.00  0.00    -0.349 OA
HETATM   20  C   UNK N   1      35.850  11.808  12.422  0.00  0.00     0.288 C 
HETATM   21  C   UNK N   1      36.706  13.065  12.549  0.00  0.00     0.204 C 
HETATM   22  C   UNK N   1      35.870  14.248  12.060  0.00  0.00     0.183 C 
BRANCH  18  23
HETATM   23  C   UNK N   1      33.984  12.194   9.387  0.00  0.00     0.198 C 
BRANCH  23  24
HETATM   24  O   UNK N   1      32.667  12.642   9.297  0.00  0.00    -0.398 OA
HETATM   25  H   UNK N   1      31.971  12.133   8.856  0.00  0.00     0.209 HD
ENDBRANCH  23  24
ENDBRANCH  18  23
BRANCH  20  26
HETATM   26  O   UNK N   1      36.544  10.696  12.902  0.00  0.00    -0.369 OA
HETATM   27  H   UNK N   1      37.011  10.685  13.752  0.00  0.00     0.212 HD
ENDBRANCH  20  26
BRANCH  21  28
HETATM   28  O   UNK N   1      37.063  13.268  13.882  0.00  0.00    -0.388 OA
HETATM   29  H   UNK N   1      37.711  13.924  14.184  0.00  0.00     0.210 HD
ENDBRANCH  21  28
BRANCH  22  30
HETATM   30  O   UNK N   1      36.651  15.405  12.003  0.00  0.00    -0.390 OA
HETATM   31  H   UNK N   1      37.495  15.469  11.533  0.00  0.00     0.210 HD
ENDBRANCH  22  30
ENDBRANCH   1  17
TORSDOF 12
ENDMDL
MODEL 3
REMARK VINA RESULT:      -6.0      2.771      4.728
REMARK  12 active torsions:
REMARK  status: ('A' for Active; 'I' for Inactive)
REMARK    1  A    between atoms: O_1  and  C_2 
REMARK    2  A    between atoms: C_3  and  C_2 
REMARK    3  A    between atoms: C_5  and  O_23 
REMARK    4  A    between atoms: C_6  and  O_7 
REMARK    5  A    between atoms: C_8  and  O_9 
REMARK    6  A    between atoms: C_10  and  O_11 
REMARK    7  A    between atoms: C_12  and  O_23 
REMARK    8  A    between atoms: C_13  and  C_14 
REMARK    9  A    between atoms: C_14  and  O_15 
REMARK   10  A    between atoms: C_17  and  O_18 
REMARK   11  A    between atoms: C_19  and  O_20 
REMARK   12  A    between atoms: C_21  and  O_22 
ROOT
HETATM    1  O   UNK N   1      35.096  13.694   9.981  0.00  0.00    -0.348 OA
ENDROOT
BRANCH   1   2
HETATM    2  C   UNK N   1      34.093  14.531   9.480  0.00  0.00     0.292 C 
HETATM    3  O   UNK N   1      34.713  15.629   8.847  0.00  0.00    -0.348 OA
HETATM    4  C   UNK N   1      33.710  16.561   8.539  0.00  0.00     0.179 C 
HETATM    5  C   UNK N   1      32.889  16.015   7.368  0.00  0.00     0.180 C 
HETATM    6  C   UNK N   1      32.227  14.715   7.829  0.00  0.00     0.183 C 
HETATM    7  C   UNK N   1      33.260  13.769   8.441  0.00  0.00     0.204 C 
BRANCH   4   8
HETATM    8  C   UNK N   1      34.357  17.889   8.174  0.00  0.00     0.198 C 
BRANCH   8   9
HETATM    9  O   UNK N   1      34.522  17.973   6.791  0.00  0.00    -0.398 OA
HETATM   10  H   UNK N   1      34.479  18.826   6.330  0.00  0.00     0.209 HD
ENDBRANCH   8   9
ENDBRANCH   4   8
BRANCH   5  11
HETATM   11  O   UNK N   1      31.908  16.932   6.987  0.00  0.00    -0.390 OA
HETATM   12  H   UNK N   1      30.941  16.856   6.967  0.00  0.00     0.210 HD
ENDBRANCH   5  11
BRANCH   6  13
HETATM   13  O   UNK N   1      31.587  14.097   6.753  0.00  0.00    -0.390 OA
HETATM   14  H   UNK N   1      31.327  13.164   6.793  0.00  0.00     0.210 HD
ENDBRANCH   6  13
BRANCH   7  15
HETATM   15  O   UNK N   1      32.611  12.688   9.043  0.00  0.00    -0.388 OA
HETATM   16  H   UNK N   1      32.937  11.776   9.084  0.00  0.00     0.210 HD
ENDBRANCH   7  15
ENDBRANCH   1   2
BRANCH   1  17
HETATM   17  C   UNK N   1      34.924  13.599  11.372  0.00  0.00     0.187 C 
HETATM   18  C   UNK N   1      36.061  14.347  12.106  0.00  0.00     0.180 C 
HETATM   19  O   UNK N   1      35.966  14.122  13.490  0.00  0.00    -0.349 OA
HETATM   20  C   UNK N   1      36.340  12.789  13.703  0.00  0.00     0.288 C 
HETATM   21  C   UNK N   1      35.194  11.891  13.245  0.00  0.00     0.204 C 
HETATM   22  C   UNK N   1      35.001  12.110  11.744  0.00  0.00     0.183 C 
BRANCH  18  23
HETATM   23  C   UNK N   1      35.984  15.843  11.864  0.00  0.00     0.198 C 
BRANCH  23  24
HETATM   24  O   UNK N   1      36.831  16.205  10.817  0.00  0.00    -0.398 OA
HETATM   25  H   UNK N   1      36.798  17.076  10.394  0.00  0.00     0.209 HD
ENDBRANCH  23  24
ENDBRANCH  18  23
BRANCH  20  26
HETATM   26  O   UNK N   1      36.598  12.594  15.060  0.00  0.00    -0.369 OA
HETATM   27  H   UNK N   1      36.971  11.775  15.420  0.00  0.00     0.212 HD
ENDBRANCH  20  26
BRANCH  21  28
HETATM   28  O   UNK N   1      35.512  10.552  13.481  0.00  0.00    -0.388 OA
HETATM   29  H   UNK N   1      36.373  10.239  13.800  0.00  0.00     0.210 HD
ENDBRANCH  21  28
BRANCH  22  30
HETATM   30  O   UNK N   1      33.864  11.434  11.297  0.00  0.00    -0.390 OA
HETATM   31  H   UNK N   1      33.192  11.051  11.881  0.00  0.00     0.210 HD
ENDBRANCH  22  30
ENDBRANCH   1  17
TORSDOF 12
ENDMDL
MODEL 4
REMARK VINA RESULT:      -6.0      1.410      2.743
REMARK  12 active torsions:
REMARK  status: ('A' for Active; 'I' for Inactive)
REMARK    1  A    between atoms: O_1  and  C_2 
REMARK    2  A    between atoms: C_3  and  C_2 
REMARK    3  A    between atoms: C_5  and  O_23 
REMARK    4  A    between atoms: C_6  and  O_7 
REMARK    5  A    between atoms: C_8  and  O_9 
REMARK    6  A    between atoms: C_10  and  O_11 
REMARK    7  A    between atoms: C_12  and  O_23 
REMARK    8  A    between atoms: C_13  and  C_14 
REMARK    9  A    between atoms: C_14  and  O_15 
REMARK   10  A    between atoms: C_17  and  O_18 
REMARK   11  A    between atoms: C_19  and  O_20 
REMARK   12  A    between atoms: C_21  and  O_22 
ROOT
HETATM    1  O   UNK N   1      31.202  15.763   7.918  0.00  0.00    -0.348 OA
ENDROOT
BRANCH   1   2
HETATM    2  C   UNK N   1      30.438  16.914   7.701  0.00  0.00     0.292 C 
HETATM    3  O   UNK N   1      29.786  16.779   6.456  0.00  0.00    -0.348 OA
HETATM    4  C   UNK N   1      29.198  18.016   6.150  0.00  0.00     0.179 C 
HETATM    5  C   UNK N   1      27.983  18.211   7.061  0.00  0.00     0.180 C 
HETATM    6  C   UNK N   1      28.485  18.248   8.506  0.00  0.00     0.183 C 
HETATM    7  C   UNK N   1      29.376  17.042   8.802  0.00  0.00     0.204 C 
BRANCH   4   8
HETATM    8  C   UNK N   1      28.784  18.025   4.687  0.00  0.00     0.198 C 
BRANCH   8   9
HETATM    9  O   UNK N   1      28.654  19.339   4.237  0.00  0.00    -0.398 OA
HETATM   10  H   UNK N   1      28.646  20.085   4.857  0.00  0.00     0.209 HD
ENDBRANCH   8   9
ENDBRANCH   4   8
BRANCH   5  11
HETATM   11  O   UNK N   1      27.330  19.406   6.760  0.00  0.00    -0.390 OA
HETATM   12  H   UNK N   1      26.750  19.645   6.020  0.00  0.00     0.210 HD
ENDBRANCH   5  11
BRANCH   6  13
HETATM   13  O   UNK N   1      27.403  18.272   9.388  0.00  0.00    -0.390 OA
HETATM   14  H   UNK N   1      26.891  19.083   9.532  0.00  0.00     0.210 HD
ENDBRANCH   6  13
BRANCH   7  15
HETATM   15  O   UNK N   1      29.991  17.204  10.046  0.00  0.00    -0.388 OA
HETATM   16  H   UNK N   1      29.750  17.855  10.722  0.00  0.00     0.210 HD
ENDBRANCH   7  15
ENDBRANCH   1   2
BRANCH   1  17
HETATM   17  C   UNK N   1      32.359  16.140   8.621  0.00  0.00     0.187 C 
HETATM   18  C   UNK N   1      33.578  16.170   7.669  0.00  0.00     0.180 C 
HETATM   19  O   UNK N   1      34.754  16.401   8.405  0.00  0.00    -0.349 OA
HETATM   20  C   UNK N   1      35.006  15.229   9.128  0.00  0.00     0.288 C 
HETATM   21  C   UNK N   1      34.018  15.159  10.289  0.00  0.00     0.204 C 
HETATM   22  C   UNK N   1      32.610  15.075   9.699  0.00  0.00     0.183 C 
BRANCH  18  23
HETATM   23  C   UNK N   1      33.443  17.273   6.635  0.00  0.00     0.198 C 
BRANCH  23  24
HETATM   24  O   UNK N   1      34.506  18.169   6.747  0.00  0.00    -0.398 OA
HETATM   25  H   UNK N   1      35.322  18.080   6.232  0.00  0.00     0.209 HD
ENDBRANCH  23  24
ENDBRANCH  18  23
BRANCH  20  26
HETATM   26  O   UNK N   1      36.317  15.256   9.606  0.00  0.00    -0.369 OA
HETATM   27  H   UNK N   1      36.553  15.543  10.501  0.00  0.00     0.212 HD
ENDBRANCH  20  26
BRANCH  21  28
HETATM   28  O   UNK N   1      34.267  14.023  11.061  0.00  0.00    -0.388 OA
HETATM   29  H   UNK N   1      33.615  13.600  11.643  0.00  0.00     0.210 HD
ENDBRANCH  21  28
BRANCH  22  30
HETATM   30  O   UNK N   1      31.653  15.167  10.711  0.00  0.00    -0.390 OA
HETATM   31  H   UNK N   1      31.439  14.449  11.327  0.00  0.00     0.210 HD
ENDBRANCH  22  30
ENDBRANCH   1  17
TORSDOF 12
ENDMDL
MODEL 5
REMARK VINA RESULT:      -5.9      2.018      3.931
REMARK  12 active torsions:
REMARK  status: ('A' for Active; 'I' for Inactive)
REMARK    1  A    between atoms: O_1  and  C_2 
REMARK    2  A    between atoms: C_3  and  C_2 
REMARK    3  A    between atoms: C_5  and  O_23 
REMARK    4  A    between atoms: C_6  and  O_7 
REMARK    5  A    between atoms: C_8  and  O_9 
REMARK    6  A    between atoms: C_10  and  O_11 
REMARK    7  A    between atoms: C_12  and  O_23 
REMARK    8  A    between atoms: C_13  and  C_14 
REMARK    9  A    between atoms: C_14  and  O_15 
REMARK   10  A    between atoms: C_17  and  O_18 
REMARK   11  A    between atoms: C_19  and  O_20 
REMARK   12  A    between atoms: C_21  and  O_22 
ROOT
HETATM    1  O   UNK N   1      31.009  16.020   7.123  0.00  0.00    -0.348 OA
ENDROOT
BRANCH   1   2
HETATM    2  C   UNK N   1      30.216  17.172   7.096  0.00  0.00     0.292 C 
HETATM    3  O   UNK N   1      29.362  17.093   5.976  0.00  0.00    -0.348 OA
HETATM    4  C   UNK N   1      28.728  18.337   5.837  0.00  0.00     0.179 C 
HETATM    5  C   UNK N   1      27.685  18.473   6.950  0.00  0.00     0.180 C 
HETATM    6  C   UNK N   1      28.426  18.444   8.288  0.00  0.00     0.183 C 
HETATM    7  C   UNK N   1      29.357  17.235   8.367  0.00  0.00     0.204 C 
BRANCH   4   8
HETATM    8  C   UNK N   1      28.071  18.413   4.467  0.00  0.00     0.198 C 
BRANCH   8   9
HETATM    9  O   UNK N   1      28.089  19.729   4.004  0.00  0.00    -0.398 OA
HETATM   10  H   UNK N   1      28.486  19.956   3.148  0.00  0.00     0.209 HD
ENDBRANCH   8   9
ENDBRANCH   4   8
BRANCH   5  11
HETATM   11  O   UNK N   1      26.988  19.675   6.825  0.00  0.00    -0.390 OA
HETATM   12  H   UNK N   1      26.490  20.046   6.080  0.00  0.00     0.210 HD
ENDBRANCH   5  11
BRANCH   6  13
HETATM   13  O   UNK N   1      27.509  18.414   9.341  0.00  0.00    -0.390 OA
HETATM   14  H   UNK N   1      27.720  17.970  10.176  0.00  0.00     0.210 HD
ENDBRANCH   6  13
BRANCH   7  15
HETATM   15  O   UNK N   1      30.174  17.341   9.495  0.00  0.00    -0.388 OA
HETATM   16  H   UNK N   1      29.930  17.747  10.341  0.00  0.00     0.210 HD
ENDBRANCH   7  15
ENDBRANCH   1   2
BRANCH   1  17
HETATM   17  C   UNK N   1      32.329  16.397   6.825  0.00  0.00     0.187 C 
HETATM   18  C   UNK N   1      32.823  15.664   5.556  0.00  0.00     0.180 C 
HETATM   19  O   UNK N   1      34.188  15.931   5.351  0.00  0.00    -0.349 OA
HETATM   20  C   UNK N   1      34.882  15.237   6.350  0.00  0.00     0.288 C 
HETATM   21  C   UNK N   1      34.699  15.984   7.668  0.00  0.00     0.204 C 
HETATM   22  C   UNK N   1      33.209  15.968   8.009  0.00  0.00     0.183 C 
BRANCH  18  23
HETATM   23  C   UNK N   1      32.061  16.119   4.324  0.00  0.00     0.198 C 
BRANCH  23  24
HETATM   24  O   UNK N   1      30.908  15.353   4.162  0.00  0.00    -0.398 OA
HETATM   25  H   UNK N   1      30.633  14.997   3.303  0.00  0.00     0.209 HD
ENDBRANCH  23  24
ENDBRANCH  18  23
BRANCH  20  26
HETATM   26  O   UNK N   1      36.234  15.174   6.011  0.00  0.00    -0.369 OA
HETATM   27  H   UNK N   1      36.769  15.956   5.801  0.00  0.00     0.212 HD
ENDBRANCH  20  26
BRANCH  21  28
HETATM   28  O   UNK N   1      35.414  15.346   8.683  0.00  0.00    -0.388 OA
HETATM   29  H   UNK N   1      36.382  15.287   8.720  0.00  0.00     0.210 HD
ENDBRANCH  21  28
BRANCH  22  30
HETATM   30  O   UNK N   1      32.956  16.770   9.124  0.00  0.00    -0.390 OA
HETATM   31  H   UNK N   1      32.175  16.685   9.691  0.00  0.00     0.210 HD
ENDBRANCH  22  30
ENDBRANCH   1  17
TORSDOF 12
ENDMDL
MODEL 6
REMARK VINA RESULT:      -5.9      6.853     10.237
REMARK  12 active torsions:
REMARK  status: ('A' for Active; 'I' for Inactive)
REMARK    1  A    between atoms: O_1  and  C_2 
REMARK    2  A    between atoms: C_3  and  C_2 
REMARK    3  A    between atoms: C_5  and  O_23 
REMARK    4  A    between atoms: C_6  and  O_7 
REMARK    5  A    between atoms: C_8  and  O_9 
REMARK    6  A    between atoms: C_10  and  O_11 
REMARK    7  A    between atoms: C_12  and  O_23 
REMARK    8  A    between atoms: C_13  and  C_14 
REMARK    9  A    between atoms: C_14  and  O_15 
REMARK   10  A    between atoms: C_17  and  O_18 
REMARK   11  A    between atoms: C_19  and  O_20 
REMARK   12  A    between atoms: C_21  and  O_22 
ROOT
HETATM    1  O   UNK N   1      23.579  18.924   4.468  0.00  0.00    -0.348 OA
ENDROOT
BRANCH   1   2
HETATM    2  C   UNK N   1      22.616  18.588   3.511  0.00  0.00     0.292 C 
HETATM    3  O   UNK N   1      21.649  17.769   4.130  0.00  0.00    -0.348 OA
HETATM    4  C   UNK N   1      20.812  17.267   3.121  0.00  0.00     0.179 C 
HETATM    5  C   UNK N   1      19.913  18.405   2.630  0.00  0.00     0.180 C 
HETATM    6  C   UNK N   1      20.816  19.484   2.028  0.00  0.00     0.183 C 
HETATM    7  C   UNK N   1      21.930  19.864   3.003  0.00  0.00     0.204 C 
BRANCH   4   8
HETATM    8  C   UNK N   1      19.980  16.125   3.685  0.00  0.00     0.198 C 
BRANCH   8   9
HETATM    9  O   UNK N   1      18.806  16.626   4.250  0.00  0.00    -0.398 OA
HETATM   10  H   UNK N   1      18.019  16.067   4.354  0.00  0.00     0.209 HD
ENDBRANCH   8   9
ENDBRANCH   4   8
BRANCH   5  11
HETATM   11  O   UNK N   1      19.023  17.943   1.660  0.00  0.00    -0.390 OA
HETATM   12  H   UNK N   1      19.039  17.143   1.113  0.00  0.00     0.210 HD
ENDBRANCH   5  11
BRANCH   6  13
HETATM   13  O   UNK N   1      20.060  20.611   1.701  0.00  0.00    -0.390 OA
HETATM   14  H   UNK N   1      19.225  20.805   2.154  0.00  0.00     0.210 HD
ENDBRANCH   6  13
BRANCH   7  15
HETATM   15  O   UNK N   1      22.859  20.686   2.360  0.00  0.00    -0.388 OA
HETATM   16  H   UNK N   1      22.729  21.142   1.514  0.00  0.00     0.210 HD
ENDBRANCH   7  15
ENDBRANCH   1   2
BRANCH   1  17
HETATM   17  C   UNK N   1      24.788  18.312   4.097  0.00  0.00     0.187 C 
HETATM   18  C   UNK N   1      25.268  17.353   5.212  0.00  0.00     0.180 C 
HETATM   19  O   UNK N   1      26.548  16.861   4.902  0.00  0.00    -0.349 OA
HETATM   20  C   UNK N   1      27.436  17.931   5.066  0.00  0.00     0.288 C 
HETATM   21  C   UNK N   1      27.264  18.883   3.886  0.00  0.00     0.204 C 
HETATM   22  C   UNK N   1      25.835  19.424   3.928  0.00  0.00     0.183 C 
BRANCH  18  23
HETATM   23  C   UNK N   1      24.330  16.170   5.365  0.00  0.00     0.198 C 
BRANCH  23  24
HETATM   24  O   UNK N   1      23.286  16.493   6.230  0.00  0.00    -0.398 OA
HETATM   25  H   UNK N   1      23.432  16.746   7.154  0.00  0.00     0.209 HD
ENDBRANCH  23  24
ENDBRANCH  18  23
BRANCH  20  26
HETATM   26  O   UNK N   1      28.742  17.441   5.110  0.00  0.00    -0.369 OA
HETATM   27  H   UNK N   1      28.956  16.502   5.220  0.00  0.00     0.212 HD
ENDBRANCH  20  26
BRANCH  21  28
HETATM   28  O   UNK N   1      28.165  19.943   3.991  0.00  0.00    -0.388 OA
HETATM   29  H   UNK N   1      28.314  20.460   4.799  0.00  0.00     0.210 HD
ENDBRANCH  21  28
BRANCH  22  30
HETATM   30  O   UNK N   1      25.567  20.179   2.785  0.00  0.00    -0.390 OA
HETATM   31  H   UNK N   1      25.496  19.810   1.892  0.00  0.00     0.210 HD
ENDBRANCH  22  30
ENDBRANCH   1  17
TORSDOF 12
ENDMDL
MODEL 7
REMARK VINA RESULT:      -5.8     10.909     13.560
REMARK  12 active torsions:
REMARK  status: ('A' for Active; 'I' for Inactive)
REMARK    1  A    between atoms: O_1  and  C_2 
REMARK    2  A    between atoms: C_3  and  C_2 
REMARK    3  A    between atoms: C_5  and  O_23 
REMARK    4  A    between atoms: C_6  and  O_7 
REMARK    5  A    between atoms: C_8  and  O_9 
REMARK    6  A    between atoms: C_10  and  O_11 
REMARK    7  A    between atoms: C_12  and  O_23 
REMARK    8  A    between atoms: C_13  and  C_14 
REMARK    9  A    between atoms: C_14  and  O_15 
REMARK   10  A    between atoms: C_17  and  O_18 
REMARK   11  A    between atoms: C_19  and  O_20 
REMARK   12  A    between atoms: C_21  and  O_22 
ROOT
HETATM    1  O   UNK N   1      20.001  16.913   2.630  0.00  0.00    -0.348 OA
ENDROOT
BRANCH   1   2
HETATM    2  C   UNK N   1      20.491  15.734   2.058  0.00  0.00     0.292 C 
HETATM    3  O   UNK N   1      20.950  14.900   3.099  0.00  0.00    -0.348 OA
HETATM    4  C   UNK N   1      21.629  13.822   2.510  0.00  0.00     0.179 C 
HETATM    5  C   UNK N   1      20.594  12.893   1.869  0.00  0.00     0.180 C 
HETATM    6  C   UNK N   1      19.876  13.682   0.772  0.00  0.00     0.183 C 
HETATM    7  C   UNK N   1      19.358  15.014   1.313  0.00  0.00     0.204 C 
BRANCH   4   8
HETATM    8  C   UNK N   1      22.426  13.089   3.578  0.00  0.00     0.198 C 
BRANCH   8   9
HETATM    9  O   UNK N   1      22.663  13.937   4.660  0.00  0.00    -0.398 OA
HETATM   10  H   UNK N   1      23.558  14.247   4.870  0.00  0.00     0.209 HD
ENDBRANCH   8   9
ENDBRANCH   4   8
BRANCH   5  11
HETATM   11  O   UNK N   1      21.216  11.775   1.312  0.00  0.00    -0.390 OA
HETATM   12  H   UNK N   1      21.040  10.828   1.426  0.00  0.00     0.210 HD
ENDBRANCH   5  11
BRANCH   6  13
HETATM   13  O   UNK N   1      18.819  12.930   0.257  0.00  0.00    -0.390 OA
HETATM   14  H   UNK N   1      18.420  13.147  -0.600  0.00  0.00     0.210 HD
ENDBRANCH   6  13
BRANCH   7  15
HETATM   15  O   UNK N   1      18.898  15.805   0.257  0.00  0.00    -0.388 OA
HETATM   16  H   UNK N   1      18.887  15.558  -0.680  0.00  0.00     0.210 HD
ENDBRANCH   7  15
ENDBRANCH   1   2
BRANCH   1  17
HETATM   17  C   UNK N   1      20.958  17.921   2.427  0.00  0.00     0.187 C 
HETATM   18  C   UNK N   1      21.212  18.692   3.744  0.00  0.00     0.180 C 
HETATM   19  O   UNK N   1      22.055  19.790   3.500  0.00  0.00    -0.349 OA
HETATM   20  C   UNK N   1      21.295  20.723   2.784  0.00  0.00     0.288 C 
HETATM   21  C   UNK N   1      21.149  20.224   1.349  0.00  0.00     0.204 C 
HETATM   22  C   UNK N   1      20.383  18.901   1.392  0.00  0.00     0.183 C 
BRANCH  18  23
HETATM   23  C   UNK N   1      21.876  17.807   4.782  0.00  0.00     0.198 C 
BRANCH  23  24
HETATM   24  O   UNK N   1      22.770  16.932   4.167  0.00  0.00    -0.398 OA
HETATM   25  H   UNK N   1      22.544  16.427   3.371  0.00  0.00     0.209 HD
ENDBRANCH  23  24
ENDBRANCH  18  23
BRANCH  20  26
HETATM   26  O   UNK N   1      21.944  21.958   2.805  0.00  0.00    -0.369 OA
HETATM   27  H   UNK N   1      22.892  22.060   2.984  0.00  0.00     0.212 HD
ENDBRANCH  20  26
BRANCH  21  28
HETATM   28  O   UNK N   1      20.432  21.150   0.590  0.00  0.00    -0.388 OA
HETATM   29  H   UNK N   1      19.607  20.954   0.120  0.00  0.00     0.210 HD
ENDBRANCH  21  28
BRANCH  22  30
HETATM   30  O   UNK N   1      20.354  18.314   0.126  0.00  0.00    -0.390 OA
HETATM   31  H   UNK N   1      20.088  17.398  -0.045  0.00  0.00     0.210 HD
ENDBRANCH  22  30
ENDBRANCH   1  17
TORSDOF 12
ENDMDL
MODEL 8
REMARK VINA RESULT:      -5.8      2.338      3.574
REMARK  12 active torsions:
REMARK  status: ('A' for Active; 'I' for Inactive)
REMARK    1  A    between atoms: O_1  and  C_2 
REMARK    2  A    between atoms: C_3  and  C_2 
REMARK    3  A    between atoms: C_5  and  O_23 
REMARK    4  A    between atoms: C_6  and  O_7 
REMARK    5  A    between atoms: C_8  and  O_9 
REMARK    6  A    between atoms: C_10  and  O_11 
REMARK    7  A    between atoms: C_12  and  O_23 
REMARK    8  A    between atoms: C_13  and  C_14 
REMARK    9  A    between atoms: C_14  and  O_15 
REMARK   10  A    between atoms: C_17  and  O_18 
REMARK   11  A    between atoms: C_19  and  O_20 
REMARK   12  A    between atoms: C_21  and  O_22 
ROOT
HETATM    1  O   UNK N   1      30.314  15.974   6.260  0.00  0.00    -0.348 OA
ENDROOT
BRANCH   1   2
HETATM    2  C   UNK N   1      28.997  16.442   6.308  0.00  0.00     0.292 C 
HETATM    3  O   UNK N   1      29.032  17.852   6.304  0.00  0.00    -0.348 OA
HETATM    4  C   UNK N   1      27.730  18.308   6.566  0.00  0.00     0.179 C 
HETATM    5  C   UNK N   1      26.874  18.065   5.320  0.00  0.00     0.180 C 
HETATM    6  C   UNK N   1      26.827  16.556   5.075  0.00  0.00     0.183 C 
HETATM    7  C   UNK N   1      28.236  15.964   5.064  0.00  0.00     0.204 C 
BRANCH   4   8
HETATM    8  C   UNK N   1      27.780  19.789   6.909  0.00  0.00     0.198 C 
BRANCH   8   9
HETATM    9  O   UNK N   1      26.800  20.092   7.855  0.00  0.00    -0.398 OA
HETATM   10  H   UNK N   1      26.950  19.941   8.802  0.00  0.00     0.209 HD
ENDBRANCH   8   9
ENDBRANCH   4   8
BRANCH   5  11
HETATM   11  O   UNK N   1      25.581  18.551   5.512  0.00  0.00    -0.390 OA
HETATM   12  H   UNK N   1      24.722  18.199   5.230  0.00  0.00     0.210 HD
ENDBRANCH   5  11
BRANCH   6  13
HETATM   13  O   UNK N   1      26.185  16.288   3.865  0.00  0.00    -0.390 OA
HETATM   14  H   UNK N   1      25.932  15.385   3.620  0.00  0.00     0.210 HD
ENDBRANCH   6  13
BRANCH   7  15
HETATM   15  O   UNK N   1      28.161  14.569   5.052  0.00  0.00    -0.388 OA
HETATM   16  H   UNK N   1      28.871  13.956   5.299  0.00  0.00     0.210 HD
ENDBRANCH   7  15
ENDBRANCH   1   2
BRANCH   1  17
HETATM   17  C   UNK N   1      31.167  17.055   6.538  0.00  0.00     0.187 C 
HETATM   18  C   UNK N   1      32.392  17.028   5.594  0.00  0.00     0.180 C 
HETATM   19  O   UNK N   1      33.311  18.022   5.975  0.00  0.00    -0.349 OA
HETATM   20  C   UNK N   1      33.887  17.590   7.176  0.00  0.00     0.288 C 
HETATM   21  C   UNK N   1      32.867  17.781   8.294  0.00  0.00     0.204 C 
HETATM   22  C   UNK N   1      31.663  16.891   7.983  0.00  0.00     0.183 C 
BRANCH  18  23
HETATM   23  C   UNK N   1      31.985  17.287   4.154  0.00  0.00     0.198 C 
BRANCH  23  24
HETATM   24  O   UNK N   1      30.896  18.157   4.112  0.00  0.00    -0.398 OA
HETATM   25  H   UNK N   1      30.543  18.592   4.903  0.00  0.00     0.209 HD
ENDBRANCH  23  24
ENDBRANCH  18  23
BRANCH  20  26
HETATM   26  O   UNK N   1      35.035  18.341   7.431  0.00  0.00    -0.369 OA
HETATM   27  H   UNK N   1      35.708  18.084   8.081  0.00  0.00     0.212 HD
ENDBRANCH  20  26
BRANCH  21  28
HETATM   28  O   UNK N   1      33.421  17.401   9.517  0.00  0.00    -0.388 OA
HETATM   29  H   UNK N   1      34.246  16.900   9.616  0.00  0.00     0.210 HD
ENDBRANCH  21  28
BRANCH  22  30
HETATM   30  O   UNK N   1      30.628  17.140   8.887  0.00  0.00    -0.390 OA
HETATM   31  H   UNK N   1      29.876  16.546   9.032  0.00  0.00     0.210 HD
ENDBRANCH  22  30
ENDBRANCH   1  17
TORSDOF 12
ENDMDL
MODEL 9
REMARK VINA RESULT:      -5.7      2.184      6.886
REMARK  12 active torsions:
REMARK  status: ('A' for Active; 'I' for Inactive)
REMARK    1  A    between atoms: O_1  and  C_2 
REMARK    2  A    between atoms: C_3  and  C_2 
REMARK    3  A    between atoms: C_5  and  O_23 
REMARK    4  A    between atoms: C_6  and  O_7 
REMARK    5  A    between atoms: C_8  and  O_9 
REMARK    6  A    between atoms: C_10  and  O_11 
REMARK    7  A    between atoms: C_12  and  O_23 
REMARK    8  A    between atoms: C_13  and  C_14 
REMARK    9  A    between atoms: C_14  and  O_15 
REMARK   10  A    between atoms: C_17  and  O_18 
REMARK   11  A    between atoms: C_19  and  O_20 
REMARK   12  A    between atoms: C_21  and  O_22 
ROOT
HETATM    1  O   UNK N   1      29.330  16.664   7.015  0.00  0.00    -0.348 OA
ENDROOT
BRANCH   1   2
HETATM    2  C   UNK N   1      30.723  16.558   6.951  0.00  0.00     0.292 C 
HETATM    3  O   UNK N   1      31.171  17.311   5.846  0.00  0.00    -0.348 OA
HETATM    4  C   UNK N   1      32.534  17.028   5.664  0.00  0.00     0.179 C 
HETATM    5  C   UNK N   1      33.322  17.714   6.784  0.00  0.00     0.180 C 
HETATM    6  C   UNK N   1      32.866  17.108   8.113  0.00  0.00     0.183 C 
HETATM    7  C   UNK N   1      31.342  17.141   8.229  0.00  0.00     0.204 C 
BRANCH   4   8
HETATM    8  C   UNK N   1      32.974  17.539   4.301  0.00  0.00     0.198 C 
BRANCH   8   9
HETATM    9  O   UNK N   1      31.856  17.862   3.531  0.00  0.00    -0.398 OA
HETATM   10  H   UNK N   1      31.125  17.233   3.417  0.00  0.00     0.209 HD
ENDBRANCH   8   9
ENDBRANCH   4   8
BRANCH   5  11
HETATM   11  O   UNK N   1      34.692  17.505   6.618  0.00  0.00    -0.390 OA
HETATM   12  H   UNK N   1      35.393  17.347   7.268  0.00  0.00     0.210 HD
ENDBRANCH   5  11
BRANCH   6  13
HETATM   13  O   UNK N   1      33.443  17.802   9.177  0.00  0.00    -0.390 OA
HETATM   14  H   UNK N   1      33.755  18.714   9.072  0.00  0.00     0.210 HD
ENDBRANCH   6  13
BRANCH   7  15
HETATM   15  O   UNK N   1      30.938  16.399   9.341  0.00  0.00    -0.388 OA
HETATM   16  H   UNK N   1      30.340  16.700  10.043  0.00  0.00     0.210 HD
ENDBRANCH   7  15
ENDBRANCH   1   2
BRANCH   1  17
HETATM   17  C   UNK N   1      28.957  17.847   6.355  0.00  0.00     0.187 C 
HETATM   18  C   UNK N   1      27.994  18.673   7.240  0.00  0.00     0.180 C 
HETATM   19  O   UNK N   1      27.508  19.777   6.517  0.00  0.00    -0.349 OA
HETATM   20  C   UNK N   1      26.623  19.266   5.559  0.00  0.00     0.288 C 
HETATM   21  C   UNK N   1      27.441  18.608   4.452  0.00  0.00     0.204 C 
HETATM   22  C   UNK N   1      28.214  17.444   5.072  0.00  0.00     0.183 C 
BRANCH  18  23
HETATM   23  C   UNK N   1      28.694  19.192   8.482  0.00  0.00     0.198 C 
BRANCH  23  24
HETATM   24  O   UNK N   1      28.434  18.355   9.566  0.00  0.00    -0.398 OA
HETATM   25  H   UNK N   1      27.542  18.047   9.787  0.00  0.00     0.209 HD
ENDBRANCH  23  24
ENDBRANCH  18  23
BRANCH  20  26
HETATM   26  O   UNK N   1      25.854  20.309   5.042  0.00  0.00    -0.369 OA
HETATM   27  H   UNK N   1      25.626  21.105   5.546  0.00  0.00     0.212 HD
ENDBRANCH  20  26
BRANCH  21  28
HETATM   28  O   UNK N   1      26.594  18.124   3.454  0.00  0.00    -0.388 OA
HETATM   29  H   UNK N   1      25.689  17.809   3.606  0.00  0.00     0.210 HD
ENDBRANCH  21  28
BRANCH  22  30
HETATM   30  O   UNK N   1      29.102  16.899   4.142  0.00  0.00    -0.390 OA
HETATM   31  H   UNK N   1      29.162  17.180   3.216  0.00  0.00     0.210 HD
ENDBRANCH  22  30
ENDBRANCH   1  17
TORSDOF 12
ENDMDL
