MODEL 1
REMARK VINA RESULT:      -7.5      0.000      0.000
REMARK  32 active torsions:
REMARK  status: ('A' for Active; 'I' for Inactive)
REMARK    1  A    between atoms: C_11  and  C_10 
REMARK    2  A    between atoms: C_18  and  C_10 
REMARK    3  A    between atoms: C_23  and  C_11 
REMARK    4  A    between atoms: C_43  and  C_18 
REMARK    5  A    between atoms: N_58  and  C_23 
REMARK    6  A    between atoms: C_33  and  C_24 
REMARK    7  A    between atoms: C_40  and  C_24 
REMARK    8  A    between atoms: C_34  and  C_25 
REMARK    9  A    between atoms: C_45  and  C_25 
REMARK   10  A    between atoms: C_35  and  C_26 
REMARK   11  A    between atoms: C_44  and  C_26 
REMARK   12  A    between atoms: C_36  and  C_27 
REMARK   13  A    between atoms: C_46  and  C_27 
REMARK   14  A    between atoms: C_49  and  C_32 
REMARK   15  A    between atoms: O_78  and  C_37 
REMARK   16  A    between atoms: C_51  and  C_40 
REMARK   17  A    between atoms: C_40  and  N_59 
REMARK   18  A    between atoms: C_50  and  C_44 
REMARK   19  A    between atoms: C_44  and  N_66 
REMARK   20  A    between atoms: C_47  and  N_72 
REMARK   21  A    between atoms: C_48  and  C_55 
REMARK   22  A    between atoms: N_60  and  C_50 
REMARK   23  A    between atoms: O_79  and  C_50 
REMARK   24  A    between atoms: N_72  and  C_51 
REMARK   25  A    between atoms: C_51  and  O_80 
REMARK   26  A    between atoms: C_52  and  O_81 
REMARK   27  A    between atoms: C_53  and  O_82 
REMARK   28  A    between atoms: C_54  and  O_83 
REMARK   29  A    between atoms: N_66  and  C_55 
REMARK   30  A    between atoms: C_55  and  O_84 
REMARK   31  A    between atoms: C_56  and  O_85 
REMARK   32  A    between atoms: C_57  and  O_86 
ROOT
HETATM    1  C   UNK N   1      24.214  18.077   3.085  0.00  0.00     0.119 C 
HETATM    2  C   UNK N   1      26.580  17.099   4.891  0.00  0.00     0.119 C 
HETATM    3  C   UNK N   1      28.982  11.487   2.482  0.00  0.00     0.158 C 
HETATM    4  C   UNK N   1      23.747  14.382   5.599  0.00  0.00     0.162 C 
HETATM    5  C   UNK N   1      25.282  11.664   3.400  0.00  0.00     0.162 C 
HETATM    6  C   UNK N   1      22.956  17.693   3.878  0.00  0.00     0.168 C 
HETATM    7  C   UNK N   1      27.815  16.787   5.735  0.00  0.00     0.168 C 
HETATM    8  C   UNK N   1      29.557  14.090   3.743  0.00  0.00     0.161 C 
HETATM    9  C   UNK N   1      29.308  12.758   1.708  0.00  0.00     0.135 C 
HETATM   10  C   UNK N   1      24.012  13.075   4.872  0.00  0.00     0.135 C 
HETATM   11  C   UNK N   1      26.552  11.670   2.583  0.00  0.00     0.135 C 
HETATM   12  C   UNK N   1      23.208  16.670   4.972  0.00  0.00     0.136 C 
HETATM   13  C   UNK N   1      28.789  15.337   4.062  0.00  0.00     0.135 C 
HETATM   14  N   UNK N   1      27.702  11.590   3.173  0.00  0.00    -0.361 N 
ATOM     15  HN  UNK N   1      27.713  11.598   4.193  1.00  0.00     0.162 HD
HETATM   16  N   UNK N   1      23.593  15.473   4.643  0.00  0.00    -0.360 N 
ATOM     17  HN  UNK N   1      23.800  15.287   3.661  1.00  0.00     0.162 HD
HETATM   18  N   UNK N   1      25.078  12.901   4.148  0.00  0.00    -0.360 N 
ATOM     19  HN  UNK N   1      25.782  13.639   4.103  1.00  0.00     0.162 HD
HETATM   20  N   UNK N   1      28.457  15.574   5.289  0.00  0.00    -0.360 N 
ATOM     21  HN  UNK N   1      28.661  14.857   5.986  1.00  0.00     0.162 HD
HETATM   22  N   UNK N   1      29.575  13.877   2.303  0.00  0.00    -0.360 N 
ATOM     23  HN  UNK N   1      29.818  14.674   1.715  1.00  0.00     0.162 HD
HETATM   24  S   UNK N   1      25.270  19.424   3.730  0.00  0.00    -0.095 SA
HETATM   25  S   UNK N   1      25.707  18.510   5.605  0.00  0.00    -0.095 SA
ENDROOT
BRANCH   7  26
HETATM   26  C   UNK N   1      28.842  17.887   5.760  0.00  0.00     0.136 C 
BRANCH  26  27
HETATM   27  N   UNK N   1      29.366  18.273   6.877  0.00  0.00    -0.360 N 
ATOM     28  HN  UNK N   1      29.783  19.204   6.912  1.00  0.00     0.162 HD
BRANCH  27  29
HETATM   29  C   UNK N   1      29.397  17.468   8.083  0.00  0.00     0.161 C 
BRANCH  29  30
HETATM   30  C   UNK N   1      30.751  17.632   8.797  0.00  0.00     0.074 C 
BRANCH  30  31
HETATM   31  C   UNK N   1      31.713  16.536   8.449  0.00  0.00    -0.028 A 
HETATM   32  C   UNK N   1      31.912  15.372   9.185  0.00  0.00     0.096 A 
HETATM   33  N   UNK N   1      32.868  14.614   8.590  0.00  0.00    -0.365 N 
HETATM   34  C   UNK N   1      33.258  15.295   7.496  0.00  0.00     0.042 A 
HETATM   35  H   UNK N   1      33.206  13.742   8.894  0.00  0.00     0.165 HD
HETATM   36  C   UNK N   1      34.224  14.911   6.572  0.00  0.00     0.030 A 
HETATM   37  C   UNK N   1      32.573  16.472   7.379  0.00  0.00    -0.002 A 
HETATM   38  C   UNK N   1      34.481  15.778   5.494  0.00  0.00     0.002 A 
HETATM   39  C   UNK N   1      33.772  16.995   5.371  0.00  0.00     0.001 A 
HETATM   40  C   UNK N   1      32.803  17.353   6.326  0.00  0.00     0.014 A 
ENDBRANCH  30  31
ENDBRANCH  29  30
BRANCH  29  41
HETATM   41  C   UNK N   1      28.217  17.802   8.971  0.00  0.00     0.132 C 
BRANCH  41  42
HETATM   42  N   UNK N   1      27.605  18.925   8.864  0.00  0.00    -0.382 N 
HETATM   43  H   UNK N   1      27.837  19.882   8.885  0.00  0.00     0.158 HD
ATOM     44  HN  UNK N   1      26.605  18.790   8.717  1.00  0.00     0.158 HD
ENDBRANCH  41  42
BRANCH  41  45
HETATM   45  O   UNK N   1      27.791  16.899   9.876  0.00  0.00    -0.348 OA
HETATM   46  H   UNK N   1      27.971  16.686  10.770  0.00  0.00     0.219 HD
ENDBRANCH  41  45
ENDBRANCH  29  41
ENDBRANCH  27  29
ENDBRANCH  26  27
BRANCH  26  47
HETATM   47  O   UNK N   1      29.192  18.471   4.595  0.00  0.00    -0.348 OA
HETATM   48  H   UNK N   1      29.551  19.267   4.255  0.00  0.00     0.219 HD
ENDBRANCH  26  47
ENDBRANCH   7  26
BRANCH  13  49
HETATM   49  O   UNK N   1      28.464  16.200   3.073  0.00  0.00    -0.348 OA
HETATM   50  H   UNK N   1      28.285  17.057   2.739  0.00  0.00     0.219 HD
ENDBRANCH  13  49
BRANCH   8  51
HETATM   51  C   UNK N   1      31.006  14.170   4.261  0.00  0.00     0.008 C 
HETATM   52  C   UNK N   1      31.466  12.869   4.904  0.00  0.00     0.012 C 
HETATM   53  C   UNK N   1      31.995  14.587   3.184  0.00  0.00     0.012 C 
ENDBRANCH   8  51
BRANCH   6  54
HETATM   54  N   UNK N   1      22.103  18.828   4.231  0.00  0.00    -0.360 N 
ATOM     55  HN  UNK N   1      22.276  19.240   5.149  1.00  0.00     0.162 HD
BRANCH  54  56
HETATM   56  C   UNK N   1      21.157  19.385   3.539  0.00  0.00     0.135 C 
BRANCH  56  57
HETATM   57  C   UNK N   1      20.763  18.801   2.217  0.00  0.00     0.153 C 
BRANCH  57  58
HETATM   58  C   UNK N   1      19.636  17.782   2.384  0.00  0.00     0.071 C 
BRANCH  58  59
HETATM   59  C   UNK N   1      20.136  16.373   2.321  0.00  0.00    -0.056 A 
HETATM   60  C   UNK N   1      20.771  15.879   1.175  0.00  0.00     0.007 A 
HETATM   61  C   UNK N   1      21.224  14.553   1.145  0.00  0.00     0.001 A 
HETATM   62  C   UNK N   1      21.038  13.724   2.256  0.00  0.00     0.000 A 
HETATM   63  C   UNK N   1      20.406  14.219   3.399  0.00  0.00     0.001 A 
HETATM   64  C   UNK N   1      19.960  15.543   3.432  0.00  0.00     0.007 A 
ENDBRANCH  58  59
ENDBRANCH  57  58
BRANCH  57  65
HETATM   65  N   UNK N   1      20.302  19.872   1.351  0.00  0.00    -0.419 N 
HETATM   66  H   UNK N   1      19.954  20.742   1.754  0.00  0.00     0.150 HD
HETATM   67  H   UNK N   1      20.326  19.754   0.339  0.00  0.00     0.150 HD
ENDBRANCH  57  65
ENDBRANCH  56  57
BRANCH  56  68
HETATM   68  O   UNK N   1      20.499  20.470   3.979  0.00  0.00    -0.348 OA
HETATM   69  H   UNK N   1      19.661  20.867   4.113  0.00  0.00     0.219 HD
ENDBRANCH  56  68
ENDBRANCH  54  56
ENDBRANCH   6  54
BRANCH   9  70
HETATM   70  O   UNK N   1      29.383  12.712   0.362  0.00  0.00    -0.348 OA
HETATM   71  H   UNK N   1      29.301  12.957  -0.539  0.00  0.00     0.219 HD
ENDBRANCH   9  70
BRANCH  12  72
HETATM   72  O   UNK N   1      22.922  16.957   6.260  0.00  0.00    -0.348 OA
HETATM   73  H   UNK N   1      23.235  17.152   7.121  0.00  0.00     0.219 HD
ENDBRANCH  12  72
BRANCH   3  74
HETATM   74  C   UNK N   1      29.019  10.218   1.620  0.00  0.00     0.033 C 
BRANCH  74  75
HETATM   75  C   UNK N   1      29.173   8.971   2.485  0.00  0.00     0.004 C 
BRANCH  75  76
HETATM   76  C   UNK N   1      30.436   9.050   3.323  0.00  0.00     0.019 C 
BRANCH  76  77
HETATM   77  C   UNK N   1      30.168   8.577   4.744  0.00  0.00     0.111 C 
BRANCH  77  78
HETATM   78  N   UNK N   1      29.718   9.685   5.569  0.00  0.00    -0.430 N 
HETATM   79  H   UNK N   1      29.932  10.023   6.506  0.00  0.00     0.149 HD
HETATM   80  H   UNK N   1      29.021  10.261   5.097  0.00  0.00     0.149 HD
ENDBRANCH  77  78
ENDBRANCH  76  77
ENDBRANCH  75  76
ENDBRANCH  74  75
ENDBRANCH   3  74
BRANCH   4  81
HETATM   81  C   UNK N   1      22.477  14.254   6.489  0.00  0.00     0.072 C 
BRANCH  81  82
HETATM   82  C   UNK N   1      22.696  13.735   7.890  0.00  0.00    -0.056 A 
HETATM   83  C   UNK N   1      21.622  13.578   8.778  0.00  0.00     0.010 A 
HETATM   84  C   UNK N   1      21.834  13.124  10.079  0.00  0.00     0.037 A 
HETATM   85  C   UNK N   1      23.129  12.837  10.511  0.00  0.00     0.065 A 
HETATM   86  C   UNK N   1      24.209  13.002   9.638  0.00  0.00     0.037 A 
HETATM   87  C   UNK N   1      23.994  13.452   8.331  0.00  0.00     0.010 A 
BRANCH  85  88
HETATM   88  O   UNK N   1      23.335  12.406  11.765  0.00  0.00    -0.361 OA
HETATM   89  H   UNK N   1      23.829  12.777  12.469  0.00  0.00     0.217 HD
ENDBRANCH  85  88
ENDBRANCH  81  82
ENDBRANCH   4  81
BRANCH  11  90
HETATM   90  O   UNK N   1      26.469  11.663   1.236  0.00  0.00    -0.348 OA
HETATM   91  H   UNK N   1      26.470  11.882   0.324  0.00  0.00     0.219 HD
ENDBRANCH  11  90
BRANCH  10  92
HETATM   92  O   UNK N   1      23.109  12.075   4.981  0.00  0.00    -0.348 OA
HETATM   93  H   UNK N   1      23.376  11.220   5.256  0.00  0.00     0.219 HD
ENDBRANCH  10  92
BRANCH   5  94
HETATM   94  C   UNK N   1      25.314  10.450   4.346  0.00  0.00     0.074 C 
BRANCH  94  95
HETATM   95  C   UNK N   1      25.049   9.172   3.619  0.00  0.00    -0.028 A 
HETATM   96  C   UNK N   1      24.144   8.972   2.583  0.00  0.00     0.096 A 
HETATM   97  N   UNK N   1      24.198   7.675   2.182  0.00  0.00    -0.365 N 
HETATM   98  C   UNK N   1      25.128   7.082   2.955  0.00  0.00     0.042 A 
HETATM   99  H   UNK N   1      23.665   7.253   1.470  0.00  0.00     0.165 HD
HETATM  100  C   UNK N   1      25.537   5.752   2.909  0.00  0.00     0.030 A 
HETATM  101  C   UNK N   1      25.667   7.969   3.840  0.00  0.00    -0.002 A 
HETATM  102  C   UNK N   1      26.538   5.343   3.812  0.00  0.00     0.002 A 
HETATM  103  C   UNK N   1      27.098   6.264   4.727  0.00  0.00     0.001 A 
HETATM  104  C   UNK N   1      26.658   7.599   4.746  0.00  0.00     0.014 A 
ENDBRANCH  94  95
ENDBRANCH   5  94
TORSDOF 32
ENDMDL
MODEL 2
REMARK VINA RESULT:      -7.4      1.602      2.342
REMARK  32 active torsions:
REMARK  status: ('A' for Active; 'I' for Inactive)
REMARK    1  A    between atoms: C_11  and  C_10 
REMARK    2  A    between atoms: C_18  and  C_10 
REMARK    3  A    between atoms: C_23  and  C_11 
REMARK    4  A    between atoms: C_43  and  C_18 
REMARK    5  A    between atoms: N_58  and  C_23 
REMARK    6  A    between atoms: C_33  and  C_24 
REMARK    7  A    between atoms: C_40  and  C_24 
REMARK    8  A    between atoms: C_34  and  C_25 
REMARK    9  A    between atoms: C_45  and  C_25 
REMARK   10  A    between atoms: C_35  and  C_26 
REMARK   11  A    between atoms: C_44  and  C_26 
REMARK   12  A    between atoms: C_36  and  C_27 
REMARK   13  A    between atoms: C_46  and  C_27 
REMARK   14  A    between atoms: C_49  and  C_32 
REMARK   15  A    between atoms: O_78  and  C_37 
REMARK   16  A    between atoms: C_51  and  C_40 
REMARK   17  A    between atoms: C_40  and  N_59 
REMARK   18  A    between atoms: C_50  and  C_44 
REMARK   19  A    between atoms: C_44  and  N_66 
REMARK   20  A    between atoms: C_47  and  N_72 
REMARK   21  A    between atoms: C_48  and  C_55 
REMARK   22  A    between atoms: N_60  and  C_50 
REMARK   23  A    between atoms: O_79  and  C_50 
REMARK   24  A    between atoms: N_72  and  C_51 
REMARK   25  A    between atoms: C_51  and  O_80 
REMARK   26  A    between atoms: C_52  and  O_81 
REMARK   27  A    between atoms: C_53  and  O_82 
REMARK   28  A    between atoms: C_54  and  O_83 
REMARK   29  A    between atoms: N_66  and  C_55 
REMARK   30  A    between atoms: C_55  and  O_84 
REMARK   31  A    between atoms: C_56  and  O_85 
REMARK   32  A    between atoms: C_57  and  O_86 
ROOT
HETATM    1  C   UNK N   1      24.519  16.496   2.976  0.00  0.00     0.119 C 
HETATM    2  C   UNK N   1      27.047  16.068   4.778  0.00  0.00     0.119 C 
HETATM    3  C   UNK N   1      30.348  10.799   2.678  0.00  0.00     0.158 C 
HETATM    4  C   UNK N   1      24.739  12.960   5.739  0.00  0.00     0.162 C 
HETATM    5  C   UNK N   1      26.688  10.400   3.684  0.00  0.00     0.162 C 
HETATM    6  C   UNK N   1      23.359  15.958   3.827  0.00  0.00     0.168 C 
HETATM    7  C   UNK N   1      28.329  16.033   5.606  0.00  0.00     0.168 C 
HETATM    8  C   UNK N   1      30.482  13.544   3.749  0.00  0.00     0.161 C 
HETATM    9  C   UNK N   1      30.437  12.051   1.814  0.00  0.00     0.135 C 
HETATM   10  C   UNK N   1      25.215  11.671   5.093  0.00  0.00     0.135 C 
HETATM   11  C   UNK N   1      27.925  10.568   2.834  0.00  0.00     0.135 C 
HETATM   12  C   UNK N   1      23.801  15.072   4.979  0.00  0.00     0.136 C 
HETATM   13  C   UNK N   1      29.515  14.660   4.007  0.00  0.00     0.135 C 
HETATM   14  N   UNK N   1      29.081  10.728   3.396  0.00  0.00    -0.361 N 
ATOM     15  HN  UNK N   1      29.106  10.810   4.412  1.00  0.00     0.162 HD
HETATM   16  N   UNK N   1      24.383  13.940   4.718  0.00  0.00    -0.360 N 
ATOM     17  HN  UNK N   1      24.605  13.724   3.746  1.00  0.00     0.162 HD
HETATM   18  N   UNK N   1      26.285  11.633   4.354  0.00  0.00    -0.360 N 
ATOM     19  HN  UNK N   1      26.849  12.476   4.241  1.00  0.00     0.162 HD
HETATM   20  N   UNK N   1      29.165  14.920   5.224  0.00  0.00    -0.360 N 
ATOM     21  HN  UNK N   1      29.502  14.299   5.961  1.00  0.00     0.162 HD
HETATM   22  N   UNK N   1      30.515  13.238   2.327  0.00  0.00    -0.360 N 
ATOM     23  HN  UNK N   1      30.606  14.022   1.681  1.00  0.00     0.162 HD
HETATM   24  S   UNK N   1      25.335  18.046   3.502  0.00  0.00    -0.095 SA
HETATM   25  S   UNK N   1      25.952  17.354   5.421  0.00  0.00    -0.095 SA
ENDROOT
BRANCH   7  26
HETATM   26  C   UNK N   1      29.150  17.292   5.531  0.00  0.00     0.136 C 
BRANCH  26  27
HETATM   27  N   UNK N   1      29.530  17.896   6.609  0.00  0.00    -0.360 N 
ATOM     28  HN  UNK N   1      29.944  18.824   6.516  1.00  0.00     0.162 HD
BRANCH  27  29
HETATM   29  C   UNK N   1      29.404  17.337   7.942  0.00  0.00     0.161 C 
BRANCH  29  30
HETATM   30  C   UNK N   1      30.682  17.612   8.756  0.00  0.00     0.074 C 
BRANCH  30  31
HETATM   31  C   UNK N   1      31.714  16.540   8.572  0.00  0.00    -0.028 A 
HETATM   32  C   UNK N   1      31.889  15.437   9.401  0.00  0.00     0.096 A 
HETATM   33  N   UNK N   1      32.925  14.685   8.948  0.00  0.00    -0.365 N 
HETATM   34  C   UNK N   1      33.387  15.311   7.850  0.00  0.00     0.042 A 
HETATM   35  H   UNK N   1      33.267  13.851   9.342  0.00  0.00     0.165 HD
HETATM   36  C   UNK N   1      34.449  14.910   7.045  0.00  0.00     0.030 A 
HETATM   37  C   UNK N   1      32.671  16.445   7.591  0.00  0.00    -0.002 A 
HETATM   38  C   UNK N   1      34.771  15.716   5.937  0.00  0.00     0.002 A 
HETATM   39  C   UNK N   1      34.030  16.889   5.667  0.00  0.00     0.001 A 
HETATM   40  C   UNK N   1      32.963  17.265   6.504  0.00  0.00     0.014 A 
ENDBRANCH  30  31
ENDBRANCH  29  30
BRANCH  29  41
HETATM   41  C   UNK N   1      28.153  17.857   8.616  0.00  0.00     0.132 C 
BRANCH  41  42
HETATM   42  N   UNK N   1      27.775  19.074   8.463  0.00  0.00    -0.382 N 
HETATM   43  H   UNK N   1      27.773  19.748   7.744  0.00  0.00     0.158 HD
ATOM     44  HN  UNK N   1      27.362  19.445   9.318  1.00  0.00     0.158 HD
ENDBRANCH  41  42
BRANCH  41  45
HETATM   45  O   UNK N   1      27.413  17.025   9.374  0.00  0.00    -0.348 OA
HETATM   46  H   UNK N   1      26.608  16.554   9.291  0.00  0.00     0.219 HD
ENDBRANCH  41  45
ENDBRANCH  29  41
ENDBRANCH  27  29
ENDBRANCH  26  27
BRANCH  26  47
HETATM   47  O   UNK N   1      29.467  17.785   4.316  0.00  0.00    -0.348 OA
HETATM   48  H   UNK N   1      29.353  17.608   3.402  0.00  0.00     0.219 HD
ENDBRANCH  26  47
ENDBRANCH   7  26
BRANCH  13  49
HETATM   49  O   UNK N   1      29.029  15.383   2.972  0.00  0.00    -0.348 OA
HETATM   50  H   UNK N   1      28.827  16.189   2.540  0.00  0.00     0.219 HD
ENDBRANCH  13  49
BRANCH   8  51
HETATM   51  C   UNK N   1      31.903  13.908   4.221  0.00  0.00     0.008 C 
HETATM   52  C   UNK N   1      32.655  12.708   4.780  0.00  0.00     0.012 C 
HETATM   53  C   UNK N   1      32.734  14.572   3.135  0.00  0.00     0.012 C 
ENDBRANCH   8  51
BRANCH   6  54
HETATM   54  N   UNK N   1      22.327  16.951   4.128  0.00  0.00    -0.360 N 
ATOM     55  HN  UNK N   1      22.633  17.748   4.686  1.00  0.00     0.162 HD
BRANCH  54  56
HETATM   56  C   UNK N   1      21.077  16.959   3.781  0.00  0.00     0.135 C 
BRANCH  56  57
HETATM   57  C   UNK N   1      20.231  15.748   4.027  0.00  0.00     0.153 C 
BRANCH  57  58
HETATM   58  C   UNK N   1      19.208  16.012   5.132  0.00  0.00     0.071 C 
BRANCH  58  59
HETATM   59  C   UNK N   1      19.765  15.738   6.493  0.00  0.00    -0.056 A 
HETATM   60  C   UNK N   1      19.886  16.757   7.446  0.00  0.00     0.007 A 
HETATM   61  C   UNK N   1      20.417  16.470   8.711  0.00  0.00     0.001 A 
HETATM   62  C   UNK N   1      20.828  15.170   9.020  0.00  0.00     0.000 A 
HETATM   63  C   UNK N   1      20.705  14.154   8.069  0.00  0.00     0.001 A 
HETATM   64  C   UNK N   1      20.170  14.438   6.810  0.00  0.00     0.007 A 
ENDBRANCH  58  59
ENDBRANCH  57  58
BRANCH  57  65
HETATM   65  N   UNK N   1      19.523  15.415   2.803  0.00  0.00    -0.419 N 
HETATM   66  H   UNK N   1      19.517  14.454   2.462  0.00  0.00     0.150 HD
HETATM   67  H   UNK N   1      19.032  16.142   2.285  0.00  0.00     0.150 HD
ENDBRANCH  57  65
ENDBRANCH  56  57
BRANCH  56  68
HETATM   68  O   UNK N   1      20.503  18.036   3.218  0.00  0.00    -0.348 OA
HETATM   69  H   UNK N   1      20.547  18.664   2.525  0.00  0.00     0.219 HD
ENDBRANCH  56  68
ENDBRANCH  54  56
ENDBRANCH   6  54
BRANCH   9  70
HETATM   70  O   UNK N   1      30.498  11.925   0.473  0.00  0.00    -0.348 OA
HETATM   71  H   UNK N   1      30.306  11.645  -0.401  0.00  0.00     0.219 HD
ENDBRANCH   9  70
BRANCH  12  72
HETATM   72  O   UNK N   1      23.490  15.394   6.252  0.00  0.00    -0.348 OA
HETATM   73  H   UNK N   1      22.833  15.633   6.875  0.00  0.00     0.219 HD
ENDBRANCH  12  72
BRANCH   3  74
HETATM   74  C   UNK N   1      30.592   9.499   1.901  0.00  0.00     0.033 C 
BRANCH  74  75
HETATM   75  C   UNK N   1      30.621   8.297   2.839  0.00  0.00     0.004 C 
BRANCH  75  76
HETATM   76  C   UNK N   1      31.430   8.606   4.085  0.00  0.00     0.019 C 
BRANCH  76  77
HETATM   77  C   UNK N   1      30.714   8.101   5.329  0.00  0.00     0.111 C 
BRANCH  77  78
HETATM   78  N   UNK N   1      30.389   9.210   6.209  0.00  0.00    -0.430 N 
HETATM   79  H   UNK N   1      29.717   9.978   6.190  0.00  0.00     0.149 HD
HETATM   80  H   UNK N   1      30.971   9.225   7.046  0.00  0.00     0.149 HD
ENDBRANCH  77  78
ENDBRANCH  76  77
ENDBRANCH  75  76
ENDBRANCH  74  75
ENDBRANCH   3  74
BRANCH   4  81
HETATM   81  C   UNK N   1      23.525  12.677   6.671  0.00  0.00     0.072 C 
BRANCH  81  82
HETATM   82  C   UNK N   1      23.830  12.553   8.144  0.00  0.00    -0.056 A 
HETATM   83  C   UNK N   1      24.868  13.290   8.731  0.00  0.00     0.010 A 
HETATM   84  C   UNK N   1      25.162  13.151  10.087  0.00  0.00     0.037 A 
HETATM   85  C   UNK N   1      24.428  12.257  10.867  0.00  0.00     0.065 A 
HETATM   86  C   UNK N   1      23.399  11.507  10.289  0.00  0.00     0.037 A 
HETATM   87  C   UNK N   1      23.102  11.653   8.930  0.00  0.00     0.010 A 
BRANCH  85  88
HETATM   88  O   UNK N   1      24.714  12.117  12.171  0.00  0.00    -0.361 OA
HETATM   89  H   UNK N   1      25.261  11.501  12.618  0.00  0.00     0.217 HD
ENDBRANCH  85  88
ENDBRANCH  81  82
ENDBRANCH   4  81
BRANCH  11  90
HETATM   90  O   UNK N   1      27.824  10.453   1.492  0.00  0.00    -0.348 OA
HETATM   91  H   UNK N   1      27.889  10.187   0.596  0.00  0.00     0.219 HD
ENDBRANCH  11  90
BRANCH  10  92
HETATM   92  O   UNK N   1      24.502  10.540   5.293  0.00  0.00    -0.348 OA
HETATM   93  H   UNK N   1      24.236  10.009   4.568  0.00  0.00     0.219 HD
ENDBRANCH  10  92
BRANCH   5  94
HETATM   94  C   UNK N   1      26.945   9.279   4.706  0.00  0.00     0.074 C 
BRANCH  94  95
HETATM   95  C   UNK N   1      26.286   7.999   4.304  0.00  0.00    -0.028 A 
HETATM   96  C   UNK N   1      26.289   7.418   3.042  0.00  0.00     0.096 A 
HETATM   97  N   UNK N   1      25.584   6.258   3.079  0.00  0.00    -0.365 N 
HETATM   98  C   UNK N   1      25.157   6.119   4.348  0.00  0.00     0.042 A 
HETATM   99  H   UNK N   1      25.419   5.641   2.329  0.00  0.00     0.165 HD
HETATM  100  C   UNK N   1      24.397   5.076   4.872  0.00  0.00     0.030 A 
HETATM  101  C   UNK N   1      25.570   7.164   5.121  0.00  0.00    -0.002 A 
HETATM  102  C   UNK N   1      24.065   5.129   6.240  0.00  0.00     0.002 A 
HETATM  103  C   UNK N   1      24.497   6.211   7.040  0.00  0.00     0.001 A 
HETATM  104  C   UNK N   1      25.261   7.248   6.477  0.00  0.00     0.014 A 
ENDBRANCH  94  95
ENDBRANCH   5  94
TORSDOF 32
ENDMDL
MODEL 3
REMARK VINA RESULT:      -7.1      1.989      3.036
REMARK  32 active torsions:
REMARK  status: ('A' for Active; 'I' for Inactive)
REMARK    1  A    between atoms: C_11  and  C_10 
REMARK    2  A    between atoms: C_18  and  C_10 
REMARK    3  A    between atoms: C_23  and  C_11 
REMARK    4  A    between atoms: C_43  and  C_18 
REMARK    5  A    between atoms: N_58  and  C_23 
REMARK    6  A    between atoms: C_33  and  C_24 
REMARK    7  A    between atoms: C_40  and  C_24 
REMARK    8  A    between atoms: C_34  and  C_25 
REMARK    9  A    between atoms: C_45  and  C_25 
REMARK   10  A    between atoms: C_35  and  C_26 
REMARK   11  A    between atoms: C_44  and  C_26 
REMARK   12  A    between atoms: C_36  and  C_27 
REMARK   13  A    between atoms: C_46  and  C_27 
REMARK   14  A    between atoms: C_49  and  C_32 
REMARK   15  A    between atoms: O_78  and  C_37 
REMARK   16  A    between atoms: C_51  and  C_40 
REMARK   17  A    between atoms: C_40  and  N_59 
REMARK   18  A    between atoms: C_50  and  C_44 
REMARK   19  A    between atoms: C_44  and  N_66 
REMARK   20  A    between atoms: C_47  and  N_72 
REMARK   21  A    between atoms: C_48  and  C_55 
REMARK   22  A    between atoms: N_60  and  C_50 
REMARK   23  A    between atoms: O_79  and  C_50 
REMARK   24  A    between atoms: N_72  and  C_51 
REMARK   25  A    between atoms: C_51  and  O_80 
REMARK   26  A    between atoms: C_52  and  O_81 
REMARK   27  A    between atoms: C_53  and  O_82 
REMARK   28  A    between atoms: C_54  and  O_83 
REMARK   29  A    between atoms: N_66  and  C_55 
REMARK   30  A    between atoms: C_55  and  O_84 
REMARK   31  A    between atoms: C_56  and  O_85 
REMARK   32  A    between atoms: C_57  and  O_86 
ROOT
HETATM    1  C   UNK N   1      25.070  16.451   2.860  0.00  0.00     0.119 C 
HETATM    2  C   UNK N   1      27.506  16.096   4.799  0.00  0.00     0.119 C 
HETATM    3  C   UNK N   1      31.181  11.049   2.775  0.00  0.00     0.158 C 
HETATM    4  C   UNK N   1      25.302  12.856   5.545  0.00  0.00     0.162 C 
HETATM    5  C   UNK N   1      27.492  10.449   3.549  0.00  0.00     0.162 C 
HETATM    6  C   UNK N   1      23.890  15.835   3.626  0.00  0.00     0.168 C 
HETATM    7  C   UNK N   1      28.737  16.099   5.702  0.00  0.00     0.168 C 
HETATM    8  C   UNK N   1      31.116  13.767   3.918  0.00  0.00     0.161 C 
HETATM    9  C   UNK N   1      31.258  12.327   1.947  0.00  0.00     0.135 C 
HETATM   10  C   UNK N   1      25.878  11.609   4.897  0.00  0.00     0.135 C 
HETATM   11  C   UNK N   1      28.767  10.699   2.779  0.00  0.00     0.135 C 
HETATM   12  C   UNK N   1      24.307  14.940   4.780  0.00  0.00     0.136 C 
HETATM   13  C   UNK N   1      30.081  14.828   4.144  0.00  0.00     0.135 C 
HETATM   14  N   UNK N   1      29.878  10.899   3.413  0.00  0.00    -0.361 N 
ATOM     15  HN  UNK N   1      29.840  10.953   4.430  1.00  0.00     0.162 HD
HETATM   16  N   UNK N   1      24.959  13.845   4.528  0.00  0.00    -0.360 N 
ATOM     17  HN  UNK N   1      25.247  13.666   3.566  1.00  0.00     0.162 HD
HETATM   18  N   UNK N   1      26.989  11.642   4.223  0.00  0.00    -0.360 N 
ATOM     19  HN  UNK N   1      27.517  12.514   4.165  1.00  0.00     0.162 HD
HETATM   20  N   UNK N   1      29.649  15.038   5.343  0.00  0.00    -0.360 N 
ATOM     21  HN  UNK N   1      29.971  14.415   6.084  1.00  0.00     0.162 HD
HETATM   22  N   UNK N   1      31.247  13.502   2.493  0.00  0.00    -0.360 N 
ATOM     23  HN  UNK N   1      31.338  14.306   1.872  1.00  0.00     0.162 HD
HETATM   24  S   UNK N   1      25.777  18.024   3.471  0.00  0.00    -0.095 SA
HETATM   25  S   UNK N   1      26.314  17.310   5.406  0.00  0.00    -0.095 SA
ENDROOT
BRANCH   7  26
HETATM   26  C   UNK N   1      29.498  17.397   5.706  0.00  0.00     0.136 C 
BRANCH  26  27
HETATM   27  N   UNK N   1      29.839  17.958   6.821  0.00  0.00    -0.360 N 
ATOM     28  HN  UNK N   1      30.318  18.857   6.776  1.00  0.00     0.162 HD
BRANCH  27  29
HETATM   29  C   UNK N   1      29.581  17.388   8.130  0.00  0.00     0.161 C 
BRANCH  29  30
HETATM   30  C   UNK N   1      30.717  17.754   9.102  0.00  0.00     0.074 C 
BRANCH  30  31
HETATM   31  C   UNK N   1      32.066  17.378   8.566  0.00  0.00    -0.028 A 
HETATM   32  C   UNK N   1      32.975  18.254   7.982  0.00  0.00     0.096 A 
HETATM   33  N   UNK N   1      34.083  17.571   7.595  0.00  0.00    -0.365 N 
HETATM   34  C   UNK N   1      33.866  16.286   7.934  0.00  0.00     0.042 A 
HETATM   35  H   UNK N   1      34.882  17.939   7.156  0.00  0.00     0.165 HD
HETATM   36  C   UNK N   1      34.727  15.212   7.731  0.00  0.00     0.030 A 
HETATM   37  C   UNK N   1      32.646  16.133   8.530  0.00  0.00    -0.002 A 
HETATM   38  C   UNK N   1      34.302  13.942   8.164  0.00  0.00     0.002 A 
HETATM   39  C   UNK N   1      33.040  13.783   8.782  0.00  0.00     0.001 A 
HETATM   40  C   UNK N   1      32.194  14.892   8.969  0.00  0.00     0.014 A 
ENDBRANCH  30  31
ENDBRANCH  29  30
BRANCH  29  41
HETATM   41  C   UNK N   1      28.217  17.813   8.630  0.00  0.00     0.132 C 
BRANCH  41  42
HETATM   42  N   UNK N   1      27.788  19.009   8.451  0.00  0.00    -0.382 N 
HETATM   43  H   UNK N   1      27.000  19.542   8.703  0.00  0.00     0.158 HD
ATOM     44  HN  UNK N   1      28.443  19.558   7.895  1.00  0.00     0.158 HD
ENDBRANCH  41  42
BRANCH  41  45
HETATM   45  O   UNK N   1      27.432  16.916   9.259  0.00  0.00    -0.348 OA
HETATM   46  H   UNK N   1      27.230  16.005   9.177  0.00  0.00     0.219 HD
ENDBRANCH  41  45
ENDBRANCH  29  41
ENDBRANCH  27  29
ENDBRANCH  26  27
BRANCH  26  47
HETATM   47  O   UNK N   1      29.803  17.972   4.524  0.00  0.00    -0.348 OA
HETATM   48  H   UNK N   1      30.117  18.778   4.161  0.00  0.00     0.219 HD
ENDBRANCH  26  47
ENDBRANCH   7  26
BRANCH  13  49
HETATM   49  O   UNK N   1      29.622  15.555   3.100  0.00  0.00    -0.348 OA
HETATM   50  H   UNK N   1      29.013  16.141   2.694  0.00  0.00     0.219 HD
ENDBRANCH  13  49
BRANCH   8  51
HETATM   51  C   UNK N   1      32.487  14.186   4.483  0.00  0.00     0.008 C 
HETATM   52  C   UNK N   1      33.319  12.992   4.931  0.00  0.00     0.012 C 
HETATM   53  C   UNK N   1      33.291  15.035   3.512  0.00  0.00     0.012 C 
ENDBRANCH   8  51
BRANCH   6  54
HETATM   54  N   UNK N   1      22.795  16.769   3.888  0.00  0.00    -0.360 N 
ATOM     55  HN  UNK N   1      23.043  17.597   4.430  1.00  0.00     0.162 HD
BRANCH  54  56
HETATM   56  C   UNK N   1      21.552  16.692   3.526  0.00  0.00     0.135 C 
BRANCH  56  57
HETATM   57  C   UNK N   1      20.543  16.092   4.457  0.00  0.00     0.153 C 
BRANCH  57  58
HETATM   58  C   UNK N   1      20.670  16.689   5.858  0.00  0.00     0.071 C 
BRANCH  58  59
HETATM   59  C   UNK N   1      20.746  15.634   6.916  0.00  0.00    -0.056 A 
HETATM   60  C   UNK N   1      20.671  14.274   6.591  0.00  0.00     0.007 A 
HETATM   61  C   UNK N   1      20.740  13.310   7.605  0.00  0.00     0.001 A 
HETATM   62  C   UNK N   1      20.879  13.705   8.940  0.00  0.00     0.000 A 
HETATM   63  C   UNK N   1      20.955  15.062   9.262  0.00  0.00     0.001 A 
HETATM   64  C   UNK N   1      20.892  16.023   8.251  0.00  0.00     0.007 A 
ENDBRANCH  58  59
ENDBRANCH  57  58
BRANCH  57  65
HETATM   65  N   UNK N   1      19.212  16.370   3.948  0.00  0.00    -0.419 N 
HETATM   66  H   UNK N   1      18.668  15.628   3.507  0.00  0.00     0.150 HD
HETATM   67  H   UNK N   1      18.821  17.308   4.030  0.00  0.00     0.150 HD
ENDBRANCH  57  65
ENDBRANCH  56  57
BRANCH  56  68
HETATM   68  O   UNK N   1      21.128  17.152   2.336  0.00  0.00    -0.348 OA
HETATM   69  H   UNK N   1      21.378  17.544   1.524  0.00  0.00     0.219 HD
ENDBRANCH  56  68
ENDBRANCH  54  56
ENDBRANCH   6  54
BRANCH   9  70
HETATM   70  O   UNK N   1      31.404  12.240   0.610  0.00  0.00    -0.348 OA
HETATM   71  H   UNK N   1      31.374  11.906  -0.265  0.00  0.00     0.219 HD
ENDBRANCH   9  70
BRANCH  12  72
HETATM   72  O   UNK N   1      23.906  15.213   6.040  0.00  0.00    -0.348 OA
HETATM   73  H   UNK N   1      23.709  14.897   6.900  0.00  0.00     0.219 HD
ENDBRANCH  12  72
BRANCH   3  74
HETATM   74  C   UNK N   1      31.534   9.783   1.983  0.00  0.00     0.033 C 
BRANCH  74  75
HETATM   75  C   UNK N   1      32.663   9.012   2.656  0.00  0.00     0.004 C 
BRANCH  75  76
HETATM   76  C   UNK N   1      33.118   9.718   3.920  0.00  0.00     0.019 C 
BRANCH  76  77
HETATM   77  C   UNK N   1      34.279   8.974   4.563  0.00  0.00     0.111 C 
BRANCH  77  78
HETATM   78  N   UNK N   1      34.187   9.050   6.011  0.00  0.00    -0.430 N 
HETATM   79  H   UNK N   1      33.992   8.386   6.760  0.00  0.00     0.149 HD
HETATM   80  H   UNK N   1      34.361   9.992   6.361  0.00  0.00     0.149 HD
ENDBRANCH  77  78
ENDBRANCH  76  77
ENDBRANCH  75  76
ENDBRANCH  74  75
ENDBRANCH   3  74
BRANCH   4  81
HETATM   81  C   UNK N   1      24.050  12.490   6.394  0.00  0.00     0.072 C 
BRANCH  81  82
HETATM   82  C   UNK N   1      24.249  12.449   7.890  0.00  0.00    -0.056 A 
HETATM   83  C   UNK N   1      25.029  13.416   8.542  0.00  0.00     0.010 A 
HETATM   84  C   UNK N   1      25.230  13.357   9.920  0.00  0.00     0.037 A 
HETATM   85  C   UNK N   1      24.666  12.318  10.660  0.00  0.00     0.065 A 
HETATM   86  C   UNK N   1      23.897  11.341  10.019  0.00  0.00     0.037 A 
HETATM   87  C   UNK N   1      23.691  11.405   8.636  0.00  0.00     0.010 A 
BRANCH  85  88
HETATM   88  O   UNK N   1      24.865  12.257  11.986  0.00  0.00    -0.361 OA
HETATM   89  H   UNK N   1      24.545  12.796  12.682  0.00  0.00     0.217 HD
ENDBRANCH  85  88
ENDBRANCH  81  82
ENDBRANCH   4  81
BRANCH  11  90
HETATM   90  O   UNK N   1      28.751  10.615   1.431  0.00  0.00    -0.348 OA
HETATM   91  H   UNK N   1      28.600  10.743   0.515  0.00  0.00     0.219 HD
ENDBRANCH  11  90
BRANCH  10  92
HETATM   92  O   UNK N   1      25.210  10.441   5.026  0.00  0.00    -0.348 OA
HETATM   93  H   UNK N   1      24.596  10.167   4.374  0.00  0.00     0.219 HD
ENDBRANCH  10  92
BRANCH   5  94
HETATM   94  C   UNK N   1      27.743   9.314   4.557  0.00  0.00     0.074 C 
BRANCH  94  95
HETATM   95  C   UNK N   1      28.239   8.074   3.886  0.00  0.00    -0.028 A 
HETATM   96  C   UNK N   1      27.658   7.418   2.807  0.00  0.00     0.096 A 
HETATM   97  N   UNK N   1      28.409   6.333   2.483  0.00  0.00    -0.365 N 
HETATM   98  C   UNK N   1      29.443   6.322   3.344  0.00  0.00     0.042 A 
HETATM   99  H   UNK N   1      28.232   5.685   1.763  0.00  0.00     0.165 HD
HETATM  100  C   UNK N   1      30.484   5.399   3.398  0.00  0.00     0.030 A 
HETATM  101  C   UNK N   1      29.370   7.372   4.211  0.00  0.00    -0.002 A 
HETATM  102  C   UNK N   1      31.474   5.583   4.384  0.00  0.00     0.002 A 
HETATM  103  C   UNK N   1      31.398   6.674   5.279  0.00  0.00     0.001 A 
HETATM  104  C   UNK N   1      30.331   7.585   5.197  0.00  0.00     0.014 A 
ENDBRANCH  94  95
ENDBRANCH   5  94
TORSDOF 32
ENDMDL
MODEL 4
REMARK VINA RESULT:      -7.1      2.774      4.582
REMARK  32 active torsions:
REMARK  status: ('A' for Active; 'I' for Inactive)
REMARK    1  A    between atoms: C_11  and  C_10 
REMARK    2  A    between atoms: C_18  and  C_10 
REMARK    3  A    between atoms: C_23  and  C_11 
REMARK    4  A    between atoms: C_43  and  C_18 
REMARK    5  A    between atoms: N_58  and  C_23 
REMARK    6  A    between atoms: C_33  and  C_24 
REMARK    7  A    between atoms: C_40  and  C_24 
REMARK    8  A    between atoms: C_34  and  C_25 
REMARK    9  A    between atoms: C_45  and  C_25 
REMARK   10  A    between atoms: C_35  and  C_26 
REMARK   11  A    between atoms: C_44  and  C_26 
REMARK   12  A    between atoms: C_36  and  C_27 
REMARK   13  A    between atoms: C_46  and  C_27 
REMARK   14  A    between atoms: C_49  and  C_32 
REMARK   15  A    between atoms: O_78  and  C_37 
REMARK   16  A    between atoms: C_51  and  C_40 
REMARK   17  A    between atoms: C_40  and  N_59 
REMARK   18  A    between atoms: C_50  and  C_44 
REMARK   19  A    between atoms: C_44  and  N_66 
REMARK   20  A    between atoms: C_47  and  N_72 
REMARK   21  A    between atoms: C_48  and  C_55 
REMARK   22  A    between atoms: N_60  and  C_50 
REMARK   23  A    between atoms: O_79  and  C_50 
REMARK   24  A    between atoms: N_72  and  C_51 
REMARK   25  A    between atoms: C_51  and  O_80 
REMARK   26  A    between atoms: C_52  and  O_81 
REMARK   27  A    between atoms: C_53  and  O_82 
REMARK   28  A    between atoms: C_54  and  O_83 
REMARK   29  A    between atoms: N_66  and  C_55 
REMARK   30  A    between atoms: C_55  and  O_84 
REMARK   31  A    between atoms: C_56  and  O_85 
REMARK   32  A    between atoms: C_57  and  O_86 
ROOT
HETATM    1  C   UNK N   1      24.417  13.785   2.028  0.00  0.00     0.119 C 
HETATM    2  C   UNK N   1      26.924  13.521   3.889  0.00  0.00     0.119 C 
HETATM    3  C   UNK N   1      28.420   7.176   4.639  0.00  0.00     0.158 C 
HETATM    4  C   UNK N   1      23.989  12.034   6.143  0.00  0.00     0.162 C 
HETATM    5  C   UNK N   1      24.927   8.372   5.606  0.00  0.00     0.162 C 
HETATM    6  C   UNK N   1      23.261  14.065   2.998  0.00  0.00     0.168 C 
HETATM    7  C   UNK N   1      28.235  13.501   4.672  0.00  0.00     0.168 C 
HETATM    8  C   UNK N   1      29.411   9.930   4.282  0.00  0.00     0.161 C 
HETATM    9  C   UNK N   1      28.744   7.799   3.287  0.00  0.00     0.135 C 
HETATM   10  C   UNK N   1      24.022  10.517   6.200  0.00  0.00     0.135 C 
HETATM   11  C   UNK N   1      26.058   7.760   4.815  0.00  0.00     0.135 C 
HETATM   12  C   UNK N   1      23.575  13.725   4.445  0.00  0.00     0.136 C 
HETATM   13  C   UNK N   1      28.816  11.266   3.951  0.00  0.00     0.135 C 
HETATM   14  N   UNK N   1      27.271   7.817   5.267  0.00  0.00    -0.361 N 
ATOM     15  HN  UNK N   1      27.432   8.347   6.123  1.00  0.00     0.162 HD
HETATM   16  N   UNK N   1      23.797  12.487   4.770  0.00  0.00    -0.360 N 
ATOM     17  HN  UNK N   1      23.839  11.793   4.023  1.00  0.00     0.162 HD
HETATM   18  N   UNK N   1      24.950   9.832   5.599  0.00  0.00    -0.360 N 
ATOM     19  HN  UNK N   1      25.705  10.322   5.116  1.00  0.00     0.162 HD
HETATM   20  N   UNK N   1      28.691  12.148   4.888  0.00  0.00    -0.360 N 
ATOM     21  HN  UNK N   1      28.929  11.870   5.841  1.00  0.00     0.162 HD
HETATM   22  N   UNK N   1      29.197   9.008   3.177  0.00  0.00    -0.360 N 
ATOM     23  HN  UNK N   1      29.422   9.340   2.239  1.00  0.00     0.162 HD
HETATM   24  S   UNK N   1      25.677  15.089   1.779  0.00  0.00    -0.095 SA
HETATM   25  S   UNK N   1      26.299  15.215   3.813  0.00  0.00    -0.095 SA
ENDROOT
BRANCH   7  26
HETATM   26  C   UNK N   1      29.352  14.281   4.032  0.00  0.00     0.136 C 
BRANCH  26  27
HETATM   27  N   UNK N   1      30.139  15.014   4.750  0.00  0.00    -0.360 N 
ATOM     28  HN  UNK N   1      31.027  14.610   5.049  1.00  0.00     0.162 HD
BRANCH  27  29
HETATM   29  C   UNK N   1      29.840  16.375   5.155  0.00  0.00     0.161 C 
BRANCH  29  30
HETATM   30  C   UNK N   1      29.063  16.374   6.484  0.00  0.00     0.074 C 
BRANCH  30  31
HETATM   31  C   UNK N   1      28.470  17.716   6.795  0.00  0.00    -0.028 A 
HETATM   32  C   UNK N   1      28.344  18.268   8.066  0.00  0.00     0.096 A 
HETATM   33  N   UNK N   1      27.748  19.484   7.979  0.00  0.00    -0.365 N 
HETATM   34  C   UNK N   1      27.506  19.688   6.671  0.00  0.00     0.042 A 
HETATM   35  H   UNK N   1      27.536  20.094   8.721  0.00  0.00     0.165 HD
HETATM   36  C   UNK N   1      26.903  20.802   6.096  0.00  0.00     0.030 A 
HETATM   37  C   UNK N   1      27.935  18.630   5.920  0.00  0.00    -0.002 A 
HETATM   38  C   UNK N   1      26.744  20.812   4.698  0.00  0.00     0.002 A 
HETATM   39  C   UNK N   1      27.189  19.719   3.920  0.00  0.00     0.001 A 
HETATM   40  C   UNK N   1      27.793  18.607   4.535  0.00  0.00     0.014 A 
ENDBRANCH  30  31
ENDBRANCH  29  30
BRANCH  29  41
HETATM   41  C   UNK N   1      31.107  17.199   5.213  0.00  0.00     0.132 C 
BRANCH  41  42
HETATM   42  N   UNK N   1      31.482  17.910   4.211  0.00  0.00    -0.382 N 
HETATM   43  H   UNK N   1      31.380  17.893   3.232  0.00  0.00     0.158 HD
ATOM     44  HN  UNK N   1      32.036  18.711   4.512  1.00  0.00     0.158 HD
ENDBRANCH  41  42
BRANCH  41  45
HETATM   45  O   UNK N   1      31.845  17.202   6.340  0.00  0.00    -0.348 OA
HETATM   46  H   UNK N   1      32.731  17.016   6.581  0.00  0.00     0.219 HD
ENDBRANCH  41  45
ENDBRANCH  29  41
ENDBRANCH  27  29
ENDBRANCH  26  27
BRANCH  26  47
HETATM   47  O   UNK N   1      29.503  14.213   2.693  0.00  0.00    -0.348 OA
HETATM   48  H   UNK N   1      29.057  13.927   1.920  0.00  0.00     0.219 HD
ENDBRANCH  26  47
ENDBRANCH   7  26
BRANCH  13  49
HETATM   49  O   UNK N   1      28.429  11.536   2.684  0.00  0.00    -0.348 OA
HETATM   50  H   UNK N   1      28.314  12.108   1.950  0.00  0.00     0.219 HD
ENDBRANCH  13  49
BRANCH   8  51
HETATM   51  C   UNK N   1      30.921  10.039   4.566  0.00  0.00     0.008 C 
HETATM   52  C   UNK N   1      31.349   9.201   5.763  0.00  0.00     0.012 C 
HETATM   53  C   UNK N   1      31.776   9.683   3.360  0.00  0.00     0.012 C 
ENDBRANCH   8  51
BRANCH   6  54
HETATM   54  N   UNK N   1      22.576  15.337   2.761  0.00  0.00    -0.360 N 
ATOM     55  HN  UNK N   1      23.008  16.155   3.191  1.00  0.00     0.162 HD
BRANCH  54  56
HETATM   56  C   UNK N   1      21.497  15.569   2.079  0.00  0.00     0.135 C 
BRANCH  56  57
HETATM   57  C   UNK N   1      20.305  16.170   2.758  0.00  0.00     0.153 C 
BRANCH  57  58
HETATM   58  C   UNK N   1      20.734  17.139   3.859  0.00  0.00     0.071 C 
BRANCH  58  59
HETATM   59  C   UNK N   1      20.619  16.530   5.222  0.00  0.00    -0.056 A 
HETATM   60  C   UNK N   1      21.049  17.219   6.363  0.00  0.00     0.007 A 
HETATM   61  C   UNK N   1      20.933  16.620   7.624  0.00  0.00     0.001 A 
HETATM   62  C   UNK N   1      20.392  15.336   7.743  0.00  0.00     0.000 A 
HETATM   63  C   UNK N   1      19.962  14.651   6.604  0.00  0.00     0.001 A 
HETATM   64  C   UNK N   1      20.072  15.250   5.347  0.00  0.00     0.007 A 
ENDBRANCH  58  59
ENDBRANCH  57  58
BRANCH  57  65
HETATM   65  N   UNK N   1      19.523  16.897   1.773  0.00  0.00    -0.419 N 
HETATM   66  H   UNK N   1      18.877  16.396   1.163  0.00  0.00     0.150 HD
HETATM   67  H   UNK N   1      19.620  17.908   1.692  0.00  0.00     0.150 HD
ENDBRANCH  57  65
ENDBRANCH  56  57
BRANCH  56  68
HETATM   68  O   UNK N   1      21.416  15.301   0.765  0.00  0.00    -0.348 OA
HETATM   69  H   UNK N   1      21.584  14.674   0.090  0.00  0.00     0.219 HD
ENDBRANCH  56  68
ENDBRANCH  54  56
ENDBRANCH   6  54
BRANCH   9  70
HETATM   70  O   UNK N   1      28.615   7.057   2.168  0.00  0.00    -0.348 OA
HETATM   71  H   UNK N   1      28.271   6.451   1.542  0.00  0.00     0.219 HD
ENDBRANCH   9  70
BRANCH  12  72
HETATM   72  O   UNK N   1      23.510  14.674   5.403  0.00  0.00    -0.348 OA
HETATM   73  H   UNK N   1      23.739  14.950   6.268  0.00  0.00     0.219 HD
ENDBRANCH  12  72
BRANCH   3  74
HETATM   74  C   UNK N   1      28.213   5.656   4.580  0.00  0.00     0.033 C 
BRANCH  74  75
HETATM   75  C   UNK N   1      28.903   4.963   5.750  0.00  0.00     0.004 C 
BRANCH  75  76
HETATM   76  C   UNK N   1      30.195   5.672   6.110  0.00  0.00     0.019 C 
BRANCH  76  77
HETATM   77  C   UNK N   1      30.396   5.689   7.617  0.00  0.00     0.111 C 
BRANCH  77  78
HETATM   78  N   UNK N   1      29.940   6.952   8.173  0.00  0.00    -0.430 N 
HETATM   79  H   UNK N   1      29.116   7.540   8.056  0.00  0.00     0.149 HD
HETATM   80  H   UNK N   1      30.604   7.343   8.842  0.00  0.00     0.149 HD
ENDBRANCH  77  78
ENDBRANCH  76  77
ENDBRANCH  75  76
ENDBRANCH  74  75
ENDBRANCH   3  74
BRANCH   4  81
HETATM   81  C   UNK N   1      22.858  12.581   7.061  0.00  0.00     0.072 C 
BRANCH  81  82
HETATM   82  C   UNK N   1      23.118  12.521   8.547  0.00  0.00    -0.056 A 
HETATM   83  C   UNK N   1      24.425  12.568   9.053  0.00  0.00     0.010 A 
HETATM   84  C   UNK N   1      24.661  12.486  10.425  0.00  0.00     0.037 A 
HETATM   85  C   UNK N   1      23.588  12.340  11.305  0.00  0.00     0.065 A 
HETATM   86  C   UNK N   1      22.282  12.279  10.811  0.00  0.00     0.037 A 
HETATM   87  C   UNK N   1      22.047  12.368   9.434  0.00  0.00     0.010 A 
BRANCH  85  88
HETATM   88  O   UNK N   1      23.815  12.254  12.625  0.00  0.00    -0.361 OA
HETATM   89  H   UNK N   1      24.199  11.572  13.141  0.00  0.00     0.217 HD
ENDBRANCH  85  88
ENDBRANCH  81  82
ENDBRANCH   4  81
BRANCH  11  90
HETATM   90  O   UNK N   1      25.778   7.074   3.686  0.00  0.00    -0.348 OA
HETATM   91  H   UNK N   1      25.366   6.666   2.950  0.00  0.00     0.219 HD
ENDBRANCH  11  90
BRANCH  10  92
HETATM   92  O   UNK N   1      23.058   9.870   6.892  0.00  0.00    -0.348 OA
HETATM   93  H   UNK N   1      23.152   8.963   7.107  0.00  0.00     0.219 HD
ENDBRANCH  10  92
BRANCH   5  94
HETATM   94  C   UNK N   1      24.987   7.830   7.045  0.00  0.00     0.074 C 
BRANCH  94  95
HETATM   95  C   UNK N   1      24.847   6.343   7.084  0.00  0.00    -0.028 A 
HETATM   96  C   UNK N   1      23.931   5.571   6.379  0.00  0.00     0.096 A 
HETATM   97  N   UNK N   1      24.123   4.260   6.678  0.00  0.00    -0.365 N 
HETATM   98  C   UNK N   1      25.147   4.220   7.552  0.00  0.00     0.042 A 
HETATM   99  H   UNK N   1      23.616   3.492   6.328  0.00  0.00     0.165 HD
HETATM  100  C   UNK N   1      25.709   3.090   8.140  0.00  0.00     0.030 A 
HETATM  101  C   UNK N   1      25.612   5.474   7.818  0.00  0.00    -0.002 A 
HETATM  102  C   UNK N   1      26.787   3.280   9.027  0.00  0.00     0.002 A 
HETATM  103  C   UNK N   1      27.270   4.581   9.299  0.00  0.00     0.001 A 
HETATM  104  C   UNK N   1      26.676   5.699   8.689  0.00  0.00     0.014 A 
ENDBRANCH  94  95
ENDBRANCH   5  94
TORSDOF 32
ENDMDL
MODEL 5
REMARK VINA RESULT:      -7.0      2.656      4.662
REMARK  32 active torsions:
REMARK  status: ('A' for Active; 'I' for Inactive)
REMARK    1  A    between atoms: C_11  and  C_10 
REMARK    2  A    between atoms: C_18  and  C_10 
REMARK    3  A    between atoms: C_23  and  C_11 
REMARK    4  A    between atoms: C_43  and  C_18 
REMARK    5  A    between atoms: N_58  and  C_23 
REMARK    6  A    between atoms: C_33  and  C_24 
REMARK    7  A    between atoms: C_40  and  C_24 
REMARK    8  A    between atoms: C_34  and  C_25 
REMARK    9  A    between atoms: C_45  and  C_25 
REMARK   10  A    between atoms: C_35  and  C_26 
REMARK   11  A    between atoms: C_44  and  C_26 
REMARK   12  A    between atoms: C_36  and  C_27 
REMARK   13  A    between atoms: C_46  and  C_27 
REMARK   14  A    between atoms: C_49  and  C_32 
REMARK   15  A    between atoms: O_78  and  C_37 
REMARK   16  A    between atoms: C_51  and  C_40 
REMARK   17  A    between atoms: C_40  and  N_59 
REMARK   18  A    between atoms: C_50  and  C_44 
REMARK   19  A    between atoms: C_44  and  N_66 
REMARK   20  A    between atoms: C_47  and  N_72 
REMARK   21  A    between atoms: C_48  and  C_55 
REMARK   22  A    between atoms: N_60  and  C_50 
REMARK   23  A    between atoms: O_79  and  C_50 
REMARK   24  A    between atoms: N_72  and  C_51 
REMARK   25  A    between atoms: C_51  and  O_80 
REMARK   26  A    between atoms: C_52  and  O_81 
REMARK   27  A    between atoms: C_53  and  O_82 
REMARK   28  A    between atoms: C_54  and  O_83 
REMARK   29  A    between atoms: N_66  and  C_55 
REMARK   30  A    between atoms: C_55  and  O_84 
REMARK   31  A    between atoms: C_56  and  O_85 
REMARK   32  A    between atoms: C_57  and  O_86 
ROOT
HETATM    1  C   UNK N   1      24.810  14.186   2.258  0.00  0.00     0.119 C 
HETATM    2  C   UNK N   1      27.279  13.530   4.071  0.00  0.00     0.119 C 
HETATM    3  C   UNK N   1      27.900   7.021   4.630  0.00  0.00     0.158 C 
HETATM    4  C   UNK N   1      24.195  12.394   6.332  0.00  0.00     0.162 C 
HETATM    5  C   UNK N   1      24.617   8.656   5.684  0.00  0.00     0.162 C 
HETATM    6  C   UNK N   1      23.714  14.594   3.254  0.00  0.00     0.168 C 
HETATM    7  C   UNK N   1      28.585  13.308   4.833  0.00  0.00     0.168 C 
HETATM    8  C   UNK N   1      29.255   9.623   4.330  0.00  0.00     0.161 C 
HETATM    9  C   UNK N   1      28.290   7.632   3.290  0.00  0.00     0.135 C 
HETATM   10  C   UNK N   1      24.021  10.886   6.349  0.00  0.00     0.135 C 
HETATM   11  C   UNK N   1      25.643   7.917   4.859  0.00  0.00     0.135 C 
HETATM   12  C   UNK N   1      23.997  14.174   4.685  0.00  0.00     0.136 C 
HETATM   13  C   UNK N   1      28.845  11.036   4.044  0.00  0.00     0.135 C 
HETATM   14  N   UNK N   1      26.858   7.795   5.293  0.00  0.00    -0.361 N 
ATOM     15  HN  UNK N   1      27.101   8.273   6.160  1.00  0.00     0.162 HD
HETATM   16  N   UNK N   1      24.050  12.908   4.974  0.00  0.00    -0.360 N 
ATOM     17  HN  UNK N   1      23.988  12.236   4.209  1.00  0.00     0.162 HD
HETATM   18  N   UNK N   1      24.840  10.098   5.715  0.00  0.00    -0.360 N 
ATOM     19  HN  UNK N   1      25.648  10.494   5.233  1.00  0.00     0.162 HD
HETATM   20  N   UNK N   1      28.853  11.900   5.005  0.00  0.00    -0.360 N 
ATOM     21  HN  UNK N   1      29.063  11.566   5.947  1.00  0.00     0.162 HD
HETATM   22  N   UNK N   1      28.904   8.770   3.205  0.00  0.00    -0.360 N 
ATOM     23  HN  UNK N   1      29.161   9.095   2.272  1.00  0.00     0.162 HD
HETATM   24  S   UNK N   1      26.232  15.313   2.023  0.00  0.00    -0.095 SA
HETATM   25  S   UNK N   1      26.890  15.294   4.050  0.00  0.00    -0.095 SA
ENDROOT
BRANCH   7  26
HETATM   26  C   UNK N   1      29.789  13.947   4.196  0.00  0.00     0.136 C 
BRANCH  26  27
HETATM   27  N   UNK N   1      30.602  14.666   4.898  0.00  0.00    -0.360 N 
ATOM     28  HN  UNK N   1      31.144  14.202   5.626  1.00  0.00     0.162 HD
BRANCH  27  29
HETATM   29  C   UNK N   1      30.793  16.093   4.712  0.00  0.00     0.161 C 
BRANCH  29  30
HETATM   30  C   UNK N   1      31.894  16.608   5.656  0.00  0.00     0.074 C 
BRANCH  30  31
HETATM   31  C   UNK N   1      31.422  16.717   7.075  0.00  0.00    -0.028 A 
HETATM   32  C   UNK N   1      32.078  16.197   8.186  0.00  0.00     0.096 A 
HETATM   33  N   UNK N   1      31.359  16.463   9.306  0.00  0.00    -0.365 N 
HETATM   34  C   UNK N   1      30.270  17.142   8.899  0.00  0.00     0.042 A 
HETATM   35  H   UNK N   1      31.588  16.213  10.230  0.00  0.00     0.165 HD
HETATM   36  C   UNK N   1      29.240  17.626   9.698  0.00  0.00     0.030 A 
HETATM   37  C   UNK N   1      30.277  17.315   7.543  0.00  0.00    -0.002 A 
HETATM   38  C   UNK N   1      28.187  18.312   9.064  0.00  0.00     0.002 A 
HETATM   39  C   UNK N   1      28.194  18.494   7.662  0.00  0.00     0.001 A 
HETATM   40  C   UNK N   1      29.252  17.988   6.884  0.00  0.00     0.014 A 
ENDBRANCH  30  31
ENDBRANCH  29  30
BRANCH  29  41
HETATM   41  C   UNK N   1      31.070  16.403   3.257  0.00  0.00     0.132 C 
BRANCH  41  42
HETATM   42  N   UNK N   1      32.247  16.266   2.763  0.00  0.00    -0.382 N 
HETATM   43  H   UNK N   1      33.067  16.806   2.682  0.00  0.00     0.158 HD
ATOM     44  HN  UNK N   1      32.367  15.346   2.339  1.00  0.00     0.158 HD
ENDBRANCH  41  42
BRANCH  41  45
HETATM   45  O   UNK N   1      30.062  16.812   2.462  0.00  0.00    -0.348 OA
HETATM   46  H   UNK N   1      29.281  17.321   2.552  0.00  0.00     0.219 HD
ENDBRANCH  41  45
ENDBRANCH  29  41
ENDBRANCH  27  29
ENDBRANCH  26  27
BRANCH  26  47
HETATM   47  O   UNK N   1      29.994  13.766   2.874  0.00  0.00    -0.348 OA
HETATM   48  H   UNK N   1      29.603  13.368   2.121  0.00  0.00     0.219 HD
ENDBRANCH  26  47
ENDBRANCH   7  26
BRANCH  13  49
HETATM   49  O   UNK N   1      28.483  11.392   2.790  0.00  0.00    -0.348 OA
HETATM   50  H   UNK N   1      28.490  11.290   1.859  0.00  0.00     0.219 HD
ENDBRANCH  13  49
BRANCH   8  51
HETATM   51  C   UNK N   1      30.769   9.517   4.592  0.00  0.00     0.008 C 
HETATM   52  C   UNK N   1      31.087   8.702   5.839  0.00  0.00     0.012 C 
HETATM   53  C   UNK N   1      31.536   8.956   3.405  0.00  0.00     0.012 C 
ENDBRANCH   8  51
BRANCH   6  54
HETATM   54  N   UNK N   1      23.207  15.954   3.061  0.00  0.00    -0.360 N 
ATOM     55  HN  UNK N   1      23.761  16.546   2.442  1.00  0.00     0.162 HD
BRANCH  54  56
HETATM   56  C   UNK N   1      22.151  16.510   3.568  0.00  0.00     0.135 C 
BRANCH  56  57
HETATM   57  C   UNK N   1      22.300  17.647   4.531  0.00  0.00     0.153 C 
BRANCH  57  58
HETATM   58  C   UNK N   1      22.591  18.954   3.793  0.00  0.00     0.071 C 
BRANCH  58  59
HETATM   59  C   UNK N   1      24.046  19.301   3.812  0.00  0.00    -0.056 A 
HETATM   60  C   UNK N   1      24.924  18.697   4.722  0.00  0.00     0.007 A 
HETATM   61  C   UNK N   1      26.281  19.047   4.719  0.00  0.00     0.001 A 
HETATM   62  C   UNK N   1      26.757  20.000   3.812  0.00  0.00     0.000 A 
HETATM   63  C   UNK N   1      25.881  20.600   2.905  0.00  0.00     0.001 A 
HETATM   64  C   UNK N   1      24.529  20.247   2.903  0.00  0.00     0.007 A 
ENDBRANCH  58  59
ENDBRANCH  57  58
BRANCH  57  65
HETATM   65  N   UNK N   1      21.062  17.796   5.276  0.00  0.00    -0.419 N 
HETATM   66  H   UNK N   1      20.818  18.698   5.686  0.00  0.00     0.150 HD
HETATM   67  H   UNK N   1      20.438  16.999   5.390  0.00  0.00     0.150 HD
ENDBRANCH  57  65
ENDBRANCH  56  57
BRANCH  56  68
HETATM   68  O   UNK N   1      20.910  16.109   3.242  0.00  0.00    -0.348 OA
HETATM   69  H   UNK N   1      20.230  16.139   2.600  0.00  0.00     0.219 HD
ENDBRANCH  56  68
ENDBRANCH  54  56
ENDBRANCH   6  54
BRANCH   9  70
HETATM   70  O   UNK N   1      28.047   6.947   2.154  0.00  0.00    -0.348 OA
HETATM   71  H   UNK N   1      27.704   6.307   1.561  0.00  0.00     0.219 HD
ENDBRANCH   9  70
BRANCH  12  72
HETATM   72  O   UNK N   1      24.073  15.095   5.669  0.00  0.00    -0.348 OA
HETATM   73  H   UNK N   1      23.893  15.328   6.558  0.00  0.00     0.219 HD
ENDBRANCH  12  72
BRANCH   3  74
HETATM   74  C   UNK N   1      27.487   5.546   4.534  0.00  0.00     0.033 C 
BRANCH  74  75
HETATM   75  C   UNK N   1      28.285   4.688   5.510  0.00  0.00     0.004 C 
BRANCH  75  76
HETATM   76  C   UNK N   1      29.617   5.339   5.833  0.00  0.00     0.019 C 
BRANCH  76  77
HETATM   77  C   UNK N   1      30.185   4.785   7.131  0.00  0.00     0.111 C 
BRANCH  77  78
HETATM   78  N   UNK N   1      29.984   3.347   7.197  0.00  0.00    -0.430 N 
HETATM   79  H   UNK N   1      29.300   2.731   7.636  0.00  0.00     0.149 HD
HETATM   80  H   UNK N   1      30.697   2.832   6.680  0.00  0.00     0.149 HD
ENDBRANCH  77  78
ENDBRANCH  76  77
ENDBRANCH  75  76
ENDBRANCH  74  75
ENDBRANCH   3  74
BRANCH   4  81
HETATM   81  C   UNK N   1      23.161  13.065   7.282  0.00  0.00     0.072 C 
BRANCH  81  82
HETATM   82  C   UNK N   1      23.355  12.817   8.759  0.00  0.00    -0.056 A 
HETATM   83  C   UNK N   1      24.639  12.777   9.322  0.00  0.00     0.010 A 
HETATM   84  C   UNK N   1      24.813  12.523  10.682  0.00  0.00     0.037 A 
HETATM   85  C   UNK N   1      23.700  12.288  11.490  0.00  0.00     0.065 A 
HETATM   86  C   UNK N   1      22.416  12.312  10.938  0.00  0.00     0.037 A 
HETATM   87  C   UNK N   1      22.244  12.575   9.574  0.00  0.00     0.010 A 
BRANCH  85  88
HETATM   88  O   UNK N   1      23.867  12.036  12.798  0.00  0.00    -0.361 OA
HETATM   89  H   UNK N   1      23.668  11.275  13.308  0.00  0.00     0.217 HD
ENDBRANCH  85  88
ENDBRANCH  81  82
ENDBRANCH   4  81
BRANCH  11  90
HETATM   90  O   UNK N   1      25.258   7.308   3.717  0.00  0.00    -0.348 OA
HETATM   91  H   UNK N   1      24.987   7.103   2.844  0.00  0.00     0.219 HD
ENDBRANCH  11  90
BRANCH  10  92
HETATM   92  O   UNK N   1      22.986  10.358   7.038  0.00  0.00    -0.348 OA
HETATM   93  H   UNK N   1      22.689   9.486   6.861  0.00  0.00     0.219 HD
ENDBRANCH  10  92
BRANCH   5  94
HETATM   94  C   UNK N   1      24.619   8.070   7.107  0.00  0.00     0.074 C 
BRANCH  94  95
HETATM   95  C   UNK N   1      24.532   6.578   7.094  0.00  0.00    -0.028 A 
HETATM   96  C   UNK N   1      23.603   5.801   6.410  0.00  0.00     0.096 A 
HETATM   97  N   UNK N   1      23.856   4.487   6.645  0.00  0.00    -0.365 N 
HETATM   98  C   UNK N   1      24.929   4.451   7.457  0.00  0.00     0.042 A 
HETATM   99  H   UNK N   1      23.356   3.716   6.293  0.00  0.00     0.165 HD
HETATM  100  C   UNK N   1      25.562   3.320   7.966  0.00  0.00     0.030 A 
HETATM  101  C   UNK N   1      25.366   5.710   7.747  0.00  0.00    -0.002 A 
HETATM  102  C   UNK N   1      26.683   3.515   8.798  0.00  0.00     0.002 A 
HETATM  103  C   UNK N   1      27.137   4.820   9.095  0.00  0.00     0.001 A 
HETATM  104  C   UNK N   1      26.471   5.939   8.565  0.00  0.00     0.014 A 
ENDBRANCH  94  95
ENDBRANCH   5  94
TORSDOF 32
ENDMDL
MODEL 6
REMARK VINA RESULT:      -6.7      1.786      2.339
REMARK  32 active torsions:
REMARK  status: ('A' for Active; 'I' for Inactive)
REMARK    1  A    between atoms: C_11  and  C_10 
REMARK    2  A    between atoms: C_18  and  C_10 
REMARK    3  A    between atoms: C_23  and  C_11 
REMARK    4  A    between atoms: C_43  and  C_18 
REMARK    5  A    between atoms: N_58  and  C_23 
REMARK    6  A    between atoms: C_33  and  C_24 
REMARK    7  A    between atoms: C_40  and  C_24 
REMARK    8  A    between atoms: C_34  and  C_25 
REMARK    9  A    between atoms: C_45  and  C_25 
REMARK   10  A    between atoms: C_35  and  C_26 
REMARK   11  A    between atoms: C_44  and  C_26 
REMARK   12  A    between atoms: C_36  and  C_27 
REMARK   13  A    between atoms: C_46  and  C_27 
REMARK   14  A    between atoms: C_49  and  C_32 
REMARK   15  A    between atoms: O_78  and  C_37 
REMARK   16  A    between atoms: C_51  and  C_40 
REMARK   17  A    between atoms: C_40  and  N_59 
REMARK   18  A    between atoms: C_50  and  C_44 
REMARK   19  A    between atoms: C_44  and  N_66 
REMARK   20  A    between atoms: C_47  and  N_72 
REMARK   21  A    between atoms: C_48  and  C_55 
REMARK   22  A    between atoms: N_60  and  C_50 
REMARK   23  A    between atoms: O_79  and  C_50 
REMARK   24  A    between atoms: N_72  and  C_51 
REMARK   25  A    between atoms: C_51  and  O_80 
REMARK   26  A    between atoms: C_52  and  O_81 
REMARK   27  A    between atoms: C_53  and  O_82 
REMARK   28  A    between atoms: C_54  and  O_83 
REMARK   29  A    between atoms: N_66  and  C_55 
REMARK   30  A    between atoms: C_55  and  O_84 
REMARK   31  A    between atoms: C_56  and  O_85 
REMARK   32  A    between atoms: C_57  and  O_86 
ROOT
HETATM    1  C   UNK N   1      24.698  17.723   3.068  0.00  0.00     0.119 C 
HETATM    2  C   UNK N   1      27.163  16.671   4.693  0.00  0.00     0.119 C 
HETATM    3  C   UNK N   1      29.233  11.015   2.086  0.00  0.00     0.158 C 
HETATM    4  C   UNK N   1      24.316  14.024   5.589  0.00  0.00     0.162 C 
HETATM    5  C   UNK N   1      25.615  11.283   3.272  0.00  0.00     0.162 C 
HETATM    6  C   UNK N   1      23.492  17.367   3.948  0.00  0.00     0.168 C 
HETATM    7  C   UNK N   1      28.446  16.321   5.443  0.00  0.00     0.168 C 
HETATM    8  C   UNK N   1      29.967  13.593   3.316  0.00  0.00     0.161 C 
HETATM    9  C   UNK N   1      29.536  12.283   1.297  0.00  0.00     0.135 C 
HETATM   10  C   UNK N   1      24.493  12.716   4.838  0.00  0.00     0.135 C 
HETATM   11  C   UNK N   1      26.822  11.261   2.365  0.00  0.00     0.135 C 
HETATM   12  C   UNK N   1      23.794  16.330   5.016  0.00  0.00     0.136 C 
HETATM   13  C   UNK N   1      29.258  14.858   3.697  0.00  0.00     0.135 C 
HETATM   14  N   UNK N   1      28.010  11.147   2.869  0.00  0.00    -0.361 N 
ATOM     15  HN  UNK N   1      28.095  11.148   3.885  1.00  0.00     0.162 HD
HETATM   16  N   UNK N   1      24.123  15.126   4.653  0.00  0.00    -0.360 N 
ATOM     17  HN  UNK N   1      24.253  14.941   3.658  1.00  0.00     0.162 HD
HETATM   18  N   UNK N   1      25.499  12.519   4.039  0.00  0.00    -0.360 N 
ATOM     19  HN  UNK N   1      26.218  13.239   3.947  1.00  0.00     0.162 HD
HETATM   20  N   UNK N   1      29.022  15.094   4.945  0.00  0.00    -0.360 N 
ATOM     21  HN  UNK N   1      29.257  14.368   5.623  1.00  0.00     0.162 HD
HETATM   22  N   UNK N   1      29.876  13.391   1.878  0.00  0.00    -0.360 N 
ATOM     23  HN  UNK N   1      30.096  14.185   1.277  1.00  0.00     0.162 HD
HETATM   24  S   UNK N   1      25.834  19.038   3.642  0.00  0.00    -0.095 SA
HETATM   25  S   UNK N   1      26.381  18.099   5.476  0.00  0.00    -0.095 SA
ENDROOT
BRANCH   7  26
HETATM   26  C   UNK N   1      29.501  17.393   5.399  0.00  0.00     0.136 C 
BRANCH  26  27
HETATM   27  N   UNK N   1      30.220  17.653   6.442  0.00  0.00    -0.360 N 
ATOM     28  HN  UNK N   1      30.636  18.582   6.516  1.00  0.00     0.162 HD
BRANCH  27  29
HETATM   29  C   UNK N   1      30.469  16.708   7.515  0.00  0.00     0.161 C 
BRANCH  29  30
HETATM   30  C   UNK N   1      31.804  15.979   7.280  0.00  0.00     0.074 C 
BRANCH  30  31
HETATM   31  C   UNK N   1      32.942  16.627   8.010  0.00  0.00    -0.028 A 
HETATM   32  C   UNK N   1      33.549  17.827   7.656  0.00  0.00     0.096 A 
HETATM   33  N   UNK N   1      34.554  18.104   8.526  0.00  0.00    -0.365 N 
HETATM   34  C   UNK N   1      34.571  17.090   9.411  0.00  0.00     0.042 A 
HETATM   35  H   UNK N   1      35.148  18.888   8.513  0.00  0.00     0.165 HD
HETATM   36  C   UNK N   1      35.437  16.937  10.489  0.00  0.00     0.030 A 
HETATM   37  C   UNK N   1      33.600  16.172   9.127  0.00  0.00    -0.002 A 
HETATM   38  C   UNK N   1      35.283  15.794  11.295  0.00  0.00     0.002 A 
HETATM   39  C   UNK N   1      34.278  14.843  11.003  0.00  0.00     0.001 A 
HETATM   40  C   UNK N   1      33.421  15.029   9.902  0.00  0.00     0.014 A 
ENDBRANCH  30  31
ENDBRANCH  29  30
BRANCH  29  41
HETATM   41  C   UNK N   1      30.406  17.405   8.857  0.00  0.00     0.132 C 
BRANCH  41  42
HETATM   42  N   UNK N   1      30.179  16.746   9.936  0.00  0.00    -0.382 N 
HETATM   43  H   UNK N   1      29.497  16.122  10.274  0.00  0.00     0.158 HD
ATOM     44  HN  UNK N   1      30.905  16.914  10.632  1.00  0.00     0.158 HD
ENDBRANCH  41  42
BRANCH  41  45
HETATM   45  O   UNK N   1      30.609  18.735   8.924  0.00  0.00    -0.348 OA
HETATM   46  H   UNK N   1      30.318  19.447   9.458  0.00  0.00     0.219 HD
ENDBRANCH  41  45
ENDBRANCH  29  41
ENDBRANCH  27  29
ENDBRANCH  26  27
BRANCH  26  47
HETATM   47  O   UNK N   1      29.670  18.087   4.255  0.00  0.00    -0.348 OA
HETATM   48  H   UNK N   1      29.516  18.933   3.883  0.00  0.00     0.219 HD
ENDBRANCH  26  47
ENDBRANCH   7  26
BRANCH  13  49
HETATM   49  O   UNK N   1      28.885  15.736   2.738  0.00  0.00    -0.348 OA
HETATM   50  H   UNK N   1      28.478  16.528   2.445  0.00  0.00     0.219 HD
ENDBRANCH  13  49
BRANCH   8  51
HETATM   51  C   UNK N   1      31.451  13.632   3.728  0.00  0.00     0.008 C 
HETATM   52  C   UNK N   1      32.028  15.041   3.690  0.00  0.00     0.012 C 
HETATM   53  C   UNK N   1      31.701  13.013   5.094  0.00  0.00     0.012 C 
ENDBRANCH   8  51
BRANCH   6  54
HETATM   54  N   UNK N   1      22.696  18.522   4.368  0.00  0.00    -0.360 N 
ATOM     55  HN  UNK N   1      23.107  19.093   5.108  1.00  0.00     0.162 HD
BRANCH  54  56
HETATM   56  C   UNK N   1      21.543  18.921   3.930  0.00  0.00     0.135 C 
BRANCH  56  57
HETATM   57  C   UNK N   1      20.999  18.358   2.653  0.00  0.00     0.153 C 
BRANCH  57  58
HETATM   58  C   UNK N   1      19.969  17.263   2.934  0.00  0.00     0.071 C 
BRANCH  58  59
HETATM   59  C   UNK N   1      20.524  15.893   2.699  0.00  0.00    -0.056 A 
HETATM   60  C   UNK N   1      20.517  14.924   3.710  0.00  0.00     0.007 A 
HETATM   61  C   UNK N   1      21.048  13.652   3.461  0.00  0.00     0.001 A 
HETATM   62  C   UNK N   1      21.590  13.352   2.206  0.00  0.00     0.000 A 
HETATM   63  C   UNK N   1      21.595  14.319   1.198  0.00  0.00     0.001 A 
HETATM   64  C   UNK N   1      21.060  15.586   1.444  0.00  0.00     0.007 A 
ENDBRANCH  58  59
ENDBRANCH  57  58
BRANCH  57  65
HETATM   65  N   UNK N   1      20.356  19.425   1.906  0.00  0.00    -0.419 N 
HETATM   66  H   UNK N   1      19.907  19.224   1.013  0.00  0.00     0.150 HD
HETATM   67  H   UNK N   1      20.354  20.375   2.275  0.00  0.00     0.150 HD
ENDBRANCH  57  65
ENDBRANCH  56  57
BRANCH  56  68
HETATM   68  O   UNK N   1      20.801  19.821   4.597  0.00  0.00    -0.348 OA
HETATM   69  H   UNK N   1      20.245  20.571   4.527  0.00  0.00     0.219 HD
ENDBRANCH  56  68
ENDBRANCH  54  56
ENDBRANCH   6  54
BRANCH   9  70
HETATM   70  O   UNK N   1      29.512  12.245  -0.050  0.00  0.00    -0.348 OA
HETATM   71  H   UNK N   1      29.192  12.206  -0.930  0.00  0.00     0.219 HD
ENDBRANCH   9  70
BRANCH  12  72
HETATM   72  O   UNK N   1      23.610  16.615   6.322  0.00  0.00    -0.348 OA
HETATM   73  H   UNK N   1      23.300  16.339   7.162  0.00  0.00     0.219 HD
ENDBRANCH  12  72
BRANCH   3  74
HETATM   74  C   UNK N   1      29.174   9.752   1.218  0.00  0.00     0.033 C 
BRANCH  74  75
HETATM   75  C   UNK N   1      30.463   8.945   1.335  0.00  0.00     0.004 C 
BRANCH  75  76
HETATM   76  C   UNK N   1      31.359   9.184   0.135  0.00  0.00     0.019 C 
BRANCH  76  77
HETATM   77  C   UNK N   1      30.573   9.036  -1.160  0.00  0.00     0.111 C 
BRANCH  77  78
HETATM   78  N   UNK N   1      30.456   7.635  -1.522  0.00  0.00    -0.430 N 
HETATM   79  H   UNK N   1      29.686   7.009  -1.759  0.00  0.00     0.149 HD
HETATM   80  H   UNK N   1      31.360   7.163  -1.547  0.00  0.00     0.149 HD
ENDBRANCH  77  78
ENDBRANCH  76  77
ENDBRANCH  75  76
ENDBRANCH  74  75
ENDBRANCH   3  74
BRANCH   4  81
HETATM   81  C   UNK N   1      23.111  13.923   6.569  0.00  0.00     0.072 C 
BRANCH  81  82
HETATM   82  C   UNK N   1      23.429  13.461   7.971  0.00  0.00    -0.056 A 
HETATM   83  C   UNK N   1      22.409  13.092   8.859  0.00  0.00     0.010 A 
HETATM   84  C   UNK N   1      22.707  12.691  10.160  0.00  0.00     0.037 A 
HETATM   85  C   UNK N   1      24.034  12.671  10.592  0.00  0.00     0.065 A 
HETATM   86  C   UNK N   1      25.059  13.049   9.720  0.00  0.00     0.037 A 
HETATM   87  C   UNK N   1      24.758  13.445   8.411  0.00  0.00     0.010 A 
BRANCH  85  88
HETATM   88  O   UNK N   1      24.322  12.292  11.847  0.00  0.00    -0.361 OA
HETATM   89  H   UNK N   1      23.780  12.224  12.609  0.00  0.00     0.217 HD
ENDBRANCH  85  88
ENDBRANCH  81  82
ENDBRANCH   4  81
BRANCH  11  90
HETATM   90  O   UNK N   1      26.642  11.266   1.027  0.00  0.00    -0.348 OA
HETATM   91  H   UNK N   1      26.297  11.315   0.157  0.00  0.00     0.219 HD
ENDBRANCH  11  90
BRANCH  10  92
HETATM   92  O   UNK N   1      23.574  11.739   5.008  0.00  0.00    -0.348 OA
HETATM   93  H   UNK N   1      23.121  11.377   4.272  0.00  0.00     0.219 HD
ENDBRANCH  10  92
BRANCH   5  94
HETATM   94  C   UNK N   1      25.683  10.062   4.206  0.00  0.00     0.074 C 
BRANCH  94  95
HETATM   95  C   UNK N   1      24.824   8.941   3.719  0.00  0.00    -0.028 A 
HETATM   96  C   UNK N   1      24.803   8.399   2.439  0.00  0.00     0.096 A 
HETATM   97  N   UNK N   1      23.891   7.393   2.392  0.00  0.00    -0.365 N 
HETATM   98  C   UNK N   1      23.360   7.309   3.626  0.00  0.00     0.042 A 
HETATM   99  H   UNK N   1      23.664   6.837   1.612  0.00  0.00     0.165 HD
HETATM  100  C   UNK N   1      22.384   6.418   4.064  0.00  0.00     0.030 A 
HETATM  101  C   UNK N   1      23.909   8.238   4.459  0.00  0.00    -0.002 A 
HETATM  102  C   UNK N   1      21.975   6.502   5.409  0.00  0.00     0.002 A 
HETATM  103  C   UNK N   1      22.548   7.463   6.273  0.00  0.00     0.001 A 
HETATM  104  C   UNK N   1      23.530   8.349   5.795  0.00  0.00     0.014 A 
ENDBRANCH  94  95
ENDBRANCH   5  94
TORSDOF 32
ENDMDL
MODEL 7
REMARK VINA RESULT:      -6.6      2.710      4.157
REMARK  32 active torsions:
REMARK  status: ('A' for Active; 'I' for Inactive)
REMARK    1  A    between atoms: C_11  and  C_10 
REMARK    2  A    between atoms: C_18  and  C_10 
REMARK    3  A    between atoms: C_23  and  C_11 
REMARK    4  A    between atoms: C_43  and  C_18 
REMARK    5  A    between atoms: N_58  and  C_23 
REMARK    6  A    between atoms: C_33  and  C_24 
REMARK    7  A    between atoms: C_40  and  C_24 
REMARK    8  A    between atoms: C_34  and  C_25 
REMARK    9  A    between atoms: C_45  and  C_25 
REMARK   10  A    between atoms: C_35  and  C_26 
REMARK   11  A    between atoms: C_44  and  C_26 
REMARK   12  A    between atoms: C_36  and  C_27 
REMARK   13  A    between atoms: C_46  and  C_27 
REMARK   14  A    between atoms: C_49  and  C_32 
REMARK   15  A    between atoms: O_78  and  C_37 
REMARK   16  A    between atoms: C_51  and  C_40 
REMARK   17  A    between atoms: C_40  and  N_59 
REMARK   18  A    between atoms: C_50  and  C_44 
REMARK   19  A    between atoms: C_44  and  N_66 
REMARK   20  A    between atoms: C_47  and  N_72 
REMARK   21  A    between atoms: C_48  and  C_55 
REMARK   22  A    between atoms: N_60  and  C_50 
REMARK   23  A    between atoms: O_79  and  C_50 
REMARK   24  A    between atoms: N_72  and  C_51 
REMARK   25  A    between atoms: C_51  and  O_80 
REMARK   26  A    between atoms: C_52  and  O_81 
REMARK   27  A    between atoms: C_53  and  O_82 
REMARK   28  A    between atoms: C_54  and  O_83 
REMARK   29  A    between atoms: N_66  and  C_55 
REMARK   30  A    between atoms: C_55  and  O_84 
REMARK   31  A    between atoms: C_56  and  O_85 
REMARK   32  A    between atoms: C_57  and  O_86 
ROOT
HETATM    1  C   UNK N   1      23.777  13.467   2.164  0.00  0.00     0.119 C 
HETATM    2  C   UNK N   1      26.371  13.486   3.923  0.00  0.00     0.119 C 
HETATM    3  C   UNK N   1      28.492   7.330   4.741  0.00  0.00     0.158 C 
HETATM    4  C   UNK N   1      23.682  11.785   6.329  0.00  0.00     0.162 C 
HETATM    5  C   UNK N   1      24.943   8.216   5.830  0.00  0.00     0.162 C 
HETATM    6  C   UNK N   1      22.639  13.660   3.176  0.00  0.00     0.168 C 
HETATM    7  C   UNK N   1      27.708  13.609   4.650  0.00  0.00     0.168 C 
HETATM    8  C   UNK N   1      29.201  10.156   4.286  0.00  0.00     0.161 C 
HETATM    9  C   UNK N   1      28.700   7.948   3.364  0.00  0.00     0.135 C 
HETATM   10  C   UNK N   1      23.862  10.280   6.417  0.00  0.00     0.135 C 
HETATM   11  C   UNK N   1      26.094   7.694   5.004  0.00  0.00     0.135 C 
HETATM   12  C   UNK N   1      23.042  13.388   4.615  0.00  0.00     0.136 C 
HETATM   13  C   UNK N   1      28.469  11.421   3.952  0.00  0.00     0.135 C 
HETATM   14  N   UNK N   1      27.313   7.876   5.404  0.00  0.00    -0.361 N 
ATOM     15  HN  UNK N   1      27.458   8.439   6.241  1.00  0.00     0.162 HD
HETATM   16  N   UNK N   1      23.393  12.184   4.956  0.00  0.00    -0.360 N 
ATOM     17  HN  UNK N   1      23.472  11.479   4.223  1.00  0.00     0.162 HD
HETATM   18  N   UNK N   1      24.827   9.671   5.791  0.00  0.00    -0.360 N 
ATOM     19  HN  UNK N   1      25.511  10.218   5.267  1.00  0.00     0.162 HD
HETATM   20  N   UNK N   1      28.299  12.310   4.875  0.00  0.00    -0.360 N 
ATOM     21  HN  UNK N   1      28.600  12.080   5.823  1.00  0.00     0.162 HD
HETATM   22  N   UNK N   1      29.032   9.191   3.210  0.00  0.00    -0.360 N 
ATOM     23  HN  UNK N   1      29.187   9.519   2.257  1.00  0.00     0.162 HD
HETATM   24  S   UNK N   1      24.896  14.877   1.835  0.00  0.00    -0.095 SA
HETATM   25  S   UNK N   1      25.584  15.111   3.838  0.00  0.00    -0.095 SA
ENDROOT
BRANCH   7  26
HETATM   26  C   UNK N   1      28.718  14.474   3.948  0.00  0.00     0.136 C 
BRANCH  26  27
HETATM   27  N   UNK N   1      29.693  15.015   4.604  0.00  0.00    -0.360 N 
ATOM     28  HN  UNK N   1      30.633  14.650   4.450  1.00  0.00     0.162 HD
BRANCH  27  29
HETATM   29  C   UNK N   1      29.533  16.109   5.543  0.00  0.00     0.161 C 
BRANCH  29  30
HETATM   30  C   UNK N   1      30.910  16.657   5.959  0.00  0.00     0.074 C 
BRANCH  30  31
HETATM   31  C   UNK N   1      31.452  15.968   7.176  0.00  0.00    -0.028 A 
HETATM   32  C   UNK N   1      31.353  16.438   8.481  0.00  0.00     0.096 A 
HETATM   33  N   UNK N   1      31.968  15.572   9.326  0.00  0.00    -0.365 N 
HETATM   34  C   UNK N   1      32.443  14.575   8.557  0.00  0.00     0.042 A 
HETATM   35  H   UNK N   1      32.050  15.656  10.303  0.00  0.00     0.165 HD
HETATM   36  C   UNK N   1      33.152  13.456   8.983  0.00  0.00     0.030 A 
HETATM   37  C   UNK N   1      32.144  14.784   7.240  0.00  0.00    -0.002 A 
HETATM   38  C   UNK N   1      33.559  12.528   8.007  0.00  0.00     0.002 A 
HETATM   39  C   UNK N   1      33.250  12.742   6.644  0.00  0.00     0.001 A 
HETATM   40  C   UNK N   1      32.533  13.887   6.248  0.00  0.00     0.014 A 
ENDBRANCH  30  31
ENDBRANCH  29  30
BRANCH  29  41
HETATM   41  C   UNK N   1      28.625  17.173   4.965  0.00  0.00     0.132 C 
BRANCH  41  42
HETATM   42  N   UNK N   1      28.881  17.717   3.830  0.00  0.00    -0.382 N 
HETATM   43  H   UNK N   1      28.506  17.704   2.920  0.00  0.00     0.158 HD
ATOM     44  HN  UNK N   1      29.694  18.329   3.887  1.00  0.00     0.158 HD
ENDBRANCH  41  42
BRANCH  41  45
HETATM   45  O   UNK N   1      27.521  17.543   5.642  0.00  0.00    -0.348 OA
HETATM   46  H   UNK N   1      27.226  17.536   6.531  0.00  0.00     0.219 HD
ENDBRANCH  41  45
ENDBRANCH  29  41
ENDBRANCH  27  29
ENDBRANCH  26  27
BRANCH  26  47
HETATM   47  O   UNK N   1      28.577  14.688   2.623  0.00  0.00    -0.348 OA
HETATM   48  H   UNK N   1      28.055  15.170   2.012  0.00  0.00     0.219 HD
ENDBRANCH  26  47
ENDBRANCH   7  26
BRANCH  13  49
HETATM   49  O   UNK N   1      28.008  11.622   2.697  0.00  0.00    -0.348 OA
HETATM   50  H   UNK N   1      27.655  11.327   1.880  0.00  0.00     0.219 HD
ENDBRANCH  13  49
BRANCH   8  51
HETATM   51  C   UNK N   1      30.704  10.414   4.503  0.00  0.00     0.008 C 
HETATM   52  C   UNK N   1      31.299   9.512   5.577  0.00  0.00     0.012 C 
HETATM   53  C   UNK N   1      31.516  10.290   3.223  0.00  0.00     0.012 C 
ENDBRANCH   8  51
BRANCH   6  54
HETATM   54  N   UNK N   1      21.827  14.856   2.942  0.00  0.00    -0.360 N 
ATOM     55  HN  UNK N   1      22.318  15.644   2.520  1.00  0.00     0.162 HD
BRANCH  54  56
HETATM   56  C   UNK N   1      20.571  15.051   3.195  0.00  0.00     0.135 C 
BRANCH  56  57
HETATM   57  C   UNK N   1      20.166  16.123   4.160  0.00  0.00     0.153 C 
BRANCH  57  58
HETATM   58  C   UNK N   1      19.592  17.333   3.424  0.00  0.00     0.071 C 
BRANCH  58  59
HETATM   59  C   UNK N   1      20.620  18.397   3.202  0.00  0.00    -0.056 A 
HETATM   60  C   UNK N   1      21.864  18.350   3.844  0.00  0.00     0.007 A 
HETATM   61  C   UNK N   1      22.803  19.365   3.619  0.00  0.00     0.001 A 
HETATM   62  C   UNK N   1      22.499  20.424   2.759  0.00  0.00     0.000 A 
HETATM   63  C   UNK N   1      21.259  20.469   2.118  0.00  0.00     0.001 A 
HETATM   64  C   UNK N   1      20.323  19.455   2.337  0.00  0.00     0.007 A 
ENDBRANCH  58  59
ENDBRANCH  57  58
BRANCH  57  65
HETATM   65  N   UNK N   1      19.149  15.591   5.051  0.00  0.00    -0.419 N 
HETATM   66  H   UNK N   1      18.831  16.141   5.849  0.00  0.00     0.150 HD
HETATM   67  H   UNK N   1      18.753  14.668   4.878  0.00  0.00     0.150 HD
ENDBRANCH  57  65
ENDBRANCH  56  57
BRANCH  56  68
HETATM   68  O   UNK N   1      19.605  14.329   2.602  0.00  0.00    -0.348 OA
HETATM   69  H   UNK N   1      18.781  13.898   2.712  0.00  0.00     0.219 HD
ENDBRANCH  56  68
ENDBRANCH  54  56
ENDBRANCH   6  54
BRANCH   9  70
HETATM   70  O   UNK N   1      28.598   7.169   2.268  0.00  0.00    -0.348 OA
HETATM   71  H   UNK N   1      28.338   6.858   1.423  0.00  0.00     0.219 HD
ENDBRANCH   9  70
BRANCH  12  72
HETATM   72  O   UNK N   1      22.925  14.349   5.555  0.00  0.00    -0.348 OA
HETATM   73  H   UNK N   1      23.248  15.149   5.922  0.00  0.00     0.219 HD
ENDBRANCH  12  72
BRANCH   3  74
HETATM   74  C   UNK N   1      28.429   5.797   4.722  0.00  0.00     0.033 C 
BRANCH  74  75
HETATM   75  C   UNK N   1      29.128   5.204   5.941  0.00  0.00     0.004 C 
BRANCH  75  76
HETATM   76  C   UNK N   1      30.368   6.004   6.292  0.00  0.00     0.019 C 
BRANCH  76  77
HETATM   77  C   UNK N   1      30.565   6.057   7.799  0.00  0.00     0.111 C 
BRANCH  77  78
HETATM   78  N   UNK N   1      30.184   7.362   8.313  0.00  0.00    -0.430 N 
HETATM   79  H   UNK N   1      29.441   7.714   8.917  0.00  0.00     0.149 HD
HETATM   80  H   UNK N   1      30.808   8.102   7.993  0.00  0.00     0.149 HD
ENDBRANCH  77  78
ENDBRANCH  76  77
ENDBRANCH  75  76
ENDBRANCH  74  75
ENDBRANCH   3  74
BRANCH   4  81
HETATM   81  C   UNK N   1      22.542  12.246   7.283  0.00  0.00     0.072 C 
BRANCH  81  82
HETATM   82  C   UNK N   1      22.875  12.273   8.755  0.00  0.00    -0.056 A 
HETATM   83  C   UNK N   1      24.207  12.269   9.195  0.00  0.00     0.010 A 
HETATM   84  C   UNK N   1      24.507  12.268  10.556  0.00  0.00     0.037 A 
HETATM   85  C   UNK N   1      23.475  12.253  11.494  0.00  0.00     0.065 A 
HETATM   86  C   UNK N   1      22.143  12.244  11.068  0.00  0.00     0.037 A 
HETATM   87  C   UNK N   1      21.843  12.251   9.700  0.00  0.00     0.010 A 
BRANCH  85  88
HETATM   88  O   UNK N   1      23.763  12.245  12.805  0.00  0.00    -0.361 OA
HETATM   89  H   UNK N   1      23.205  12.263  13.558  0.00  0.00     0.217 HD
ENDBRANCH  85  88
ENDBRANCH  81  82
ENDBRANCH   4  81
BRANCH  11  90
HETATM   90  O   UNK N   1      25.835   6.956   3.903  0.00  0.00    -0.348 OA
HETATM   91  H   UNK N   1      25.453   6.559   3.145  0.00  0.00     0.219 HD
ENDBRANCH  11  90
BRANCH  10  92
HETATM   92  O   UNK N   1      22.992   9.562   7.162  0.00  0.00    -0.348 OA
HETATM   93  H   UNK N   1      23.140   8.651   7.323  0.00  0.00     0.219 HD
ENDBRANCH  10  92
BRANCH   5  94
HETATM   94  C   UNK N   1      25.111   7.717   7.276  0.00  0.00     0.074 C 
BRANCH  94  95
HETATM   95  C   UNK N   1      24.969   6.233   7.372  0.00  0.00    -0.028 A 
HETATM   96  C   UNK N   1      23.977   5.449   6.794  0.00  0.00     0.096 A 
HETATM   97  N   UNK N   1      24.194   4.145   7.107  0.00  0.00    -0.365 N 
HETATM   98  C   UNK N   1      25.309   4.122   7.862  0.00  0.00     0.042 A 
HETATM   99  H   UNK N   1      23.647   3.373   6.836  0.00  0.00     0.165 HD
HETATM  100  C   UNK N   1      25.927   3.003   8.415  0.00  0.00     0.030 A 
HETATM  101  C   UNK N   1      25.807   5.378   8.040  0.00  0.00    -0.002 A 
HETATM  102  C   UNK N   1      27.098   3.209   9.171  0.00  0.00     0.002 A 
HETATM  103  C   UNK N   1      27.615   4.512   9.351  0.00  0.00     0.001 A 
HETATM  104  C   UNK N   1      26.962   5.618   8.780  0.00  0.00     0.014 A 
ENDBRANCH  94  95
ENDBRANCH   5  94
TORSDOF 32
ENDMDL
MODEL 8
REMARK VINA RESULT:      -6.6      2.651      4.204
REMARK  32 active torsions:
REMARK  status: ('A' for Active; 'I' for Inactive)
REMARK    1  A    between atoms: C_11  and  C_10 
REMARK    2  A    between atoms: C_18  and  C_10 
REMARK    3  A    between atoms: C_23  and  C_11 
REMARK    4  A    between atoms: C_43  and  C_18 
REMARK    5  A    between atoms: N_58  and  C_23 
REMARK    6  A    between atoms: C_33  and  C_24 
REMARK    7  A    between atoms: C_40  and  C_24 
REMARK    8  A    between atoms: C_34  and  C_25 
REMARK    9  A    between atoms: C_45  and  C_25 
REMARK   10  A    between atoms: C_35  and  C_26 
REMARK   11  A    between atoms: C_44  and  C_26 
REMARK   12  A    between atoms: C_36  and  C_27 
REMARK   13  A    between atoms: C_46  and  C_27 
REMARK   14  A    between atoms: C_49  and  C_32 
REMARK   15  A    between atoms: O_78  and  C_37 
REMARK   16  A    between atoms: C_51  and  C_40 
REMARK   17  A    between atoms: C_40  and  N_59 
REMARK   18  A    between atoms: C_50  and  C_44 
REMARK   19  A    between atoms: C_44  and  N_66 
REMARK   20  A    between atoms: C_47  and  N_72 
REMARK   21  A    between atoms: C_48  and  C_55 
REMARK   22  A    between atoms: N_60  and  C_50 
REMARK   23  A    between atoms: O_79  and  C_50 
REMARK   24  A    between atoms: N_72  and  C_51 
REMARK   25  A    between atoms: C_51  and  O_80 
REMARK   26  A    between atoms: C_52  and  O_81 
REMARK   27  A    between atoms: C_53  and  O_82 
REMARK   28  A    between atoms: C_54  and  O_83 
REMARK   29  A    between atoms: N_66  and  C_55 
REMARK   30  A    between atoms: C_55  and  O_84 
REMARK   31  A    between atoms: C_56  and  O_85 
REMARK   32  A    between atoms: C_57  and  O_86 
ROOT
HETATM    1  C   UNK N   1      24.406  14.723   2.520  0.00  0.00     0.119 C 
HETATM    2  C   UNK N   1      26.921  14.142   4.296  0.00  0.00     0.119 C 
HETATM    3  C   UNK N   1      28.122   7.690   4.322  0.00  0.00     0.158 C 
HETATM    4  C   UNK N   1      23.946  12.552   6.426  0.00  0.00     0.162 C 
HETATM    5  C   UNK N   1      24.703   8.932   5.476  0.00  0.00     0.162 C 
HETATM    6  C   UNK N   1      23.276  14.948   3.535  0.00  0.00     0.168 C 
HETATM    7  C   UNK N   1      28.239  13.975   5.049  0.00  0.00     0.168 C 
HETATM    8  C   UNK N   1      29.239  10.419   4.251  0.00  0.00     0.161 C 
HETATM    9  C   UNK N   1      28.458   8.443   3.041  0.00  0.00     0.135 C 
HETATM   10  C   UNK N   1      23.909  11.038   6.317  0.00  0.00     0.135 C 
HETATM   11  C   UNK N   1      25.793   8.360   4.603  0.00  0.00     0.135 C 
HETATM   12  C   UNK N   1      23.592  14.437   4.930  0.00  0.00     0.136 C 
HETATM   13  C   UNK N   1      28.704  11.809   4.078  0.00  0.00     0.135 C 
HETATM   14  N   UNK N   1      27.013   8.311   5.037  0.00  0.00    -0.361 N 
ATOM     15  HN  UNK N   1      27.211   8.735   5.943  1.00  0.00     0.162 HD
HETATM   16  N   UNK N   1      23.759  13.162   5.115  0.00  0.00    -0.360 N 
ATOM     17  HN  UNK N   1      23.759  12.552   4.296  1.00  0.00     0.162 HD
HETATM   18  N   UNK N   1      24.796  10.382   5.628  0.00  0.00    -0.360 N 
ATOM     19  HN  UNK N   1      25.566  10.886   5.188  1.00  0.00     0.162 HD
HETATM   20  N   UNK N   1      28.633  12.587   5.108  0.00  0.00    -0.360 N 
ATOM     21  HN  UNK N   1      28.869  12.196   6.020  1.00  0.00     0.162 HD
HETATM   22  N   UNK N   1      28.968   9.635   3.056  0.00  0.00    -0.360 N 
ATOM     23  HN  UNK N   1      29.196  10.057   2.156  1.00  0.00     0.162 HD
HETATM   24  S   UNK N   1      25.722  15.988   2.392  0.00  0.00    -0.095 SA
HETATM   25  S   UNK N   1      26.375  15.860   4.417  0.00  0.00    -0.095 SA
ENDROOT
BRANCH   7  26
HETATM   26  C   UNK N   1      29.383  14.769   4.479  0.00  0.00     0.136 C 
BRANCH  26  27
HETATM   27  N   UNK N   1      30.294  15.262   5.252  0.00  0.00    -0.360 N 
ATOM     28  HN  UNK N   1      31.056  14.649   5.543  1.00  0.00     0.162 HD
BRANCH  27  29
HETATM   29  C   UNK N   1      30.300  16.631   5.732  0.00  0.00     0.161 C 
BRANCH  29  30
HETATM   30  C   UNK N   1      29.724  16.697   7.158  0.00  0.00     0.074 C 
BRANCH  30  31
HETATM   31  C   UNK N   1      28.831  17.886   7.355  0.00  0.00    -0.028 A 
HETATM   32  C   UNK N   1      28.343  18.334   8.578  0.00  0.00     0.096 A 
HETATM   33  N   UNK N   1      27.553  19.420   8.384  0.00  0.00    -0.365 N 
HETATM   34  C   UNK N   1      27.550  19.647   7.057  0.00  0.00     0.042 A 
HETATM   35  H   UNK N   1      27.079  19.939   9.072  0.00  0.00     0.165 HD
HETATM   36  C   UNK N   1      26.874  20.658   6.383  0.00  0.00     0.030 A 
HETATM   37  C   UNK N   1      28.321  18.730   6.400  0.00  0.00    -0.002 A 
HETATM   38  C   UNK N   1      27.007  20.715   4.983  0.00  0.00     0.002 A 
HETATM   39  C   UNK N   1      27.805  19.768   4.302  0.00  0.00     0.001 A 
HETATM   40  C   UNK N   1      28.474  18.757   5.016  0.00  0.00     0.014 A 
ENDBRANCH  30  31
ENDBRANCH  29  30
BRANCH  29  41
HETATM   41  C   UNK N   1      31.691  17.220   5.630  0.00  0.00     0.132 C 
BRANCH  41  42
HETATM   42  N   UNK N   1      32.210  17.501   4.490  0.00  0.00    -0.382 N 
HETATM   43  H   UNK N   1      32.415  18.310   3.967  0.00  0.00     0.158 HD
ATOM     44  HN  UNK N   1      32.485  16.657   3.989  1.00  0.00     0.158 HD
ENDBRANCH  41  42
BRANCH  41  45
HETATM   45  O   UNK N   1      32.390  17.469   6.755  0.00  0.00    -0.348 OA
HETATM   46  H   UNK N   1      32.212  17.539   7.672  0.00  0.00     0.219 HD
ENDBRANCH  41  45
ENDBRANCH  29  41
ENDBRANCH  27  29
ENDBRANCH  26  27
BRANCH  26  47
HETATM   47  O   UNK N   1      29.429  14.970   3.145  0.00  0.00    -0.348 OA
HETATM   48  H   UNK N   1      28.869  15.051   2.398  0.00  0.00     0.219 HD
ENDBRANCH  26  47
ENDBRANCH   7  26
BRANCH  13  49
HETATM   49  O   UNK N   1      28.314  12.234   2.855  0.00  0.00    -0.348 OA
HETATM   50  H   UNK N   1      27.849  12.137   2.047  0.00  0.00     0.219 HD
ENDBRANCH  13  49
BRANCH   8  51
HETATM   51  C   UNK N   1      30.756  10.427   4.518  0.00  0.00     0.008 C 
HETATM   52  C   UNK N   1      31.182   9.325   5.479  0.00  0.00     0.012 C 
HETATM   53  C   UNK N   1      31.580  10.342   3.243  0.00  0.00     0.012 C 
ENDBRANCH   8  51
BRANCH   6  54
HETATM   54  N   UNK N   1      22.649  16.268   3.451  0.00  0.00    -0.360 N 
ATOM     55  HN  UNK N   1      23.285  17.045   3.271  1.00  0.00     0.162 HD
BRANCH  54  56
HETATM   56  C   UNK N   1      21.398  16.586   3.572  0.00  0.00     0.135 C 
BRANCH  56  57
HETATM   57  C   UNK N   1      20.407  16.097   2.562  0.00  0.00     0.153 C 
BRANCH  57  58
HETATM   58  C   UNK N   1      19.615  14.907   3.105  0.00  0.00     0.071 C 
BRANCH  58  59
HETATM   59  C   UNK N   1      19.643  13.738   2.171  0.00  0.00    -0.056 A 
HETATM   60  C   UNK N   1      18.799  13.681   1.054  0.00  0.00     0.007 A 
HETATM   61  C   UNK N   1      18.845  12.571   0.201  0.00  0.00     0.001 A 
HETATM   62  C   UNK N   1      19.729  11.519   0.466  0.00  0.00     0.000 A 
HETATM   63  C   UNK N   1      20.570  11.578   1.579  0.00  0.00     0.001 A 
HETATM   64  C   UNK N   1      20.530  12.688   2.427  0.00  0.00     0.007 A 
ENDBRANCH  58  59
ENDBRANCH  57  58
BRANCH  57  65
HETATM   65  N   UNK N   1      19.481  17.173   2.253  0.00  0.00    -0.419 N 
HETATM   66  H   UNK N   1      19.756  17.915   1.610  0.00  0.00     0.150 HD
HETATM   67  H   UNK N   1      18.556  17.187   2.681  0.00  0.00     0.150 HD
ENDBRANCH  57  65
ENDBRANCH  56  57
BRANCH  56  68
HETATM   68  O   UNK N   1      20.951  17.336   4.593  0.00  0.00    -0.348 OA
HETATM   69  H   UNK N   1      21.168  17.989   5.229  0.00  0.00     0.219 HD
ENDBRANCH  56  68
ENDBRANCH  54  56
ENDBRANCH   6  54
BRANCH   9  70
HETATM   70  O   UNK N   1      28.281   7.835   1.851  0.00  0.00    -0.348 OA
HETATM   71  H   UNK N   1      28.211   7.165   1.200  0.00  0.00     0.219 HD
ENDBRANCH   9  70
BRANCH  12  72
HETATM   72  O   UNK N   1      23.584  15.277   5.987  0.00  0.00    -0.348 OA
HETATM   73  H   UNK N   1      23.329  16.104   6.346  0.00  0.00     0.219 HD
ENDBRANCH  12  72
BRANCH   3  74
HETATM   74  C   UNK N   1      27.843   6.198   4.101  0.00  0.00     0.033 C 
BRANCH  74  75
HETATM   75  C   UNK N   1      28.266   5.375   5.314  0.00  0.00     0.004 C 
BRANCH  75  76
HETATM   76  C   UNK N   1      27.900   3.915   5.126  0.00  0.00     0.019 C 
BRANCH  76  77
HETATM   77  C   UNK N   1      28.851   3.019   5.906  0.00  0.00     0.111 C 
BRANCH  77  78
HETATM   78  N   UNK N   1      28.292   1.684   6.039  0.00  0.00    -0.430 N 
HETATM   79  H   UNK N   1      28.368   0.812   5.517  0.00  0.00     0.149 HD
HETATM   80  H   UNK N   1      27.678   1.600   6.849  0.00  0.00     0.149 HD
ENDBRANCH  77  78
ENDBRANCH  76  77
ENDBRANCH  75  76
ENDBRANCH  74  75
ENDBRANCH   3  74
BRANCH   4  81
HETATM   81  C   UNK N   1      22.854  13.046   7.419  0.00  0.00     0.072 C 
BRANCH  81  82
HETATM   82  C   UNK N   1      23.127  12.804   8.884  0.00  0.00    -0.056 A 
HETATM   83  C   UNK N   1      24.439  12.750   9.375  0.00  0.00     0.010 A 
HETATM   84  C   UNK N   1      24.684  12.500  10.725  0.00  0.00     0.037 A 
HETATM   85  C   UNK N   1      23.616  12.284  11.595  0.00  0.00     0.065 A 
HETATM   86  C   UNK N   1      22.304  12.322  11.114  0.00  0.00     0.037 A 
HETATM   87  C   UNK N   1      22.059  12.580   9.760  0.00  0.00     0.010 A 
BRANCH  85  88
HETATM   88  O   UNK N   1      23.851  12.036  12.893  0.00  0.00    -0.361 OA
HETATM   89  H   UNK N   1      24.411  12.465  13.510  0.00  0.00     0.217 HD
ENDBRANCH  85  88
ENDBRANCH  81  82
ENDBRANCH   4  81
BRANCH  11  90
HETATM   90  O   UNK N   1      25.467   7.815   3.411  0.00  0.00    -0.348 OA
HETATM   91  H   UNK N   1      25.337   7.632   2.501  0.00  0.00     0.219 HD
ENDBRANCH  11  90
BRANCH  10  92
HETATM   92  O   UNK N   1      22.923  10.364   6.951  0.00  0.00    -0.348 OA
HETATM   93  H   UNK N   1      22.355  10.803   7.552  0.00  0.00     0.219 HD
ENDBRANCH  10  92
BRANCH   5  94
HETATM   94  C   UNK N   1      24.755   8.233   6.846  0.00  0.00     0.074 C 
BRANCH  94  95
HETATM   95  C   UNK N   1      24.505   6.764   6.730  0.00  0.00    -0.028 A 
HETATM   96  C   UNK N   1      23.569   6.138   5.915  0.00  0.00     0.096 A 
HETATM   97  N   UNK N   1      23.651   4.793   6.088  0.00  0.00    -0.365 N 
HETATM   98  C   UNK N   1      24.627   4.590   6.992  0.00  0.00     0.042 A 
HETATM   99  H   UNK N   1      23.106   4.105   5.642  0.00  0.00     0.165 HD
HETATM  100  C   UNK N   1      25.078   3.368   7.485  0.00  0.00     0.030 A 
HETATM  101  C   UNK N   1      25.170   5.772   7.402  0.00  0.00    -0.002 A 
HETATM  102  C   UNK N   1      26.124   3.386   8.428  0.00  0.00     0.002 A 
HETATM  103  C   UNK N   1      26.688   4.613   8.849  0.00  0.00     0.001 A 
HETATM  104  C   UNK N   1      26.206   5.827   8.331  0.00  0.00     0.014 A 
ENDBRANCH  94  95
ENDBRANCH   5  94
TORSDOF 32
ENDMDL
MODEL 9
REMARK VINA RESULT:      -6.6      2.899      4.780
REMARK  32 active torsions:
REMARK  status: ('A' for Active; 'I' for Inactive)
REMARK    1  A    between atoms: C_11  and  C_10 
REMARK    2  A    between atoms: C_18  and  C_10 
REMARK    3  A    between atoms: C_23  and  C_11 
REMARK    4  A    between atoms: C_43  and  C_18 
REMARK    5  A    between atoms: N_58  and  C_23 
REMARK    6  A    between atoms: C_33  and  C_24 
REMARK    7  A    between atoms: C_40  and  C_24 
REMARK    8  A    between atoms: C_34  and  C_25 
REMARK    9  A    between atoms: C_45  and  C_25 
REMARK   10  A    between atoms: C_35  and  C_26 
REMARK   11  A    between atoms: C_44  and  C_26 
REMARK   12  A    between atoms: C_36  and  C_27 
REMARK   13  A    between atoms: C_46  and  C_27 
REMARK   14  A    between atoms: C_49  and  C_32 
REMARK   15  A    between atoms: O_78  and  C_37 
REMARK   16  A    between atoms: C_51  and  C_40 
REMARK   17  A    between atoms: C_40  and  N_59 
REMARK   18  A    between atoms: C_50  and  C_44 
REMARK   19  A    between atoms: C_44  and  N_66 
REMARK   20  A    between atoms: C_47  and  N_72 
REMARK   21  A    between atoms: C_48  and  C_55 
REMARK   22  A    between atoms: N_60  and  C_50 
REMARK   23  A    between atoms: O_79  and  C_50 
REMARK   24  A    between atoms: N_72  and  C_51 
REMARK   25  A    between atoms: C_51  and  O_80 
REMARK   26  A    between atoms: C_52  and  O_81 
REMARK   27  A    between atoms: C_53  and  O_82 
REMARK   28  A    between atoms: C_54  and  O_83 
REMARK   29  A    between atoms: N_66  and  C_55 
REMARK   30  A    between atoms: C_55  and  O_84 
REMARK   31  A    between atoms: C_56  and  O_85 
REMARK   32  A    between atoms: C_57  and  O_86 
ROOT
HETATM    1  C   UNK N   1      24.433  13.607   2.103  0.00  0.00     0.119 C 
HETATM    2  C   UNK N   1      26.956  13.275   3.931  0.00  0.00     0.119 C 
HETATM    3  C   UNK N   1      28.174   6.888   4.820  0.00  0.00     0.158 C 
HETATM    4  C   UNK N   1      23.993  11.980   6.267  0.00  0.00     0.162 C 
HETATM    5  C   UNK N   1      24.756   8.267   5.810  0.00  0.00     0.162 C 
HETATM    6  C   UNK N   1      23.306  13.963   3.083  0.00  0.00     0.168 C 
HETATM    7  C   UNK N   1      28.277  13.214   4.694  0.00  0.00     0.168 C 
HETATM    8  C   UNK N   1      29.283   9.585   4.378  0.00  0.00     0.161 C 
HETATM    9  C   UNK N   1      28.504   7.463   3.447  0.00  0.00     0.135 C 
HETATM   10  C   UNK N   1      23.959  10.464   6.362  0.00  0.00     0.135 C 
HETATM   11  C   UNK N   1      25.845   7.584   5.017  0.00  0.00     0.135 C 
HETATM   12  C   UNK N   1      23.629  13.646   4.533  0.00  0.00     0.136 C 
HETATM   13  C   UNK N   1      28.744  10.938   4.022  0.00  0.00     0.135 C 
HETATM   14  N   UNK N   1      27.066   7.597   5.449  0.00  0.00    -0.361 N 
ATOM     15  HN  UNK N   1      27.266   8.139   6.289  1.00  0.00     0.162 HD
HETATM   16  N   UNK N   1      23.799  12.407   4.886  0.00  0.00    -0.360 N 
ATOM     17  HN  UNK N   1      23.798  11.693   4.157  1.00  0.00     0.162 HD
HETATM   18  N   UNK N   1      24.845   9.723   5.765  0.00  0.00    -0.360 N 
ATOM     19  HN  UNK N   1      25.613  10.166   5.258  1.00  0.00     0.162 HD
HETATM   20  N   UNK N   1      28.674  11.847   4.938  0.00  0.00    -0.360 N 
ATOM     21  HN  UNK N   1      28.916  11.583   5.894  1.00  0.00     0.162 HD
HETATM   22  N   UNK N   1      29.010   8.646   3.300  0.00  0.00    -0.360 N 
ATOM     23  HN  UNK N   1      29.234   8.944   2.350  1.00  0.00     0.162 HD
HETATM   24  S   UNK N   1      25.745  14.845   1.801  0.00  0.00    -0.095 SA
HETATM   25  S   UNK N   1      26.406  14.993   3.822  0.00  0.00    -0.095 SA
ENDROOT
BRANCH   7  26
HETATM   26  C   UNK N   1      29.417  13.926   4.018  0.00  0.00     0.136 C 
BRANCH  26  27
HETATM   27  N   UNK N   1      30.378  14.442   4.713  0.00  0.00    -0.360 N 
ATOM     28  HN  UNK N   1      30.480  14.142   5.682  1.00  0.00     0.162 HD
BRANCH  27  29
HETATM   29  C   UNK N   1      31.320  15.418   4.199  0.00  0.00     0.161 C 
BRANCH  29  30
HETATM   30  C   UNK N   1      31.635  16.471   5.277  0.00  0.00     0.074 C 
BRANCH  30  31
HETATM   31  C   UNK N   1      30.403  17.182   5.753  0.00  0.00    -0.028 A 
HETATM   32  C   UNK N   1      29.408  17.707   4.935  0.00  0.00     0.096 A 
HETATM   33  N   UNK N   1      28.454  18.297   5.699  0.00  0.00    -0.365 N 
HETATM   34  C   UNK N   1      28.849  18.139   6.976  0.00  0.00     0.042 A 
HETATM   35  H   UNK N   1      27.638  18.747   5.384  0.00  0.00     0.165 HD
HETATM   36  C   UNK N   1      28.187  18.584   8.116  0.00  0.00     0.030 A 
HETATM   37  C   UNK N   1      30.033  17.462   7.045  0.00  0.00    -0.002 A 
HETATM   38  C   UNK N   1      28.778  18.312   9.364  0.00  0.00     0.002 A 
HETATM   39  C   UNK N   1      30.004  17.611   9.437  0.00  0.00     0.001 A 
HETATM   40  C   UNK N   1      30.646  17.178   8.263  0.00  0.00     0.014 A 
ENDBRANCH  30  31
ENDBRANCH  29  30
BRANCH  29  41
HETATM   41  C   UNK N   1      32.558  14.728   3.669  0.00  0.00     0.132 C 
BRANCH  41  42
HETATM   42  N   UNK N   1      32.592  14.249   2.478  0.00  0.00    -0.382 N 
HETATM   43  H   UNK N   1      32.891  13.420   2.039  0.00  0.00     0.158 HD
ATOM     44  HN  UNK N   1      32.202  14.906   1.803  1.00  0.00     0.158 HD
ENDBRANCH  41  42
BRANCH  41  45
HETATM   45  O   UNK N   1      33.650  14.630   4.453  0.00  0.00    -0.348 OA
HETATM   46  H   UNK N   1      34.051  13.978   4.992  0.00  0.00     0.219 HD
ENDBRANCH  41  45
ENDBRANCH  29  41
ENDBRANCH  27  29
ENDBRANCH  26  27
BRANCH  26  47
HETATM   47  O   UNK N   1      29.406  14.030   2.672  0.00  0.00    -0.348 OA
HETATM   48  H   UNK N   1      29.277  14.658   1.988  0.00  0.00     0.219 HD
ENDBRANCH  26  47
ENDBRANCH   7  26
BRANCH  13  49
HETATM   49  O   UNK N   1      28.348  11.194   2.754  0.00  0.00    -0.348 OA
HETATM   50  H   UNK N   1      27.866  10.997   1.975  0.00  0.00     0.219 HD
ENDBRANCH  13  49
BRANCH   8  51
HETATM   51  C   UNK N   1      30.801   9.632   4.635  0.00  0.00     0.008 C 
HETATM   52  C   UNK N   1      31.197   8.892   5.906  0.00  0.00     0.012 C 
HETATM   53  C   UNK N   1      31.615   9.108   3.463  0.00  0.00     0.012 C 
ENDBRANCH   8  51
BRANCH   6  54
HETATM   54  N   UNK N   1      22.676  15.259   2.824  0.00  0.00    -0.360 N 
ATOM     55  HN  UNK N   1      23.295  16.068   2.882  1.00  0.00     0.162 HD
BRANCH  54  56
HETATM   56  C   UNK N   1      21.440  15.521   2.530  0.00  0.00     0.135 C 
BRANCH  56  57
HETATM   57  C   UNK N   1      20.358  15.200   3.515  0.00  0.00     0.153 C 
BRANCH  57  58
HETATM   58  C   UNK N   1      19.977  16.436   4.329  0.00  0.00     0.071 C 
BRANCH  58  59
HETATM   59  C   UNK N   1      20.195  16.234   5.796  0.00  0.00    -0.056 A 
HETATM   60  C   UNK N   1      20.108  14.962   6.374  0.00  0.00     0.007 A 
HETATM   61  C   UNK N   1      20.313  14.806   7.751  0.00  0.00     0.001 A 
HETATM   62  C   UNK N   1      20.599  15.919   8.548  0.00  0.00     0.000 A 
HETATM   63  C   UNK N   1      20.687  17.188   7.970  0.00  0.00     0.001 A 
HETATM   64  C   UNK N   1      20.489  17.343   6.595  0.00  0.00     0.007 A 
ENDBRANCH  58  59
ENDBRANCH  57  58
BRANCH  57  65
HETATM   65  N   UNK N   1      19.188  14.737   2.791  0.00  0.00    -0.419 N 
HETATM   66  H   UNK N   1      18.464  14.206   3.276  0.00  0.00     0.150 HD
HETATM   67  H   UNK N   1      19.089  14.942   1.797  0.00  0.00     0.150 HD
ENDBRANCH  57  65
ENDBRANCH  56  57
BRANCH  56  68
HETATM   68  O   UNK N   1      21.093  16.093   1.365  0.00  0.00    -0.348 OA
HETATM   69  H   UNK N   1      20.713  15.960   0.519  0.00  0.00     0.219 HD
ENDBRANCH  56  68
ENDBRANCH  54  56
ENDBRANCH   6  54
BRANCH   9  70
HETATM   70  O   UNK N   1      28.323   6.700   2.350  0.00  0.00    -0.348 OA
HETATM   71  H   UNK N   1      28.451   6.034   1.703  0.00  0.00     0.219 HD
ENDBRANCH   9  70
BRANCH  12  72
HETATM   72  O   UNK N   1      23.622  14.620   5.467  0.00  0.00    -0.348 OA
HETATM   73  H   UNK N   1      24.005  15.407   5.800  0.00  0.00     0.219 HD
ENDBRANCH  12  72
BRANCH   3  74
HETATM   74  C   UNK N   1      27.898   5.379   4.803  0.00  0.00     0.033 C 
BRANCH  74  75
HETATM   75  C   UNK N   1      28.969   4.616   5.575  0.00  0.00     0.004 C 
BRANCH  75  76
HETATM   76  C   UNK N   1      29.788   5.562   6.434  0.00  0.00     0.019 C 
BRANCH  76  77
HETATM   77  C   UNK N   1      30.860   4.800   7.199  0.00  0.00     0.111 C 
BRANCH  77  78
HETATM   78  N   UNK N   1      30.452   3.421   7.402  0.00  0.00    -0.430 N 
HETATM   79  H   UNK N   1      29.694   2.956   7.902  0.00  0.00     0.149 HD
HETATM   80  H   UNK N   1      31.071   2.760   6.933  0.00  0.00     0.149 HD
ENDBRANCH  77  78
ENDBRANCH  76  77
ENDBRANCH  75  76
ENDBRANCH  74  75
ENDBRANCH   3  74
BRANCH   4  81
HETATM   81  C   UNK N   1      22.903  12.600   7.189  0.00  0.00     0.072 C 
BRANCH  81  82
HETATM   82  C   UNK N   1      23.137  12.475   8.675  0.00  0.00    -0.056 A 
HETATM   83  C   UNK N   1      22.064  12.313   9.563  0.00  0.00     0.010 A 
HETATM   84  C   UNK N   1      22.284  12.223  10.937  0.00  0.00     0.037 A 
HETATM   85  C   UNK N   1      23.583  12.313  11.438  0.00  0.00     0.065 A 
HETATM   86  C   UNK N   1      24.660  12.487  10.563  0.00  0.00     0.037 A 
HETATM   87  C   UNK N   1      24.437  12.570   9.183  0.00  0.00     0.010 A 
BRANCH  85  88
HETATM   88  O   UNK N   1      23.796  12.234  12.761  0.00  0.00    -0.361 OA
HETATM   89  H   UNK N   1      23.575  11.567  13.381  0.00  0.00     0.217 HD
ENDBRANCH  85  88
ENDBRANCH  81  82
ENDBRANCH   4  81
BRANCH  11  90
HETATM   90  O   UNK N   1      25.515   6.884   3.911  0.00  0.00    -0.348 OA
HETATM   91  H   UNK N   1      25.415   6.560   3.037  0.00  0.00     0.219 HD
ENDBRANCH  11  90
BRANCH  10  92
HETATM   92  O   UNK N   1      22.978   9.880   7.085  0.00  0.00    -0.348 OA
HETATM   93  H   UNK N   1      22.080  10.104   6.940  0.00  0.00     0.219 HD
ENDBRANCH  10  92
BRANCH   5  94
HETATM   94  C   UNK N   1      24.815   7.758   7.261  0.00  0.00     0.074 C 
BRANCH  94  95
HETATM   95  C   UNK N   1      24.765   6.266   7.329  0.00  0.00    -0.028 A 
HETATM   96  C   UNK N   1      23.811   5.435   6.754  0.00  0.00     0.096 A 
HETATM   97  N   UNK N   1      24.114   4.141   7.036  0.00  0.00    -0.365 N 
HETATM   98  C   UNK N   1      25.242   4.171   7.769  0.00  0.00     0.042 A 
HETATM   99  H   UNK N   1      23.609   3.342   6.759  0.00  0.00     0.165 HD
HETATM  100  C   UNK N   1      25.938   3.082   8.288  0.00  0.00     0.030 A 
HETATM  101  C   UNK N   1      25.666   5.452   7.964  0.00  0.00    -0.002 A 
HETATM  102  C   UNK N   1      27.109   3.344   9.027  0.00  0.00     0.002 A 
HETATM  103  C   UNK N   1      27.549   4.673   9.224  0.00  0.00     0.001 A 
HETATM  104  C   UNK N   1      26.819   5.747   8.688  0.00  0.00     0.014 A 
ENDBRANCH  94  95
ENDBRANCH   5  94
TORSDOF 32
ENDMDL
