REMARK  13 active torsions:
REMARK  status: ('A' for Active; 'I' for Inactive)
REMARK    1  A    between atoms: C_8  and  C_5 
REMARK    2  A    between atoms: C_10  and  C_5 
REMARK    3  A    between atoms: C_27  and  C_8 
REMARK    4  A    between atoms: C_29  and  C_10 
REMARK    5  A    between atoms: C_23  and  C_16 
REMARK    6  A    between atoms: C_29  and  C_16 
REMARK    7  A    between atoms: O_35  and  C_22 
REMARK    8  A    between atoms: O_36  and  C_23 
REMARK    9  A    between atoms: C_25  and  O_39 
REMARK   10  A    between atoms: C_29  and  C_26 
REMARK   11  A    between atoms: O_39  and  C_26 
REMARK   12  A    between atoms: O_33  and  C_27 
REMARK   13  A    between atoms: C_29  and  O_34 
ROOT
HETATM    1  C   UNK N   1      -0.364   0.861   0.995  0.00  0.00     0.033 C 
HETATM    2  C   UNK N   1       3.598   2.819  -0.656  0.00  0.00     0.069 C 
HETATM    3  C   UNK N   1       0.737  -0.186   1.087  0.00  0.00     0.048 C 
HETATM    4  C   UNK N   1       0.259   2.012   0.214  0.00  0.00     0.274 C 
HETATM    5  C   UNK N   1       2.254   2.306  -1.063  0.00  0.00     0.278 C 
HETATM    6  C   UNK N   1       5.965   2.311  -0.453  0.00  0.00     0.047 A 
HETATM    7  C   UNK N   1       5.628  -0.383   0.214  0.00  0.00     0.048 A 
HETATM    8  C   UNK N   1       1.232  -0.370  -1.246  0.00  0.00     0.050 C 
HETATM    9  C   UNK N   1       9.055   0.613   0.114  0.00  0.00     0.352 A 
HETATM   10  C   UNK N   1       4.654   1.788  -0.389  0.00  0.00    -0.047 A 
HETATM   11  C   UNK N   1       4.461   0.386  -0.032  0.00  0.00    -0.039 A 
HETATM   12  C   UNK N   1       7.042   1.477  -0.195  0.00  0.00     0.105 A 
HETATM   13  C   UNK N   1       6.877   0.199   0.110  0.00  0.00     0.105 A 
HETATM   14  C   UNK N   1       1.917  -1.462  -1.542  0.00  0.00     0.074 C 
HETATM   15  C   UNK N   1       3.139  -0.389   0.227  0.00  0.00     0.098 C 
HETATM   16  C   UNK N   1       3.062  -1.711  -0.621  0.00  0.00     0.199 C 
HETATM   17  C   UNK N   1       1.734   0.249   0.026  0.00  0.00     0.190 C 
HETATM   18  N   UNK N   1       1.676   1.696   0.105  0.00  0.00     0.103 N 
HETATM   19  O   UNK N   1       8.339   1.773  -0.199  0.00  0.00    -0.323 OA
HETATM   20  O   UNK N   1       8.073  -0.363   0.300  0.00  0.00    -0.323 OA
ENDROOT
BRANCH  16  21
HETATM   21  O   UNK N   1       2.750  -2.809   0.165  0.00  0.00    -0.306 OA
BRANCH  21  22
HETATM   22  C   UNK N   1       3.567  -3.298   1.136  0.00  0.00     0.294 C 
HETATM   23  O   UNK N   1       3.265  -3.103   2.304  0.00  0.00    -0.262 OA
BRANCH  22  24
HETATM   24  C   UNK N   1       4.800  -4.133   0.813  0.00  0.00     0.154 C 
BRANCH  24  25
HETATM   25  C   UNK N   1       4.410  -5.468   0.168  0.00  0.00     0.049 C 
BRANCH  25  26
HETATM   26  C   UNK N   1       3.439  -5.387  -1.003  0.00  0.00     0.006 C 
BRANCH  26  27
HETATM   27  C   UNK N   1       2.477  -6.563  -0.872  0.00  0.00     0.037 C 
BRANCH  27  28
HETATM   28  C   UNK N   1       1.145  -6.198  -0.212  0.00  0.00     0.051 C 
HETATM   29  C   UNK N   1       0.272  -5.430  -1.185  0.00  0.00     0.045 C 
HETATM   30  C   UNK N   1       0.432  -7.474   0.181  0.00  0.00     0.045 C 
BRANCH  28  31
HETATM   31  O   UNK N   1       1.347  -5.430   0.936  0.00  0.00    -0.391 OA
HETATM   32  H   UNK N   1       1.879  -5.285   1.735  0.00  0.00     0.210 HD
ENDBRANCH  28  31
ENDBRANCH  27  28
ENDBRANCH  26  27
ENDBRANCH  25  26
ENDBRANCH  24  25
BRANCH  24  33
HETATM   33  C   UNK N   1       5.767  -3.343  -0.071  0.00  0.00     0.159 C 
BRANCH  33  34
HETATM   34  C   UNK N   1       7.176  -3.857  -0.068  0.00  0.00     0.261 C 
HETATM   35  O   UNK N   1       8.053  -3.182   0.452  0.00  0.00    -0.265 OA
BRANCH  34  36
HETATM   36  O   UNK N   1       7.469  -5.051  -0.634  0.00  0.00    -0.326 OA
HETATM   37  C   UNK N   1       8.751  -5.550  -0.659  0.00  0.00     0.213 C 
ENDBRANCH  34  36
ENDBRANCH  33  34
ENDBRANCH  24  33
BRANCH  24  38
HETATM   38  O   UNK N   1       5.450  -4.438   2.014  0.00  0.00    -0.379 OA
HETATM   39  H   UNK N   1       5.492  -4.934   2.847  0.00  0.00     0.211 HD
ENDBRANCH  24  38
ENDBRANCH  22  24
ENDBRANCH  21  22
ENDBRANCH  16  21
BRANCH  14  40
HETATM   40  O   UNK N   1       1.562  -2.340  -2.516  0.00  0.00    -0.358 OA
HETATM   41  C   UNK N   1       0.354  -2.275  -3.175  0.00  0.00     0.209 C 
ENDBRANCH  14  40
TORSDOF 13
