MODEL 1
REMARK VINA RESULT:      -8.2      0.000      0.000
REMARK  7 active torsions:
REMARK  status: ('A' for Active; 'I' for Inactive)
REMARK    1  A    between atoms: O_1  and  C_21 
REMARK    2  A    between atoms: O_3  and  C_31 
REMARK    3  A    between atoms: O_4  and  C_42 
REMARK    4  A    between atoms: C_11  and  C_21 
REMARK    5  A    between atoms: C_13  and  C_19 
REMARK    6  A    between atoms: C_28  and  C_29 
REMARK    7  A    between atoms: C_33  and  C_42 
ROOT
HETATM    1  N   UNK N   1      22.068  12.879   1.325  0.00  0.00     0.095 N 
HETATM    2  N   UNK N   1      24.664  13.494   4.659  0.00  0.00    -0.357 N 
HETATM    3  C   UNK N   1      21.461  12.931   2.697  0.00  0.00     0.251 C 
HETATM    4  C   UNK N   1      22.435  13.568   3.745  0.00  0.00     0.122 C 
HETATM    5  C   UNK N   1      22.238  15.284   1.825  0.00  0.00     0.016 C 
HETATM    6  C   UNK N   1      20.246  13.891   2.568  0.00  0.00     0.021 C 
HETATM    7  C   UNK N   1      22.949  14.912   3.114  0.00  0.00     0.035 C 
HETATM    8  C   UNK N   1      20.727  15.288   2.096  0.00  0.00     0.013 C 
HETATM    9  C   UNK N   1      22.549  14.178   0.827  0.00  0.00     0.277 C 
HETATM   10  C   UNK N   1      23.720  12.831   3.979  0.00  0.00     0.038 C 
HETATM   11  C   UNK N   1      23.044  11.860   0.945  0.00  0.00     0.277 C 
HETATM   12  C   UNK N   1      24.306  11.941   3.073  0.00  0.00    -0.020 C 
HETATM   13  C   UNK N   1      23.619  11.073   2.085  0.00  0.00     0.072 C 
HETATM   14  C   UNK N   1      25.634  12.291   3.057  0.00  0.00     0.002 C 
HETATM   15  C   UNK N   1      25.784  13.191   4.058  0.00  0.00     0.044 C 
HETATM   16  C   UNK N   1      26.638  12.078   2.108  0.00  0.00     0.051 C 
HETATM   17  C   UNK N   1      26.855  13.962   4.167  0.00  0.00     0.041 C 
HETATM   18  C   UNK N   1      27.844  13.935   3.188  0.00  0.00    -0.013 C 
HETATM   19  C   UNK N   1      27.777  12.951   2.151  0.00  0.00     0.076 C 
HETATM   20  H   UNK N   1      24.541  14.082   5.439  0.00  0.00     0.166 HD
ENDROOT
BRANCH  18  21
HETATM   21  C   UNK N   1      28.910  14.988   3.363  0.00  0.00     0.072 C 
HETATM   22  C   UNK N   1      29.221  14.696   4.797  0.00  0.00     0.025 C 
HETATM   23  C   UNK N   1      30.541  14.398   5.335  0.00  0.00     0.033 C 
HETATM   24  C   UNK N   1      30.748  15.561   6.298  0.00  0.00     0.127 C 
HETATM   25  C   UNK N   1      31.675  14.276   4.339  0.00  0.00    -0.051 C 
HETATM   26  C   UNK N   1      31.252  16.841   5.549  0.00  0.00     0.241 C 
HETATM   27  N   UNK N   1      32.492  16.488   4.818  0.00  0.00     0.093 N 
HETATM   28  C   UNK N   1      30.297  17.683   4.622  0.00  0.00     0.078 C 
HETATM   29  C   UNK N   1      32.202  15.542   3.739  0.00  0.00     0.306 C 
HETATM   30  C   UNK N   1      33.136  17.665   4.247  0.00  0.00     0.310 C 
HETATM   31  C   UNK N   1      28.867  17.473   4.155  0.00  0.00    -0.020 A 
HETATM   32  C   UNK N   1      28.293  16.384   3.481  0.00  0.00     0.025 A 
HETATM   33  C   UNK N   1      27.827  18.371   4.338  0.00  0.00    -0.001 A 
HETATM   34  N   UNK N   1      26.982  16.637   3.216  0.00  0.00    -0.358 N 
HETATM   35  C   UNK N   1      26.711  17.834   3.754  0.00  0.00     0.043 A 
HETATM   36  H   UNK N   1      26.355  16.057   2.726  0.00  0.00     0.166 HD
HETATM   37  C   UNK N   1      25.465  18.451   3.811  0.00  0.00     0.030 A 
HETATM   38  C   UNK N   1      25.371  19.672   4.498  0.00  0.00     0.002 A 
HETATM   39  C   UNK N   1      26.519  20.242   5.096  0.00  0.00     0.001 A 
HETATM   40  C   UNK N   1      27.769  19.592   5.014  0.00  0.00     0.014 A 
HETATM   41  C   UNK N   1      32.260  13.108   4.033  0.00  0.00    -0.026 C 
HETATM   42  C   UNK N   1      31.811  11.793   4.591  0.00  0.00     0.036 C 
BRANCH  24  43
HETATM   43  C   UNK N   1      31.637  15.081   7.419  0.00  0.00     0.265 C 
HETATM   44  O   UNK N   1      31.968  13.907   7.498  0.00  0.00    -0.265 OA
BRANCH  43  45
HETATM   45  O   UNK N   1      32.060  15.985   8.340  0.00  0.00    -0.326 OA
HETATM   46  C   UNK N   1      33.380  16.129   8.691  0.00  0.00     0.213 C 
ENDBRANCH  43  45
ENDBRANCH  24  43
ENDBRANCH  18  21
BRANCH  19  47
HETATM   47  O   UNK N   1      28.752  12.884   1.218  0.00  0.00    -0.355 OA
HETATM   48  C   UNK N   1      29.784  11.974   1.275  0.00  0.00     0.210 C 
ENDBRANCH  19  47
BRANCH   4  49
HETATM   49  C   UNK N   1      21.820  14.000   5.075  0.00  0.00     0.275 C 
HETATM   50  O   UNK N   1      21.413  13.161   5.868  0.00  0.00    -0.264 OA
BRANCH  49  51
HETATM   51  O   UNK N   1      21.964  15.296   5.469  0.00  0.00    -0.326 OA
HETATM   52  C   UNK N   1      22.265  15.662   6.759  0.00  0.00     0.213 C 
ENDBRANCH  49  51
ENDBRANCH   4  49
BRANCH   6  53
HETATM   53  C   UNK N   1      19.222  13.381   1.560  0.00  0.00     0.002 C 
HETATM   54  C   UNK N   1      18.857  14.451   0.552  0.00  0.00     0.005 C 
ENDBRANCH   6  53
TORSDOF 7
ENDMDL
MODEL 2
REMARK VINA RESULT:      -7.9      8.347     13.207
REMARK  7 active torsions:
REMARK  status: ('A' for Active; 'I' for Inactive)
REMARK    1  A    between atoms: O_1  and  C_21 
REMARK    2  A    between atoms: O_3  and  C_31 
REMARK    3  A    between atoms: O_4  and  C_42 
REMARK    4  A    between atoms: C_11  and  C_21 
REMARK    5  A    between atoms: C_13  and  C_19 
REMARK    6  A    between atoms: C_28  and  C_29 
REMARK    7  A    between atoms: C_33  and  C_42 
ROOT
HETATM    1  N   UNK N   1      33.538  16.298   8.349  0.00  0.00     0.095 N 
HETATM    2  N   UNK N   1      36.433  13.224   8.981  0.00  0.00    -0.357 N 
HETATM    3  C   UNK N   1      34.587  16.083   7.297  0.00  0.00     0.251 C 
HETATM    4  C   UNK N   1      35.293  14.694   7.449  0.00  0.00     0.122 C 
HETATM    5  C   UNK N   1      32.763  14.192   7.334  0.00  0.00     0.016 C 
HETATM    6  C   UNK N   1      33.810  16.050   5.951  0.00  0.00     0.021 C 
HETATM    7  C   UNK N   1      34.150  13.625   7.580  0.00  0.00     0.035 C 
HETATM    8  C   UNK N   1      32.769  14.900   5.973  0.00  0.00     0.013 C 
HETATM    9  C   UNK N   1      32.524  15.232   8.420  0.00  0.00     0.277 C 
HETATM   10  C   UNK N   1      36.056  14.482   8.723  0.00  0.00     0.038 C 
HETATM   11  C   UNK N   1      33.877  16.689   9.716  0.00  0.00     0.277 C 
HETATM   12  C   UNK N   1      35.826  15.177   9.915  0.00  0.00    -0.020 C 
HETATM   13  C   UNK N   1      35.329  16.566  10.071  0.00  0.00     0.072 C 
HETATM   14  C   UNK N   1      35.828  14.204  10.886  0.00  0.00     0.002 C 
HETATM   15  C   UNK N   1      36.242  13.074  10.265  0.00  0.00     0.044 C 
HETATM   16  C   UNK N   1      35.279  14.174  12.170  0.00  0.00     0.051 C 
HETATM   17  C   UNK N   1      36.099  11.873  10.804  0.00  0.00     0.041 C 
HETATM   18  C   UNK N   1      35.427  11.720  12.014  0.00  0.00    -0.013 C 
HETATM   19  C   UNK N   1      35.039  12.884  12.751  0.00  0.00     0.076 C 
HETATM   20  H   UNK N   1      36.778  12.558   8.343  0.00  0.00     0.166 HD
ENDROOT
BRANCH  18  21
HETATM   21  C   UNK N   1      35.196  10.284  12.411  0.00  0.00     0.072 C 
HETATM   22  C   UNK N   1      36.440   9.723  11.797  0.00  0.00     0.025 C 
HETATM   23  C   UNK N   1      37.443   8.927  12.491  0.00  0.00     0.033 C 
HETATM   24  C   UNK N   1      37.364   7.607  11.732  0.00  0.00     0.127 C 
HETATM   25  C   UNK N   1      37.257   8.738  13.981  0.00  0.00    -0.051 C 
HETATM   26  C   UNK N   1      36.182   6.720  12.252  0.00  0.00     0.241 C 
HETATM   27  N   UNK N   1      36.361   6.521  13.709  0.00  0.00     0.093 N 
HETATM   28  C   UNK N   1      34.681   7.078  11.934  0.00  0.00     0.078 C 
HETATM   29  C   UNK N   1      36.191   7.787  14.427  0.00  0.00     0.306 C 
HETATM   30  C   UNK N   1      35.413   5.551  14.243  0.00  0.00     0.310 C 
HETATM   31  C   UNK N   1      34.029   8.263  11.245  0.00  0.00    -0.020 A 
HETATM   32  C   UNK N   1      34.124   9.633  11.532  0.00  0.00     0.025 A 
HETATM   33  C   UNK N   1      33.191   8.185  10.143  0.00  0.00    -0.001 A 
HETATM   34  N   UNK N   1      33.334  10.346  10.683  0.00  0.00    -0.358 N 
HETATM   35  C   UNK N   1      32.789   9.458   9.840  0.00  0.00     0.043 A 
HETATM   36  H   UNK N   1      33.189  11.319  10.687  0.00  0.00     0.166 HD
HETATM   37  C   UNK N   1      31.987   9.749   8.740  0.00  0.00     0.030 A 
HETATM   38  C   UNK N   1      31.584   8.679   7.924  0.00  0.00     0.002 A 
HETATM   39  C   UNK N   1      31.984   7.358   8.234  0.00  0.00     0.001 A 
HETATM   40  C   UNK N   1      32.793   7.099   9.361  0.00  0.00     0.014 A 
HETATM   41  C   UNK N   1      38.042   9.325  14.899  0.00  0.00    -0.026 C 
HETATM   42  C   UNK N   1      39.140  10.281  14.550  0.00  0.00     0.036 C 
BRANCH  24  43
HETATM   43  C   UNK N   1      38.725   6.959  11.787  0.00  0.00     0.265 C 
HETATM   44  O   UNK N   1      38.849   5.749  11.673  0.00  0.00    -0.265 OA
BRANCH  43  45
HETATM   45  O   UNK N   1      39.811   7.753  11.968  0.00  0.00    -0.326 OA
HETATM   46  C   UNK N   1      40.852   7.415  12.798  0.00  0.00     0.213 C 
ENDBRANCH  43  45
ENDBRANCH  24  43
ENDBRANCH  18  21
BRANCH  19  47
HETATM   47  O   UNK N   1      34.424  12.753  13.947  0.00  0.00    -0.355 OA
HETATM   48  C   UNK N   1      35.067  12.957  15.148  0.00  0.00     0.210 C 
ENDBRANCH  19  47
BRANCH   4  49
HETATM   49  C   UNK N   1      36.112  14.210   6.253  0.00  0.00     0.275 C 
HETATM   50  O   UNK N   1      37.004  14.911   5.791  0.00  0.00    -0.264 OA
BRANCH  49  51
HETATM   51  O   UNK N   1      36.010  12.904   5.880  0.00  0.00    -0.326 OA
HETATM   52  C   UNK N   1      37.098  12.115   5.592  0.00  0.00     0.213 C 
ENDBRANCH  49  51
ENDBRANCH   4  49
BRANCH   6  53
HETATM   53  C   UNK N   1      33.065  17.354   5.691  0.00  0.00     0.002 C 
HETATM   54  C   UNK N   1      32.749  17.528   4.220  0.00  0.00     0.005 C 
ENDBRANCH   6  53
TORSDOF 7
ENDMDL
MODEL 3
REMARK VINA RESULT:      -7.7     13.630     16.536
REMARK  7 active torsions:
REMARK  status: ('A' for Active; 'I' for Inactive)
REMARK    1  A    between atoms: O_1  and  C_21 
REMARK    2  A    between atoms: O_3  and  C_31 
REMARK    3  A    between atoms: O_4  and  C_42 
REMARK    4  A    between atoms: C_11  and  C_21 
REMARK    5  A    between atoms: C_13  and  C_19 
REMARK    6  A    between atoms: C_28  and  C_29 
REMARK    7  A    between atoms: C_33  and  C_42 
ROOT
HETATM    1  N   UNK N   1      26.764  28.492  -4.115  0.00  0.00     0.095 N 
HETATM    2  N   UNK N   1      29.215  25.069  -4.828  0.00  0.00    -0.357 N 
HETATM    3  C   UNK N   1      28.161  28.493  -3.567  0.00  0.00     0.251 C 
HETATM    4  C   UNK N   1      29.057  27.402  -4.246  0.00  0.00     0.122 C 
HETATM    5  C   UNK N   1      28.076  28.812  -6.174  0.00  0.00     0.016 C 
HETATM    6  C   UNK N   1      28.752  29.875  -3.966  0.00  0.00     0.021 C 
HETATM    7  C   UNK N   1      28.872  27.575  -5.796  0.00  0.00     0.035 C 
HETATM    8  C   UNK N   1      28.736  30.027  -5.510  0.00  0.00     0.013 C 
HETATM    9  C   UNK N   1      26.687  28.629  -5.579  0.00  0.00     0.277 C 
HETATM   10  C   UNK N   1      28.625  25.980  -4.044  0.00  0.00     0.038 C 
HETATM   11  C   UNK N   1      25.768  27.505  -3.701  0.00  0.00     0.277 C 
HETATM   12  C   UNK N   1      27.323  25.580  -3.724  0.00  0.00    -0.020 C 
HETATM   13  C   UNK N   1      26.313  26.332  -2.942  0.00  0.00     0.072 C 
HETATM   14  C   UNK N   1      27.074  24.521  -4.563  0.00  0.00     0.002 C 
HETATM   15  C   UNK N   1      28.258  24.242  -5.159  0.00  0.00     0.044 C 
HETATM   16  C   UNK N   1      25.877  23.959  -5.017  0.00  0.00     0.051 C 
HETATM   17  C   UNK N   1      28.351  23.476  -6.234  0.00  0.00     0.041 C 
HETATM   18  C   UNK N   1      27.202  22.991  -6.854  0.00  0.00    -0.013 C 
HETATM   19  C   UNK N   1      25.932  23.188  -6.226  0.00  0.00     0.076 C 
HETATM   20  H   UNK N   1      30.161  25.031  -5.096  0.00  0.00     0.166 HD
ENDROOT
BRANCH  18  21
HETATM   21  C   UNK N   1      27.463  22.281  -8.159  0.00  0.00     0.072 C 
HETATM   22  C   UNK N   1      28.893  22.697  -8.309  0.00  0.00     0.025 C 
HETATM   23  C   UNK N   1      30.021  21.797  -8.504  0.00  0.00     0.033 C 
HETATM   24  C   UNK N   1      30.524  22.231  -9.876  0.00  0.00     0.127 C 
HETATM   25  C   UNK N   1      29.731  20.312  -8.449  0.00  0.00    -0.051 C 
HETATM   26  C   UNK N   1      29.692  21.567 -11.026  0.00  0.00     0.241 C 
HETATM   27  N   UNK N   1      29.747  20.098 -10.845  0.00  0.00     0.093 N 
HETATM   28  C   UNK N   1      28.217  22.020 -11.342  0.00  0.00     0.078 C 
HETATM   29  C   UNK N   1      29.038  19.701  -9.626  0.00  0.00     0.306 C 
HETATM   30  C   UNK N   1      29.159  19.392 -11.977  0.00  0.00     0.310 C 
HETATM   31  C   UNK N   1      27.269  22.992 -10.661  0.00  0.00    -0.020 A 
HETATM   32  C   UNK N   1      26.821  23.027  -9.331  0.00  0.00     0.025 A 
HETATM   33  C   UNK N   1      26.663  24.078 -11.273  0.00  0.00    -0.001 A 
HETATM   34  N   UNK N   1      25.939  24.050  -9.162  0.00  0.00    -0.358 N 
HETATM   35  C   UNK N   1      25.866  24.685 -10.339  0.00  0.00     0.043 A 
HETATM   36  H   UNK N   1      25.450  24.278  -8.339  0.00  0.00     0.166 HD
HETATM   37  C   UNK N   1      25.158  25.853 -10.604  0.00  0.00     0.030 A 
HETATM   38  C   UNK N   1      25.279  26.414 -11.887  0.00  0.00     0.002 A 
HETATM   39  C   UNK N   1      26.090  25.790 -12.862  0.00  0.00     0.001 A 
HETATM   40  C   UNK N   1      26.790  24.602 -12.561  0.00  0.00     0.014 A 
HETATM   41  C   UNK N   1      30.127  19.525  -7.435  0.00  0.00    -0.026 C 
HETATM   42  C   UNK N   1      30.835  20.042  -6.222  0.00  0.00     0.036 C 
BRANCH  24  43
HETATM   43  C   UNK N   1      32.009  21.972  -9.928  0.00  0.00     0.265 C 
HETATM   44  O   UNK N   1      32.592  21.871 -10.997  0.00  0.00    -0.265 OA
BRANCH  43  45
HETATM   45  O   UNK N   1      32.685  21.852  -8.756  0.00  0.00    -0.326 OA
HETATM   46  C   UNK N   1      33.653  20.900  -8.547  0.00  0.00     0.213 C 
ENDBRANCH  43  45
ENDBRANCH  24  43
ENDBRANCH  18  21
BRANCH  19  47
HETATM   47  O   UNK N   1      24.812  22.686  -6.793  0.00  0.00    -0.355 OA
HETATM   48  C   UNK N   1      24.448  21.361  -6.690  0.00  0.00     0.210 C 
ENDBRANCH  19  47
BRANCH   4  49
HETATM   49  C   UNK N   1      30.566  27.534  -4.041  0.00  0.00     0.275 C 
HETATM   50  O   UNK N   1      31.042  27.482  -2.914  0.00  0.00    -0.264 OA
BRANCH  49  51
HETATM   51  O   UNK N   1      31.381  27.450  -5.129  0.00  0.00    -0.326 OA
HETATM   52  C   UNK N   1      32.478  26.625  -5.187  0.00  0.00     0.213 C 
ENDBRANCH  49  51
ENDBRANCH   4  49
BRANCH   6  53
HETATM   53  C   UNK N   1      27.953  31.028  -3.371  0.00  0.00     0.002 C 
HETATM   54  C   UNK N   1      27.973  30.992  -1.856  0.00  0.00     0.005 C 
ENDBRANCH   6  53
TORSDOF 7
ENDMDL
MODEL 4
REMARK VINA RESULT:      -7.6     17.139     21.581
REMARK  7 active torsions:
REMARK  status: ('A' for Active; 'I' for Inactive)
REMARK    1  A    between atoms: O_1  and  C_21 
REMARK    2  A    between atoms: O_3  and  C_31 
REMARK    3  A    between atoms: O_4  and  C_42 
REMARK    4  A    between atoms: C_11  and  C_21 
REMARK    5  A    between atoms: C_13  and  C_19 
REMARK    6  A    between atoms: C_28  and  C_29 
REMARK    7  A    between atoms: C_33  and  C_42 
ROOT
HETATM    1  N   UNK N   1      42.003  21.242   0.988  0.00  0.00     0.095 N 
HETATM    2  N   UNK N   1      45.452  20.944   3.487  0.00  0.00    -0.357 N 
HETATM    3  C   UNK N   1      42.287  22.365   1.943  0.00  0.00     0.251 C 
HETATM    4  C   UNK N   1      43.761  22.327   2.469  0.00  0.00     0.122 C 
HETATM    5  C   UNK N   1      43.929  22.316  -0.108  0.00  0.00     0.016 C 
HETATM    6  C   UNK N   1      42.142  23.662   1.099  0.00  0.00     0.021 C 
HETATM    7  C   UNK N   1      44.682  22.183   1.205  0.00  0.00     0.035 C 
HETATM    8  C   UNK N   1      43.150  23.637  -0.080  0.00  0.00     0.013 C 
HETATM    9  C   UNK N   1      42.934  21.166  -0.151  0.00  0.00     0.277 C 
HETATM   10  C   UNK N   1      44.143  21.113   3.264  0.00  0.00     0.038 C 
HETATM   11  C   UNK N   1      41.739  19.880   1.446  0.00  0.00     0.277 C 
HETATM   12  C   UNK N   1      43.496  19.875   3.189  0.00  0.00    -0.020 C 
HETATM   13  C   UNK N   1      42.067  19.619   2.886  0.00  0.00     0.072 C 
HETATM   14  C   UNK N   1      44.516  18.958   3.116  0.00  0.00     0.002 C 
HETATM   15  C   UNK N   1      45.652  19.660   3.345  0.00  0.00     0.044 C 
HETATM   16  C   UNK N   1      44.552  17.646   2.636  0.00  0.00     0.051 C 
HETATM   17  C   UNK N   1      46.855  19.176   3.076  0.00  0.00     0.041 C 
HETATM   18  C   UNK N   1      46.991  17.937   2.454  0.00  0.00    -0.013 C 
HETATM   19  C   UNK N   1      45.833  17.120   2.260  0.00  0.00     0.076 C 
HETATM   20  H   UNK N   1      46.118  21.634   3.708  0.00  0.00     0.166 HD
ENDROOT
BRANCH  18  21
HETATM   21  C   UNK N   1      48.408  17.602   2.059  0.00  0.00     0.072 C 
HETATM   22  C   UNK N   1      49.082  18.276   3.212  0.00  0.00     0.025 C 
HETATM   23  C   UNK N   1      50.027  17.650   4.126  0.00  0.00     0.033 C 
HETATM   24  C   UNK N   1      51.288  18.467   3.869  0.00  0.00     0.127 C 
HETATM   25  C   UNK N   1      50.267  16.165   3.952  0.00  0.00    -0.051 C 
HETATM   26  C   UNK N   1      52.052  17.956   2.600  0.00  0.00     0.241 C 
HETATM   27  N   UNK N   1      52.343  16.515   2.787  0.00  0.00     0.093 N 
HETATM   28  C   UNK N   1      51.500  18.213   1.147  0.00  0.00     0.078 C 
HETATM   29  C   UNK N   1      51.104  15.735   2.788  0.00  0.00     0.306 C 
HETATM   30  C   UNK N   1      53.218  16.001   1.740  0.00  0.00     0.310 C 
HETATM   31  C   UNK N   1      50.212  18.828   0.628  0.00  0.00    -0.020 A 
HETATM   32  C   UNK N   1      48.879  18.479   0.896  0.00  0.00     0.025 A 
HETATM   33  C   UNK N   1      50.133  19.908  -0.238  0.00  0.00    -0.001 A 
HETATM   34  N   UNK N   1      48.035  19.271   0.179  0.00  0.00    -0.358 N 
HETATM   35  C   UNK N   1      48.807  20.139  -0.488  0.00  0.00     0.043 A 
HETATM   36  H   UNK N   1      47.053  19.217   0.155  0.00  0.00     0.166 HD
HETATM   37  C   UNK N   1      48.367  21.200  -1.274  0.00  0.00     0.030 A 
HETATM   38  C   UNK N   1      49.339  22.054  -1.822  0.00  0.00     0.002 A 
HETATM   39  C   UNK N   1      50.712  21.818  -1.579  0.00  0.00     0.001 A 
HETATM   40  C   UNK N   1      51.123  20.728  -0.782  0.00  0.00     0.014 A 
HETATM   41  C   UNK N   1      49.826  15.244   4.823  0.00  0.00    -0.026 C 
HETATM   42  C   UNK N   1      48.993  15.579   6.021  0.00  0.00     0.036 C 
BRANCH  24  43
HETATM   43  C   UNK N   1      52.097  18.482   5.142  0.00  0.00     0.265 C 
HETATM   44  O   UNK N   1      52.288  17.455   5.777  0.00  0.00    -0.265 OA
BRANCH  43  45
HETATM   45  O   UNK N   1      52.609  19.665   5.569  0.00  0.00    -0.326 OA
HETATM   46  C   UNK N   1      53.026  20.651   4.708  0.00  0.00     0.213 C 
ENDBRANCH  43  45
ENDBRANCH  24  43
ENDBRANCH  18  21
BRANCH  19  47
HETATM   47  O   UNK N   1      45.955  15.897   1.697  0.00  0.00    -0.355 OA
HETATM   48  C   UNK N   1      45.841  15.680   0.342  0.00  0.00     0.210 C 
ENDBRANCH  19  47
BRANCH   4  49
HETATM   49  C   UNK N   1      44.274  23.593   3.153  0.00  0.00     0.275 C 
HETATM   50  O   UNK N   1      43.711  24.028   4.150  0.00  0.00    -0.264 OA
BRANCH  49  51
HETATM   51  O   UNK N   1      45.498  24.075   2.799  0.00  0.00    -0.326 OA
HETATM   52  C   UNK N   1      45.690  25.328   2.268  0.00  0.00     0.213 C 
ENDBRANCH  49  51
ENDBRANCH   4  49
BRANCH   6  53
HETATM   53  C   UNK N   1      40.741  23.809   0.517  0.00  0.00     0.002 C 
HETATM   54  C   UNK N   1      40.444  25.247   0.143  0.00  0.00     0.005 C 
ENDBRANCH   6  53
TORSDOF 7
ENDMDL
MODEL 5
REMARK VINA RESULT:      -7.6      2.932      5.069
REMARK  7 active torsions:
REMARK  status: ('A' for Active; 'I' for Inactive)
REMARK    1  A    between atoms: O_1  and  C_21 
REMARK    2  A    between atoms: O_3  and  C_31 
REMARK    3  A    between atoms: O_4  and  C_42 
REMARK    4  A    between atoms: C_11  and  C_21 
REMARK    5  A    between atoms: C_13  and  C_19 
REMARK    6  A    between atoms: C_28  and  C_29 
REMARK    7  A    between atoms: C_33  and  C_42 
ROOT
HETATM    1  N   UNK N   1      19.581  15.792   5.515  0.00  0.00     0.095 N 
HETATM    2  N   UNK N   1      22.561  12.738   5.674  0.00  0.00    -0.357 N 
HETATM    3  C   UNK N   1      19.731  15.012   6.789  0.00  0.00     0.251 C 
HETATM    4  C   UNK N   1      21.096  14.248   6.851  0.00  0.00     0.122 C 
HETATM    5  C   UNK N   1      21.688  16.719   6.390  0.00  0.00     0.016 C 
HETATM    6  C   UNK N   1      19.760  16.080   7.918  0.00  0.00     0.021 C 
HETATM    7  C   UNK N   1      22.210  15.296   6.492  0.00  0.00     0.035 C 
HETATM    8  C   UNK N   1      20.948  17.052   7.692  0.00  0.00     0.013 C 
HETATM    9  C   UNK N   1      20.685  16.729   5.246  0.00  0.00     0.277 C 
HETATM   10  C   UNK N   1      21.311  13.203   5.796  0.00  0.00     0.038 C 
HETATM   11  C   UNK N   1      19.210  15.156   4.253  0.00  0.00     0.277 C 
HETATM   12  C   UNK N   1      20.654  13.169   4.562  0.00  0.00    -0.020 C 
HETATM   13  C   UNK N   1      19.289  13.658   4.250  0.00  0.00     0.072 C 
HETATM   14  C   UNK N   1      21.650  12.911   3.650  0.00  0.00     0.002 C 
HETATM   15  C   UNK N   1      22.749  12.620   4.386  0.00  0.00     0.044 C 
HETATM   16  C   UNK N   1      21.731  13.144   2.275  0.00  0.00     0.051 C 
HETATM   17  C   UNK N   1      23.967  12.596   3.868  0.00  0.00     0.041 C 
HETATM   18  C   UNK N   1      24.174  12.962   2.540  0.00  0.00    -0.013 C 
HETATM   19  C   UNK N   1      23.044  13.203   1.696  0.00  0.00     0.076 C 
HETATM   20  H   UNK N   1      23.197  12.532   6.396  0.00  0.00     0.166 HD
ENDROOT
BRANCH  18  21
HETATM   21  C   UNK N   1      25.627  13.051   2.147  0.00  0.00     0.072 C 
HETATM   22  C   UNK N   1      26.184  12.368   3.357  0.00  0.00     0.025 C 
HETATM   23  C   UNK N   1      27.068  11.210   3.345  0.00  0.00     0.033 C 
HETATM   24  C   UNK N   1      28.321  11.777   4.002  0.00  0.00     0.127 C 
HETATM   25  C   UNK N   1      27.365  10.589   1.996  0.00  0.00    -0.051 C 
HETATM   26  C   UNK N   1      29.202  12.562   2.971  0.00  0.00     0.241 C 
HETATM   27  N   UNK N   1      29.519  11.651   1.847  0.00  0.00     0.093 N 
HETATM   28  C   UNK N   1      28.765  13.972   2.420  0.00  0.00     0.078 C 
HETATM   29  C   UNK N   1      28.308  11.321   1.093  0.00  0.00     0.306 C 
HETATM   30  C   UNK N   1      30.492  12.237   0.934  0.00  0.00     0.310 C 
HETATM   31  C   UNK N   1      27.507  14.803   2.598  0.00  0.00    -0.020 A 
HETATM   32  C   UNK N   1      26.167  14.470   2.344  0.00  0.00     0.025 A 
HETATM   33  C   UNK N   1      27.468  16.101   3.083  0.00  0.00    -0.001 A 
HETATM   34  N   UNK N   1      25.363  15.537   2.605  0.00  0.00    -0.358 N 
HETATM   35  C   UNK N   1      26.161  16.509   3.065  0.00  0.00     0.043 A 
HETATM   36  H   UNK N   1      24.388  15.586   2.480  0.00  0.00     0.166 HD
HETATM   37  C   UNK N   1      25.757  17.749   3.550  0.00  0.00     0.030 A 
HETATM   38  C   UNK N   1      26.745  18.601   4.072  0.00  0.00     0.002 A 
HETATM   39  C   UNK N   1      28.099  18.195   4.085  0.00  0.00     0.001 A 
HETATM   40  C   UNK N   1      28.475  16.932   3.579  0.00  0.00     0.014 A 
HETATM   41  C   UNK N   1      26.881   9.396   1.616  0.00  0.00    -0.026 C 
HETATM   42  C   UNK N   1      25.942   8.586   2.455  0.00  0.00     0.036 C 
BRANCH  24  43
HETATM   43  C   UNK N   1      29.022  10.646   4.714  0.00  0.00     0.265 C 
HETATM   44  O   UNK N   1      30.165  10.776   5.127  0.00  0.00    -0.265 OA
BRANCH  43  45
HETATM   45  O   UNK N   1      28.352   9.477   4.885  0.00  0.00    -0.326 OA
HETATM   46  C   UNK N   1      28.951   8.248   4.750  0.00  0.00     0.213 C 
ENDBRANCH  43  45
ENDBRANCH  24  43
ENDBRANCH  18  21
BRANCH  19  47
HETATM   47  O   UNK N   1      23.227  13.517   0.394  0.00  0.00    -0.355 OA
HETATM   48  C   UNK N   1      23.367  12.569  -0.594  0.00  0.00     0.210 C 
ENDBRANCH  19  47
BRANCH   4  49
HETATM   49  C   UNK N   1      21.520  13.717   8.219  0.00  0.00     0.275 C 
HETATM   50  O   UNK N   1      20.765  13.001   8.865  0.00  0.00    -0.264 OA
BRANCH  49  51
HETATM   51  O   UNK N   1      22.826  13.836   8.588  0.00  0.00    -0.326 OA
HETATM   52  C   UNK N   1      23.384  13.128   9.625  0.00  0.00     0.213 C 
ENDBRANCH  49  51
ENDBRANCH   4  49
BRANCH   6  53
HETATM   53  C   UNK N   1      18.478  16.904   7.955  0.00  0.00     0.002 C 
HETATM   54  C   UNK N   1      18.069  17.229   9.377  0.00  0.00     0.005 C 
ENDBRANCH   6  53
TORSDOF 7
ENDMDL
MODEL 6
REMARK VINA RESULT:      -7.1      9.575     13.685
REMARK  7 active torsions:
REMARK  status: ('A' for Active; 'I' for Inactive)
REMARK    1  A    between atoms: O_1  and  C_21 
REMARK    2  A    between atoms: O_3  and  C_31 
REMARK    3  A    between atoms: O_4  and  C_42 
REMARK    4  A    between atoms: C_11  and  C_21 
REMARK    5  A    between atoms: C_13  and  C_19 
REMARK    6  A    between atoms: C_28  and  C_29 
REMARK    7  A    between atoms: C_33  and  C_42 
ROOT
HETATM    1  N   UNK N   1      35.926  10.511  15.164  0.00  0.00     0.095 N 
HETATM    2  N   UNK N   1      37.474  12.996  12.056  0.00  0.00    -0.357 N 
HETATM    3  C   UNK N   1      36.545  11.824  15.547  0.00  0.00     0.251 C 
HETATM    4  C   UNK N   1      36.676  12.790  14.320  0.00  0.00     0.122 C 
HETATM    5  C   UNK N   1      34.192  12.088  14.407  0.00  0.00     0.016 C 
HETATM    6  C   UNK N   1      35.535  12.479  16.530  0.00  0.00     0.021 C 
HETATM    7  C   UNK N   1      35.271  12.813  13.620  0.00  0.00     0.035 C 
HETATM    8  C   UNK N   1      34.165  12.669  15.827  0.00  0.00     0.013 C 
HETATM    9  C   UNK N   1      34.624  10.631  14.487  0.00  0.00     0.277 C 
HETATM   10  C   UNK N   1      37.563  12.318  13.206  0.00  0.00     0.038 C 
HETATM   11  C   UNK N   1      36.687   9.459  14.496  0.00  0.00     0.277 C 
HETATM   12  C   UNK N   1      37.893  10.981  12.961  0.00  0.00    -0.020 C 
HETATM   13  C   UNK N   1      38.019   9.884  13.952  0.00  0.00     0.072 C 
HETATM   14  C   UNK N   1      37.739  10.832  11.604  0.00  0.00     0.002 C 
HETATM   15  C   UNK N   1      37.533  12.082  11.123  0.00  0.00     0.044 C 
HETATM   16  C   UNK N   1      37.525   9.700  10.813  0.00  0.00     0.051 C 
HETATM   17  C   UNK N   1      37.064  12.308   9.906  0.00  0.00     0.041 C 
HETATM   18  C   UNK N   1      36.676  11.246   9.093  0.00  0.00    -0.013 C 
HETATM   19  C   UNK N   1      36.942   9.906   9.518  0.00  0.00     0.076 C 
HETATM   20  H   UNK N   1      37.382  13.969  11.938  0.00  0.00     0.166 HD
ENDROOT
BRANCH  18  21
HETATM   21  C   UNK N   1      36.004  11.669   7.811  0.00  0.00     0.072 C 
HETATM   22  C   UNK N   1      37.243  12.096   7.089  0.00  0.00     0.025 C 
HETATM   23  C   UNK N   1      37.671  11.616   5.782  0.00  0.00     0.033 C 
HETATM   24  C   UNK N   1      37.642  12.901   4.961  0.00  0.00     0.127 C 
HETATM   25  C   UNK N   1      36.840  10.520   5.149  0.00  0.00    -0.051 C 
HETATM   26  C   UNK N   1      36.194  13.227   4.459  0.00  0.00     0.241 C 
HETATM   27  N   UNK N   1      35.698  12.059   3.693  0.00  0.00     0.093 N 
HETATM   28  C   UNK N   1      35.078  13.744   5.443  0.00  0.00     0.078 C 
HETATM   29  C   UNK N   1      35.512  10.905   4.576  0.00  0.00     0.306 C 
HETATM   30  C   UNK N   1      34.434  12.347   3.027  0.00  0.00     0.310 C 
HETATM   31  C   UNK N   1      35.040  13.934   6.949  0.00  0.00    -0.020 A 
HETATM   32  C   UNK N   1      35.291  13.013   7.978  0.00  0.00     0.025 A 
HETATM   33  C   UNK N   1      34.747  15.125   7.597  0.00  0.00    -0.001 A 
HETATM   34  N   UNK N   1      35.099  13.602   9.190  0.00  0.00    -0.358 N 
HETATM   35  C   UNK N   1      34.787  14.881   8.943  0.00  0.00     0.043 A 
HETATM   36  H   UNK N   1      35.174  13.174  10.073  0.00  0.00     0.166 HD
HETATM   37  C   UNK N   1      34.601  15.883   9.892  0.00  0.00     0.030 A 
HETATM   38  C   UNK N   1      34.365  17.187   9.426  0.00  0.00     0.002 A 
HETATM   39  C   UNK N   1      34.311  17.448   8.038  0.00  0.00     0.001 A 
HETATM   40  C   UNK N   1      34.497  16.407   7.104  0.00  0.00     0.014 A 
HETATM   41  C   UNK N   1      37.270   9.255   5.021  0.00  0.00    -0.026 C 
HETATM   42  C   UNK N   1      38.587   8.778   5.551  0.00  0.00     0.036 C 
BRANCH  24  43
HETATM   43  C   UNK N   1      38.685  12.781   3.878  0.00  0.00     0.265 C 
HETATM   44  O   UNK N   1      39.622  12.003   3.991  0.00  0.00    -0.265 OA
BRANCH  43  45
HETATM   45  O   UNK N   1      38.560  13.560   2.772  0.00  0.00    -0.326 OA
HETATM   46  C   UNK N   1      38.549  13.048   1.497  0.00  0.00     0.213 C 
ENDBRANCH  43  45
ENDBRANCH  24  43
ENDBRANCH  18  21
BRANCH  19  47
HETATM   47  O   UNK N   1      36.610   8.866   8.721  0.00  0.00    -0.355 OA
HETATM   48  C   UNK N   1      37.157   7.609   8.860  0.00  0.00     0.210 C 
ENDBRANCH  19  47
BRANCH   4  49
HETATM   49  C   UNK N   1      36.953  14.259  14.635  0.00  0.00     0.275 C 
HETATM   50  O   UNK N   1      36.438  15.143  13.962  0.00  0.00    -0.264 OA
BRANCH  49  51
HETATM   51  O   UNK N   1      37.563  14.569  15.813  0.00  0.00    -0.326 OA
HETATM   52  C   UNK N   1      37.545  15.829  16.363  0.00  0.00     0.213 C 
ENDBRANCH  49  51
ENDBRANCH   4  49
BRANCH   6  53
HETATM   53  C   UNK N   1      35.312  11.622  17.771  0.00  0.00     0.002 C 
HETATM   54  C   UNK N   1      35.312  12.461  19.032  0.00  0.00     0.005 C 
ENDBRANCH   6  53
TORSDOF 7
ENDMDL
MODEL 7
REMARK VINA RESULT:      -7.1      3.119      8.849
REMARK  7 active torsions:
REMARK  status: ('A' for Active; 'I' for Inactive)
REMARK    1  A    between atoms: O_1  and  C_21 
REMARK    2  A    between atoms: O_3  and  C_31 
REMARK    3  A    between atoms: O_4  and  C_42 
REMARK    4  A    between atoms: C_11  and  C_21 
REMARK    5  A    between atoms: C_13  and  C_19 
REMARK    6  A    between atoms: C_28  and  C_29 
REMARK    7  A    between atoms: C_33  and  C_42 
ROOT
HETATM    1  N   UNK N   1      27.465  10.148   2.675  0.00  0.00     0.095 N 
HETATM    2  N   UNK N   1      25.178  13.747   2.465  0.00  0.00    -0.357 N 
HETATM    3  C   UNK N   1      28.133  11.384   2.147  0.00  0.00     0.251 C 
HETATM    4  C   UNK N   1      27.339  12.682   2.515  0.00  0.00     0.122 C 
HETATM    5  C   UNK N   1      27.754  11.449   4.746  0.00  0.00     0.016 C 
HETATM    6  C   UNK N   1      29.494  11.460   2.893  0.00  0.00     0.021 C 
HETATM    7  C   UNK N   1      27.047  12.603   4.056  0.00  0.00     0.035 C 
HETATM    8  C   UNK N   1      29.251  11.544   4.423  0.00  0.00     0.013 C 
HETATM    9  C   UNK N   1      27.204  10.174   4.125  0.00  0.00     0.277 C 
HETATM   10  C   UNK N   1      25.954  12.787   1.948  0.00  0.00     0.038 C 
HETATM   11  C   UNK N   1      26.305   9.550   2.018  0.00  0.00     0.277 C 
HETATM   12  C   UNK N   1      25.177  11.700   1.535  0.00  0.00    -0.020 C 
HETATM   13  C   UNK N   1      25.650  10.410   0.978  0.00  0.00     0.072 C 
HETATM   14  C   UNK N   1      23.934  11.944   2.067  0.00  0.00     0.002 C 
HETATM   15  C   UNK N   1      23.994  13.201   2.568  0.00  0.00     0.044 C 
HETATM   16  C   UNK N   1      22.866  11.091   2.359  0.00  0.00     0.051 C 
HETATM   17  C   UNK N   1      23.086  13.679   3.405  0.00  0.00     0.041 C 
HETATM   18  C   UNK N   1      22.064  12.858   3.877  0.00  0.00    -0.013 C 
HETATM   19  C   UNK N   1      21.906  11.549   3.323  0.00  0.00     0.076 C 
HETATM   20  H   UNK N   1      25.440  14.663   2.713  0.00  0.00     0.166 HD
ENDROOT
BRANCH  18  21
HETATM   21  C   UNK N   1      21.215  13.492   4.950  0.00  0.00     0.072 C 
HETATM   22  C   UNK N   1      21.949  14.795   5.016  0.00  0.00     0.025 C 
HETATM   23  C   UNK N   1      21.350  16.114   4.869  0.00  0.00     0.033 C 
HETATM   24  C   UNK N   1      21.635  16.733   6.233  0.00  0.00     0.127 C 
HETATM   25  C   UNK N   1      19.878  16.163   4.520  0.00  0.00    -0.051 C 
HETATM   26  C   UNK N   1      20.578  16.282   7.297  0.00  0.00     0.241 C 
HETATM   27  N   UNK N   1      19.232  16.636   6.789  0.00  0.00     0.093 N 
HETATM   28  C   UNK N   1      20.569  14.819   7.881  0.00  0.00     0.078 C 
HETATM   29  C   UNK N   1      18.901  15.838   5.606  0.00  0.00     0.306 C 
HETATM   30  C   UNK N   1      18.201  16.427   7.797  0.00  0.00     0.310 C 
HETATM   31  C   UNK N   1      21.374  13.574   7.553  0.00  0.00    -0.020 A 
HETATM   32  C   UNK N   1      21.540  12.909   6.328  0.00  0.00     0.025 A 
HETATM   33  C   UNK N   1      22.134  12.851   8.459  0.00  0.00    -0.001 A 
HETATM   34  N   UNK N   1      22.314  11.803   6.497  0.00  0.00    -0.358 N 
HETATM   35  C   UNK N   1      22.678  11.790   7.786  0.00  0.00     0.043 A 
HETATM   36  H   UNK N   1      22.558  11.141   5.811  0.00  0.00     0.166 HD
HETATM   37  C   UNK N   1      23.555  10.892   8.388  0.00  0.00     0.030 A 
HETATM   38  C   UNK N   1      23.879  11.101   9.739  0.00  0.00     0.002 A 
HETATM   39  C   UNK N   1      23.315  12.187  10.447  0.00  0.00     0.001 A 
HETATM   40  C   UNK N   1      22.424  13.075   9.807  0.00  0.00     0.014 A 
HETATM   41  C   UNK N   1      19.421  16.546   3.317  0.00  0.00    -0.026 C 
HETATM   42  C   UNK N   1      20.320  16.901   2.173  0.00  0.00     0.036 C 
BRANCH  24  43
HETATM   43  C   UNK N   1      21.762  18.225   6.046  0.00  0.00     0.265 C 
HETATM   44  O   UNK N   1      21.205  19.002   6.807  0.00  0.00    -0.265 OA
BRANCH  43  45
HETATM   45  O   UNK N   1      22.509  18.685   5.010  0.00  0.00    -0.326 OA
HETATM   46  C   UNK N   1      23.879  18.581   4.974  0.00  0.00     0.213 C 
ENDBRANCH  43  45
ENDBRANCH  24  43
ENDBRANCH  18  21
BRANCH  19  47
HETATM   47  O   UNK N   1      20.893  10.756   3.740  0.00  0.00    -0.355 OA
HETATM   48  C   UNK N   1      19.667  10.715   3.114  0.00  0.00     0.210 C 
ENDBRANCH  19  47
BRANCH   4  49
HETATM   49  C   UNK N   1      28.082  14.007   2.350  0.00  0.00     0.275 C 
HETATM   50  O   UNK N   1      28.576  14.308   1.271  0.00  0.00    -0.264 OA
BRANCH  49  51
HETATM   51  O   UNK N   1      27.966  14.945   3.331  0.00  0.00    -0.326 OA
HETATM   52  C   UNK N   1      28.644  16.141   3.315  0.00  0.00     0.213 C 
ENDBRANCH  49  51
ENDBRANCH   4  49
BRANCH   6  53
HETATM   53  C   UNK N   1      30.362  10.237   2.621  0.00  0.00     0.002 C 
HETATM   54  C   UNK N   1      30.773  10.162   1.165  0.00  0.00     0.005 C 
ENDBRANCH   6  53
TORSDOF 7
ENDMDL
MODEL 8
REMARK VINA RESULT:      -7.1     12.794     15.421
REMARK  7 active torsions:
REMARK  status: ('A' for Active; 'I' for Inactive)
REMARK    1  A    between atoms: O_1  and  C_21 
REMARK    2  A    between atoms: O_3  and  C_31 
REMARK    3  A    between atoms: O_4  and  C_42 
REMARK    4  A    between atoms: C_11  and  C_21 
REMARK    5  A    between atoms: C_13  and  C_19 
REMARK    6  A    between atoms: C_28  and  C_29 
REMARK    7  A    between atoms: C_33  and  C_42 
ROOT
HETATM    1  N   UNK N   1      26.747  26.749  -6.486  0.00  0.00     0.095 N 
HETATM    2  N   UNK N   1      28.121  22.751  -5.884  0.00  0.00    -0.357 N 
HETATM    3  C   UNK N   1      26.421  26.075  -5.185  0.00  0.00     0.251 C 
HETATM    4  C   UNK N   1      27.321  24.817  -4.936  0.00  0.00     0.122 C 
HETATM    5  C   UNK N   1      28.946  26.774  -5.378  0.00  0.00     0.016 C 
HETATM    6  C   UNK N   1      26.783  27.113  -4.087  0.00  0.00     0.021 C 
HETATM    7  C   UNK N   1      28.803  25.275  -5.178  0.00  0.00     0.035 C 
HETATM    8  C   UNK N   1      28.287  27.481  -4.186  0.00  0.00     0.013 C 
HETATM    9  C   UNK N   1      28.165  27.116  -6.638  0.00  0.00     0.277 C 
HETATM   10  C   UNK N   1      27.180  23.703  -5.930  0.00  0.00     0.038 C 
HETATM   11  C   UNK N   1      26.275  26.233  -7.769  0.00  0.00     0.277 C 
HETATM   12  C   UNK N   1      26.702  23.854  -7.236  0.00  0.00    -0.020 C 
HETATM   13  C   UNK N   1      25.712  24.843  -7.727  0.00  0.00     0.072 C 
HETATM   14  C   UNK N   1      27.583  23.137  -8.009  0.00  0.00     0.002 C 
HETATM   15  C   UNK N   1      28.374  22.470  -7.136  0.00  0.00     0.044 C 
HETATM   16  C   UNK N   1      27.897  23.212  -9.369  0.00  0.00     0.051 C 
HETATM   17  C   UNK N   1      29.513  21.901  -7.497  0.00  0.00     0.041 C 
HETATM   18  C   UNK N   1      29.991  22.048  -8.797  0.00  0.00    -0.013 C 
HETATM   19  C   UNK N   1      29.162  22.675  -9.781  0.00  0.00     0.076 C 
HETATM   20  H   UNK N   1      28.533  22.352  -5.084  0.00  0.00     0.166 HD
ENDROOT
BRANCH  18  21
HETATM   21  C   UNK N   1      31.378  21.493  -9.007  0.00  0.00     0.072 C 
HETATM   22  C   UNK N   1      30.984  20.052  -9.099  0.00  0.00     0.025 C 
HETATM   23  C   UNK N   1      31.314  19.152 -10.195  0.00  0.00     0.033 C 
HETATM   24  C   UNK N   1      32.167  18.107  -9.486  0.00  0.00     0.127 C 
HETATM   25  C   UNK N   1      32.028  19.755 -11.386  0.00  0.00    -0.051 C 
HETATM   26  C   UNK N   1      33.649  18.589  -9.329  0.00  0.00     0.241 C 
HETATM   27  N   UNK N   1      34.170  18.921 -10.676  0.00  0.00     0.093 N 
HETATM   28  C   UNK N   1      34.045  19.716  -8.302  0.00  0.00     0.078 C 
HETATM   29  C   UNK N   1      33.477  20.090 -11.223  0.00  0.00     0.306 C 
HETATM   30  C   UNK N   1      35.601  19.198 -10.648  0.00  0.00     0.310 C 
HETATM   31  C   UNK N   1      33.225  20.612  -7.390  0.00  0.00    -0.020 A 
HETATM   32  C   UNK N   1      32.176  21.491  -7.701  0.00  0.00     0.025 A 
HETATM   33  C   UNK N   1      33.377  20.707  -6.015  0.00  0.00    -0.001 A 
HETATM   34  N   UNK N   1      31.754  22.132  -6.577  0.00  0.00    -0.358 N 
HETATM   35  C   UNK N   1      32.478  21.636  -5.565  0.00  0.00     0.043 A 
HETATM   36  H   UNK N   1      31.056  22.824  -6.518  0.00  0.00     0.166 HD
HETATM   37  C   UNK N   1      32.320  21.931  -4.214  0.00  0.00     0.030 A 
HETATM   38  C   UNK N   1      33.124  21.237  -3.294  0.00  0.00     0.002 A 
HETATM   39  C   UNK N   1      34.063  20.283  -3.749  0.00  0.00     0.001 A 
HETATM   40  C   UNK N   1      34.202  20.013  -5.128  0.00  0.00     0.014 A 
HETATM   41  C   UNK N   1      31.441  19.932 -12.581  0.00  0.00    -0.026 C 
HETATM   42  C   UNK N   1      30.001  19.616 -12.843  0.00  0.00     0.036 C 
BRANCH  24  43
HETATM   43  C   UNK N   1      31.992  16.796 -10.213  0.00  0.00     0.265 C 
HETATM   44  O   UNK N   1      32.847  15.924 -10.150  0.00  0.00    -0.265 OA
BRANCH  43  45
HETATM   45  O   UNK N   1      30.862  16.607 -10.942  0.00  0.00    -0.326 OA
HETATM   46  C   UNK N   1      30.862  16.001 -12.174  0.00  0.00     0.213 C 
ENDBRANCH  43  45
ENDBRANCH  24  43
ENDBRANCH  18  21
BRANCH  19  47
HETATM   47  O   UNK N   1      29.594  22.787 -11.057  0.00  0.00    -0.355 OA
HETATM   48  C   UNK N   1      28.907  23.487 -12.023  0.00  0.00     0.210 C 
ENDBRANCH  19  47
BRANCH   4  49
HETATM   49  C   UNK N   1      27.337  24.261  -3.513  0.00  0.00     0.275 C 
HETATM   50  O   UNK N   1      26.294  23.910  -2.975  0.00  0.00    -0.264 OA
BRANCH  49  51
HETATM   51  O   UNK N   1      28.535  23.926  -2.958  0.00  0.00    -0.326 OA
HETATM   52  C   UNK N   1      28.660  23.047  -1.909  0.00  0.00     0.213 C 
ENDBRANCH  49  51
ENDBRANCH   4  49
BRANCH   6  53
HETATM   53  C   UNK N   1      25.974  28.398  -4.231  0.00  0.00     0.002 C 
HETATM   54  C   UNK N   1      26.850  29.624  -4.074  0.00  0.00     0.005 C 
ENDBRANCH   6  53
TORSDOF 7
ENDMDL
MODEL 9
REMARK VINA RESULT:      -7.0     12.459     14.824
REMARK  7 active torsions:
REMARK  status: ('A' for Active; 'I' for Inactive)
REMARK    1  A    between atoms: O_1  and  C_21 
REMARK    2  A    between atoms: O_3  and  C_31 
REMARK    3  A    between atoms: O_4  and  C_42 
REMARK    4  A    between atoms: C_11  and  C_21 
REMARK    5  A    between atoms: C_13  and  C_19 
REMARK    6  A    between atoms: C_28  and  C_29 
REMARK    7  A    between atoms: C_33  and  C_42 
ROOT
HETATM    1  N   UNK N   1      26.658  26.084  -6.270  0.00  0.00     0.095 N 
HETATM    2  N   UNK N   1      28.962  22.593  -5.417  0.00  0.00    -0.357 N 
HETATM    3  C   UNK N   1      26.539  25.472  -4.905  0.00  0.00     0.251 C 
HETATM    4  C   UNK N   1      27.720  24.489  -4.600  0.00  0.00     0.122 C 
HETATM    5  C   UNK N   1      28.818  26.726  -5.278  0.00  0.00     0.016 C 
HETATM    6  C   UNK N   1      26.675  26.661  -3.913  0.00  0.00     0.021 C 
HETATM    7  C   UNK N   1      29.043  25.259  -4.951  0.00  0.00     0.035 C 
HETATM    8  C   UNK N   1      28.044  27.362  -4.116  0.00  0.00     0.013 C 
HETATM    9  C   UNK N   1      27.942  26.760  -6.521  0.00  0.00     0.277 C 
HETATM   10  C   UNK N   1      27.821  23.288  -5.493  0.00  0.00     0.038 C 
HETATM   11  C   UNK N   1      26.285  25.359  -7.482  0.00  0.00     0.277 C 
HETATM   12  C   UNK N   1      27.282  23.205  -6.781  0.00  0.00    -0.020 C 
HETATM   13  C   UNK N   1      26.071  23.885  -7.301  0.00  0.00     0.072 C 
HETATM   14  C   UNK N   1      28.286  22.649  -7.537  0.00  0.00     0.002 C 
HETATM   15  C   UNK N   1      29.238  22.267  -6.653  0.00  0.00     0.044 C 
HETATM   16  C   UNK N   1      28.533  22.673  -8.913  0.00  0.00     0.051 C 
HETATM   17  C   UNK N   1      30.470  21.953  -7.024  0.00  0.00     0.041 C 
HETATM   18  C   UNK N   1      30.860  22.090  -8.353  0.00  0.00    -0.013 C 
HETATM   19  C   UNK N   1      29.878  22.414  -9.342  0.00  0.00     0.076 C 
HETATM   20  H   UNK N   1      29.480  22.375  -4.609  0.00  0.00     0.166 HD
ENDROOT
BRANCH  18  21
HETATM   21  C   UNK N   1      32.333  21.860  -8.586  0.00  0.00     0.072 C 
HETATM   22  C   UNK N   1      32.516  20.793  -7.553  0.00  0.00     0.025 C 
HETATM   23  C   UNK N   1      33.077  19.471  -7.790  0.00  0.00     0.033 C 
HETATM   24  C   UNK N   1      34.319  19.504  -6.907  0.00  0.00     0.127 C 
HETATM   25  C   UNK N   1      33.410  19.115  -9.224  0.00  0.00    -0.051 C 
HETATM   26  C   UNK N   1      35.511  20.227  -7.622  0.00  0.00     0.241 C 
HETATM   27  N   UNK N   1      35.757  19.544  -8.913  0.00  0.00     0.093 N 
HETATM   28  C   UNK N   1      35.524  21.789  -7.824  0.00  0.00     0.078 C 
HETATM   29  C   UNK N   1      34.629  19.743  -9.825  0.00  0.00     0.306 C 
HETATM   30  C   UNK N   1      36.970  20.030  -9.558  0.00  0.00     0.310 C 
HETATM   31  C   UNK N   1      34.498  22.873  -7.542  0.00  0.00    -0.020 A 
HETATM   32  C   UNK N   1      33.171  22.991  -7.984  0.00  0.00     0.025 A 
HETATM   33  C   UNK N   1      34.710  23.986  -6.743  0.00  0.00    -0.001 A 
HETATM   34  N   UNK N   1      32.626  24.150  -7.525  0.00  0.00    -0.358 N 
HETATM   35  C   UNK N   1      33.562  24.732  -6.764  0.00  0.00     0.043 A 
HETATM   36  H   UNK N   1      31.723  24.494  -7.714  0.00  0.00     0.166 HD
HETATM   37  C   UNK N   1      33.409  25.892  -6.009  0.00  0.00     0.030 A 
HETATM   38  C   UNK N   1      34.487  26.295  -5.204  0.00  0.00     0.002 A 
HETATM   39  C   UNK N   1      35.681  25.538  -5.184  0.00  0.00     0.001 A 
HETATM   40  C   UNK N   1      35.804  24.370  -5.966  0.00  0.00     0.014 A 
HETATM   41  C   UNK N   1      32.708  18.221  -9.940  0.00  0.00    -0.026 C 
HETATM   42  C   UNK N   1      31.483  17.534  -9.421  0.00  0.00     0.036 C 
BRANCH  24  43
HETATM   43  C   UNK N   1      34.603  18.092  -6.456  0.00  0.00     0.265 C 
HETATM   44  O   UNK N   1      34.787  17.198  -7.269  0.00  0.00    -0.265 OA
BRANCH  43  45
HETATM   45  O   UNK N   1      34.649  17.837  -5.123  0.00  0.00    -0.326 OA
HETATM   46  C   UNK N   1      34.224  18.736  -4.176  0.00  0.00     0.213 C 
ENDBRANCH  43  45
ENDBRANCH  24  43
ENDBRANCH  18  21
BRANCH  19  47
HETATM   47  O   UNK N   1      30.234  22.509 -10.643  0.00  0.00    -0.355 OA
HETATM   48  C   UNK N   1      30.046  23.650 -11.390  0.00  0.00     0.210 C 
ENDBRANCH  19  47
BRANCH   4  49
HETATM   49  C   UNK N   1      27.909  24.083  -3.139  0.00  0.00     0.275 C 
HETATM   50  O   UNK N   1      26.973  23.620  -2.500  0.00  0.00    -0.264 OA
BRANCH  49  51
HETATM   51  O   UNK N   1      29.176  24.001  -2.645  0.00  0.00    -0.326 OA
HETATM   52  C   UNK N   1      29.660  22.893  -1.990  0.00  0.00     0.213 C 
ENDBRANCH  49  51
ENDBRANCH   4  49
BRANCH   6  53
HETATM   53  C   UNK N   1      25.579  27.701  -4.119  0.00  0.00     0.002 C 
HETATM   54  C   UNK N   1      26.130  29.110  -4.033  0.00  0.00     0.005 C 
ENDBRANCH   6  53
TORSDOF 7
ENDMDL
