MODEL 1
REMARK VINA RESULT:      -9.6      0.000      0.000
REMARK  22 active torsions:
REMARK  status: ('A' for Active; 'I' for Inactive)
REMARK    1  A    between atoms: S_1  and  O_7 
REMARK    2  A    between atoms: S_1  and  C_40 
REMARK    3  A    between atoms: S_2  and  O_8 
REMARK    4  A    between atoms: S_2  and  C_41 
REMARK    5  A    between atoms: S_3  and  O_9 
REMARK    6  A    between atoms: S_3  and  C_42 
REMARK    7  A    between atoms: S_4  and  O_10 
REMARK    8  A    between atoms: S_4  and  C_43 
REMARK    9  A    between atoms: S_5  and  O_15 
REMARK   10  A    between atoms: S_5  and  C_48 
REMARK   11  A    between atoms: S_6  and  O_16 
REMARK   12  A    between atoms: S_6  and  C_49 
REMARK   13  A    between atoms: N_30  and  C_44 
REMARK       I    between atoms: N_30  and  C_56 
REMARK   14  A    between atoms: N_31  and  C_45 
REMARK       I    between atoms: N_31  and  C_57 
REMARK   15  A    between atoms: N_32  and  C_62 
REMARK       I    between atoms: N_32  and  C_72 
REMARK   16  A    between atoms: N_33  and  C_63 
REMARK       I    between atoms: N_33  and  C_73 
REMARK   17  A    between atoms: N_34  and  C_78 
REMARK       I    between atoms: N_34  and  C_86 
REMARK   18  A    between atoms: N_35  and  C_79 
REMARK       I    between atoms: N_35  and  C_86 
REMARK   19  A    between atoms: C_56  and  C_58 
REMARK   20  A    between atoms: C_57  and  C_59 
REMARK   21  A    between atoms: C_72  and  C_74 
REMARK   22  A    between atoms: C_73  and  C_75 
ROOT
HETATM    1  O   UNK N   1      32.302  10.692   6.570  0.00  0.00    -0.247 OA
HETATM    2  N   UNK N   1      33.589  12.005   5.273  0.00  0.00    -0.309 N 
HETATM    3  N   UNK N   1      34.222  11.395   7.455  0.00  0.00    -0.309 N 
HETATM    4  C   UNK N   1      33.370  11.293   6.410  0.00  0.00     0.325 C 
HETATM    5  H   UNK N   1      34.484  11.987   4.862  0.00  0.00     0.170 HD
HETATM    6  H   UNK N   1      34.106  10.844   8.263  0.00  0.00     0.170 HD
ENDROOT
BRANCH   2   7
HETATM    7  C   UNK N   1      32.573  12.767   4.666  0.00  0.00     0.037 A 
HETATM    8  C   UNK N   1      32.888  14.081   4.349  0.00  0.00     0.046 A 
HETATM    9  C   UNK N   1      32.087  14.851   3.550  0.00  0.00     0.034 A 
HETATM   10  C   UNK N   1      30.912  14.278   3.016  0.00  0.00     0.017 A 
HETATM   11  C   UNK N   1      30.583  12.943   3.303  0.00  0.00     0.003 A 
HETATM   12  C   UNK N   1      31.433  12.173   4.112  0.00  0.00     0.029 A 
BRANCH   9  13
HETATM   13  C   UNK N   1      32.569  16.227   3.220  0.00  0.00     0.256 C 
HETATM   14  O   UNK N   1      33.442  16.367   2.377  0.00  0.00    -0.267 OA
HETATM   15  N   UNK N   1      32.077  17.323   3.851  0.00  0.00    -0.322 N 
HETATM   16  H   UNK N   1      32.110  18.206   3.416  0.00  0.00     0.169 HD
BRANCH  15  17
HETATM   17  C   UNK N   1      31.518  17.181   5.136  0.00  0.00     0.042 A 
HETATM   18  C   UNK N   1      30.140  17.042   5.221  0.00  0.00     0.047 A 
HETATM   19  C   UNK N   1      29.487  17.002   6.432  0.00  0.00     0.034 A 
HETATM   20  C   UNK N   1      30.235  17.100   7.615  0.00  0.00     0.018 A 
HETATM   21  C   UNK N   1      31.637  17.196   7.547  0.00  0.00     0.010 A 
HETATM   22  C   UNK N   1      32.287  17.223   6.302  0.00  0.00    -0.035 A 
HETATM   23  C   UNK N   1      33.768  17.352   6.233  0.00  0.00     0.050 C 
BRANCH  19  24
HETATM   24  C   UNK N   1      28.045  16.722   6.412  0.00  0.00     0.256 C 
HETATM   25  O   UNK N   1      27.442  16.487   7.450  0.00  0.00    -0.267 OA
HETATM   26  N   UNK N   1      27.426  16.602   5.204  0.00  0.00    -0.322 N 
HETATM   27  H   UNK N   1      27.918  16.857   4.390  0.00  0.00     0.169 HD
BRANCH  26  28
HETATM   28  C   UNK N   1      26.108  16.126   5.079  0.00  0.00     0.047 A 
HETATM   29  C   UNK N   1      25.012  16.973   4.721  0.00  0.00     0.026 A 
HETATM   30  C   UNK N   1      23.753  16.340   4.445  0.00  0.00     0.003 A 
HETATM   31  C   UNK N   1      25.080  18.412   4.599  0.00  0.00     0.087 A 
HETATM   32  C   UNK N   1      23.616  14.939   4.561  0.00  0.00     0.083 A 
HETATM   33  C   UNK N   1      22.654  17.105   4.023  0.00  0.00     0.039 A 
HETATM   34  C   UNK N   1      24.691  14.167   4.980  0.00  0.00     0.028 A 
HETATM   35  C   UNK N   1      25.920  14.752   5.231  0.00  0.00     0.032 A 
HETATM   36  C   UNK N   1      22.750  18.484   3.882  0.00  0.00     0.074 A 
HETATM   37  C   UNK N   1      23.962  19.103   4.174  0.00  0.00     0.051 A 
BRANCH  32  38
HETATM   38  S   UNK N   1      22.092  14.092   4.118  0.00  0.00     0.130 S 
HETATM   39  O   UNK N   1      22.247  12.573   4.290  0.00  0.00    -0.598 OA
HETATM   40  O   UNK N   1      21.820  14.175   2.608  0.00  0.00    -0.598 OA
BRANCH  38  41
HETATM   41  O   UNK N   1      20.608  14.484   4.883  0.00  0.00    -0.292 OA
HETATM   42  H   UNK N   1      19.656  14.479   4.696  0.00  0.00     0.232 HD
ENDBRANCH  38  41
ENDBRANCH  32  38
BRANCH  36  43
HETATM   43  S   UNK N   1      21.348  19.430   3.200  0.00  0.00     0.129 S 
HETATM   44  O   UNK N   1      21.232  19.482   4.734  0.00  0.00    -0.598 OA
HETATM   45  O   UNK N   1      22.216  20.696   3.099  0.00  0.00    -0.598 OA
BRANCH  43  46
HETATM   46  O   UNK N   1      19.994  20.422   3.555  0.00  0.00    -0.292 OA
HETATM   47  H   UNK N   1      20.002  21.256   4.049  0.00  0.00     0.232 HD
ENDBRANCH  43  46
ENDBRANCH  36  43
BRANCH  31  48
HETATM   48  S   UNK N   1      26.449  19.533   4.961  0.00  0.00     0.130 S 
HETATM   49  O   UNK N   1      26.076  21.010   4.782  0.00  0.00    -0.598 OA
HETATM   50  O   UNK N   1      27.745  19.362   4.155  0.00  0.00    -0.598 OA
BRANCH  48  51
HETATM   51  O   UNK N   1      26.975  19.490   6.595  0.00  0.00    -0.292 OA
HETATM   52  H   UNK N   1      26.929  20.206   7.247  0.00  0.00     0.232 HD
ENDBRANCH  48  51
ENDBRANCH  31  48
ENDBRANCH  26  28
ENDBRANCH  19  24
ENDBRANCH  15  17
ENDBRANCH   9  13
ENDBRANCH   2   7
BRANCH   3  53
HETATM   53  C   UNK N   1      35.287  12.323   7.346  0.00  0.00     0.037 A 
HETATM   54  C   UNK N   1      36.409  11.889   6.705  0.00  0.00     0.046 A 
HETATM   55  C   UNK N   1      37.321  12.768   6.154  0.00  0.00     0.034 A 
HETATM   56  C   UNK N   1      37.141  14.148   6.327  0.00  0.00     0.017 A 
HETATM   57  C   UNK N   1      36.004  14.615   6.993  0.00  0.00     0.003 A 
HETATM   58  C   UNK N   1      35.034  13.701   7.431  0.00  0.00     0.029 A 
BRANCH  55  59
HETATM   59  C   UNK N   1      38.036  12.305   4.948  0.00  0.00     0.256 C 
HETATM   60  O   UNK N   1      37.557  12.542   3.852  0.00  0.00    -0.267 OA
HETATM   61  N   UNK N   1      39.000  11.339   5.047  0.00  0.00    -0.322 N 
HETATM   62  H   UNK N   1      39.032  10.646   4.350  0.00  0.00     0.169 HD
BRANCH  61  63
HETATM   63  C   UNK N   1      39.956  11.273   6.092  0.00  0.00     0.042 A 
HETATM   64  C   UNK N   1      39.766  10.259   6.984  0.00  0.00     0.047 A 
HETATM   65  C   UNK N   1      40.438  10.215   8.163  0.00  0.00     0.034 A 
HETATM   66  C   UNK N   1      41.429  11.162   8.453  0.00  0.00     0.018 A 
HETATM   67  C   UNK N   1      41.704  12.169   7.531  0.00  0.00     0.010 A 
HETATM   68  C   UNK N   1      40.921  12.272   6.372  0.00  0.00    -0.035 A 
HETATM   69  C   UNK N   1      41.094  13.460   5.502  0.00  0.00     0.050 C 
BRANCH  65  70
HETATM   70  C   UNK N   1      39.760   9.533   9.236  0.00  0.00     0.256 C 
HETATM   71  O   UNK N   1      40.065   8.369   9.442  0.00  0.00    -0.267 OA
HETATM   72  N   UNK N   1      38.904  10.122  10.104  0.00  0.00    -0.322 N 
HETATM   73  H   UNK N   1      38.657   9.464  10.794  0.00  0.00     0.169 HD
BRANCH  72  74
HETATM   74  C   UNK N   1      38.229  11.340  10.386  0.00  0.00     0.047 A 
HETATM   75  C   UNK N   1      37.293  11.317  11.445  0.00  0.00     0.026 A 
HETATM   76  C   UNK N   1      36.589  12.516  11.786  0.00  0.00     0.003 A 
HETATM   77  C   UNK N   1      37.011  10.112  12.185  0.00  0.00     0.087 A 
HETATM   78  C   UNK N   1      36.818  13.706  11.056  0.00  0.00     0.083 A 
HETATM   79  C   UNK N   1      35.670  12.496  12.849  0.00  0.00     0.039 A 
HETATM   80  C   UNK N   1      37.746  13.700  10.010  0.00  0.00     0.028 A 
HETATM   81  C   UNK N   1      38.444  12.534   9.680  0.00  0.00     0.032 A 
HETATM   82  C   UNK N   1      35.447  11.314  13.560  0.00  0.00     0.074 A 
HETATM   83  C   UNK N   1      36.102  10.155  13.216  0.00  0.00     0.051 A 
BRANCH  78  84
HETATM   84  S   UNK N   1      35.916  15.238  11.405  0.00  0.00     0.130 S 
HETATM   85  O   UNK N   1      36.104  15.690  12.862  0.00  0.00    -0.598 OA
HETATM   86  O   UNK N   1      36.524  16.431  10.650  0.00  0.00    -0.598 OA
BRANCH  84  87
HETATM   87  O   UNK N   1      34.225  15.347  11.128  0.00  0.00    -0.292 OA
HETATM   88  H   UNK N   1      33.635  15.993  11.549  0.00  0.00     0.232 HD
ENDBRANCH  84  87
ENDBRANCH  78  84
BRANCH  82  89
HETATM   89  S   UNK N   1      34.378  11.233  14.975  0.00  0.00     0.129 S 
HETATM   90  O   UNK N   1      32.953  10.776  14.641  0.00  0.00    -0.598 OA
HETATM   91  O   UNK N   1      34.121  12.661  15.483  0.00  0.00    -0.598 OA
BRANCH  89  92
HETATM   92  O   UNK N   1      34.876  10.365  16.369  0.00  0.00    -0.292 OA
HETATM   93  H   UNK N   1      35.254   9.572  16.780  0.00  0.00     0.232 HD
ENDBRANCH  89  92
ENDBRANCH  82  89
BRANCH  77  94
HETATM   94  S   UNK N   1      37.723   8.463  11.897  0.00  0.00     0.130 S 
HETATM   95  O   UNK N   1      39.215   8.375  12.264  0.00  0.00    -0.598 OA
HETATM   96  O   UNK N   1      37.134   7.428  12.863  0.00  0.00    -0.598 OA
BRANCH  94  97
HETATM   97  O   UNK N   1      37.557   7.730  10.348  0.00  0.00    -0.292 OA
HETATM   98  H   UNK N   1      37.508   6.840   9.967  0.00  0.00     0.232 HD
ENDBRANCH  94  97
ENDBRANCH  77  94
ENDBRANCH  72  74
ENDBRANCH  65  70
ENDBRANCH  61  63
ENDBRANCH  55  59
ENDBRANCH   3  53
TORSDOF 22
ENDMDL
MODEL 2
REMARK VINA RESULT:      -9.5      5.144      9.280
REMARK  22 active torsions:
REMARK  status: ('A' for Active; 'I' for Inactive)
REMARK    1  A    between atoms: S_1  and  O_7 
REMARK    2  A    between atoms: S_1  and  C_40 
REMARK    3  A    between atoms: S_2  and  O_8 
REMARK    4  A    between atoms: S_2  and  C_41 
REMARK    5  A    between atoms: S_3  and  O_9 
REMARK    6  A    between atoms: S_3  and  C_42 
REMARK    7  A    between atoms: S_4  and  O_10 
REMARK    8  A    between atoms: S_4  and  C_43 
REMARK    9  A    between atoms: S_5  and  O_15 
REMARK   10  A    between atoms: S_5  and  C_48 
REMARK   11  A    between atoms: S_6  and  O_16 
REMARK   12  A    between atoms: S_6  and  C_49 
REMARK   13  A    between atoms: N_30  and  C_44 
REMARK       I    between atoms: N_30  and  C_56 
REMARK   14  A    between atoms: N_31  and  C_45 
REMARK       I    between atoms: N_31  and  C_57 
REMARK   15  A    between atoms: N_32  and  C_62 
REMARK       I    between atoms: N_32  and  C_72 
REMARK   16  A    between atoms: N_33  and  C_63 
REMARK       I    between atoms: N_33  and  C_73 
REMARK   17  A    between atoms: N_34  and  C_78 
REMARK       I    between atoms: N_34  and  C_86 
REMARK   18  A    between atoms: N_35  and  C_79 
REMARK       I    between atoms: N_35  and  C_86 
REMARK   19  A    between atoms: C_56  and  C_58 
REMARK   20  A    between atoms: C_57  and  C_59 
REMARK   21  A    between atoms: C_72  and  C_74 
REMARK   22  A    between atoms: C_73  and  C_75 
ROOT
HETATM    1  O   UNK N   1      27.110  16.610   2.808  0.00  0.00    -0.247 OA
HETATM    2  N   UNK N   1      27.686  14.628   1.911  0.00  0.00    -0.309 N 
HETATM    3  N   UNK N   1      25.441  15.247   2.245  0.00  0.00    -0.309 N 
HETATM    4  C   UNK N   1      26.758  15.552   2.275  0.00  0.00     0.325 C 
HETATM    5  H   UNK N   1      27.567  14.139   1.065  0.00  0.00     0.170 HD
HETATM    6  H   UNK N   1      24.755  15.924   2.452  0.00  0.00     0.170 HD
ENDROOT
BRANCH   2   7
HETATM    7  C   UNK N   1      28.811  14.350   2.710  0.00  0.00     0.037 A 
HETATM    8  C   UNK N   1      29.854  15.263   2.654  0.00  0.00     0.046 A 
HETATM    9  C   UNK N   1      30.890  15.244   3.547  0.00  0.00     0.034 A 
HETATM   10  C   UNK N   1      30.884  14.271   4.571  0.00  0.00     0.017 A 
HETATM   11  C   UNK N   1      29.827  13.349   4.664  0.00  0.00     0.003 A 
HETATM   12  C   UNK N   1      28.770  13.405   3.743  0.00  0.00     0.029 A 
BRANCH   9  13
HETATM   13  C   UNK N   1      31.916  16.324   3.430  0.00  0.00     0.256 C 
HETATM   14  O   UNK N   1      32.727  16.280   2.518  0.00  0.00    -0.267 OA
HETATM   15  N   UNK N   1      31.984  17.341   4.326  0.00  0.00    -0.322 N 
HETATM   16  H   UNK N   1      32.387  18.203   4.073  0.00  0.00     0.169 HD
BRANCH  15  17
HETATM   17  C   UNK N   1      31.472  17.146   5.624  0.00  0.00     0.042 A 
HETATM   18  C   UNK N   1      30.093  17.194   5.779  0.00  0.00     0.047 A 
HETATM   19  C   UNK N   1      29.499  17.120   7.018  0.00  0.00     0.034 A 
HETATM   20  C   UNK N   1      30.308  16.990   8.157  0.00  0.00     0.018 A 
HETATM   21  C   UNK N   1      31.704  16.896   8.013  0.00  0.00     0.010 A 
HETATM   22  C   UNK N   1      32.292  16.959   6.739  0.00  0.00    -0.035 A 
HETATM   23  C   UNK N   1      33.771  16.886   6.593  0.00  0.00     0.050 C 
BRANCH  19  24
HETATM   24  C   UNK N   1      28.032  17.049   7.060  0.00  0.00     0.256 C 
HETATM   25  O   UNK N   1      27.444  16.948   8.127  0.00  0.00    -0.267 OA
HETATM   26  N   UNK N   1      27.354  16.965   5.880  0.00  0.00    -0.322 N 
HETATM   27  H   UNK N   1      27.845  17.110   5.039  0.00  0.00     0.169 HD
BRANCH  26  28
HETATM   28  C   UNK N   1      25.979  16.677   5.823  0.00  0.00     0.047 A 
HETATM   29  C   UNK N   1      25.040  17.525   5.154  0.00  0.00     0.026 A 
HETATM   30  C   UNK N   1      23.699  17.034   5.005  0.00  0.00     0.003 A 
HETATM   31  C   UNK N   1      25.342  18.828   4.605  0.00  0.00     0.087 A 
HETATM   32  C   UNK N   1      23.334  15.776   5.533  0.00  0.00     0.083 A 
HETATM   33  C   UNK N   1      22.745  17.786   4.301  0.00  0.00     0.039 A 
HETATM   34  C   UNK N   1      24.264  15.020   6.235  0.00  0.00     0.028 A 
HETATM   35  C   UNK N   1      25.568  15.463   6.374  0.00  0.00     0.032 A 
HETATM   36  C   UNK N   1      23.065  19.021   3.753  0.00  0.00     0.074 A 
HETATM   37  C   UNK N   1      24.357  19.512   3.919  0.00  0.00     0.051 A 
BRANCH  32  38
HETATM   38  S   UNK N   1      21.700  15.072   5.273  0.00  0.00     0.130 S 
HETATM   39  O   UNK N   1      21.482  14.743   3.788  0.00  0.00    -0.598 OA
HETATM   40  O   UNK N   1      20.595  16.117   5.492  0.00  0.00    -0.598 OA
BRANCH  38  41
HETATM   41  O   UNK N   1      21.195  13.671   6.124  0.00  0.00    -0.292 OA
HETATM   42  H   UNK N   1      21.019  13.381   7.033  0.00  0.00     0.232 HD
ENDBRANCH  38  41
ENDBRANCH  32  38
BRANCH  36  43
HETATM   43  S   UNK N   1      21.845  19.908   2.728  0.00  0.00     0.129 S 
HETATM   44  O   UNK N   1      21.264  19.813   4.150  0.00  0.00    -0.598 OA
HETATM   45  O   UNK N   1      22.565  21.244   2.977  0.00  0.00    -0.598 OA
BRANCH  43  46
HETATM   46  O   UNK N   1      20.351  20.751   2.703  0.00  0.00    -0.292 OA
HETATM   47  H   UNK N   1      19.931  21.161   1.931  0.00  0.00     0.232 HD
ENDBRANCH  43  46
ENDBRANCH  36  43
BRANCH  31  48
HETATM   48  S   UNK N   1      26.870  19.787   4.694  0.00  0.00     0.130 S 
HETATM   49  O   UNK N   1      27.383  19.962   6.129  0.00  0.00    -0.598 OA
HETATM   50  O   UNK N   1      26.856  21.208   4.114  0.00  0.00    -0.598 OA
BRANCH  48  51
HETATM   51  O   UNK N   1      28.209  19.042   3.920  0.00  0.00    -0.292 OA
HETATM   52  H   UNK N   1      28.836  19.453   3.305  0.00  0.00     0.232 HD
ENDBRANCH  48  51
ENDBRANCH  31  48
ENDBRANCH  26  28
ENDBRANCH  19  24
ENDBRANCH  15  17
ENDBRANCH   9  13
ENDBRANCH   2   7
BRANCH   3  53
HETATM   53  C   UNK N   1      25.082  13.921   1.902  0.00  0.00     0.037 A 
HETATM   54  C   UNK N   1      25.091  13.007   2.914  0.00  0.00     0.046 A 
HETATM   55  C   UNK N   1      24.375  11.828   2.840  0.00  0.00     0.034 A 
HETATM   56  C   UNK N   1      23.684  11.513   1.660  0.00  0.00     0.017 A 
HETATM   57  C   UNK N   1      23.672  12.429   0.605  0.00  0.00     0.003 A 
HETATM   58  C   UNK N   1      24.305  13.672   0.760  0.00  0.00     0.029 A 
BRANCH  55  59
HETATM   59  C   UNK N   1      23.859  11.289   4.114  0.00  0.00     0.256 C 
HETATM   60  O   UNK N   1      23.026  11.932   4.731  0.00  0.00    -0.267 OA
HETATM   61  N   UNK N   1      24.538  10.298   4.768  0.00  0.00    -0.322 N 
HETATM   62  H   UNK N   1      24.605  10.353   5.748  0.00  0.00     0.169 HD
BRANCH  61  63
HETATM   63  C   UNK N   1      25.154   9.196   4.122  0.00  0.00     0.042 A 
HETATM   64  C   UNK N   1      26.404   9.438   3.633  0.00  0.00     0.047 A 
HETATM   65  C   UNK N   1      27.013   8.573   2.783  0.00  0.00     0.034 A 
HETATM   66  C   UNK N   1      26.413   7.348   2.462  0.00  0.00     0.018 A 
HETATM   67  C   UNK N   1      25.169   7.033   3.004  0.00  0.00     0.010 A 
HETATM   68  C   UNK N   1      24.499   7.985   3.786  0.00  0.00    -0.035 A 
HETATM   69  C   UNK N   1      23.098   7.713   4.188  0.00  0.00     0.050 C 
BRANCH  65  70
HETATM   70  C   UNK N   1      27.967   9.165   1.879  0.00  0.00     0.256 C 
HETATM   71  O   UNK N   1      27.609   9.346   0.726  0.00  0.00    -0.267 OA
HETATM   72  N   UNK N   1      29.181   9.641   2.244  0.00  0.00    -0.322 N 
HETATM   73  H   UNK N   1      29.593  10.077   1.463  0.00  0.00     0.169 HD
BRANCH  72  74
HETATM   74  C   UNK N   1      30.082   9.742   3.339  0.00  0.00     0.047 A 
HETATM   75  C   UNK N   1      31.209  10.574   3.158  0.00  0.00     0.026 A 
HETATM   76  C   UNK N   1      32.147  10.727   4.229  0.00  0.00     0.003 A 
HETATM   77  C   UNK N   1      31.456  11.263   1.915  0.00  0.00     0.087 A 
HETATM   78  C   UNK N   1      31.952  10.037   5.448  0.00  0.00     0.083 A 
HETATM   79  C   UNK N   1      33.261  11.567   4.053  0.00  0.00     0.039 A 
HETATM   80  C   UNK N   1      30.830   9.216   5.599  0.00  0.00     0.028 A 
HETATM   81  C   UNK N   1      29.905   9.072   4.559  0.00  0.00     0.032 A 
HETATM   82  C   UNK N   1      33.448  12.240   2.844  0.00  0.00     0.074 A 
HETATM   83  C   UNK N   1      32.563  12.072   1.805  0.00  0.00     0.051 A 
BRANCH  78  84
HETATM   84  S   UNK N   1      33.134  10.147   6.817  0.00  0.00     0.130 S 
HETATM   85  O   UNK N   1      33.035  11.496   7.548  0.00  0.00    -0.598 OA
HETATM   86  O   UNK N   1      32.771   9.176   7.951  0.00  0.00    -0.598 OA
BRANCH  84  87
HETATM   87  O   UNK N   1      34.815   9.917   6.550  0.00  0.00    -0.292 OA
HETATM   88  H   UNK N   1      35.196   9.231   5.979  0.00  0.00     0.232 HD
ENDBRANCH  84  87
ENDBRANCH  78  84
BRANCH  82  89
HETATM   89  S   UNK N   1      34.773  13.392   2.581  0.00  0.00     0.129 S 
HETATM   90  O   UNK N   1      36.145  12.724   2.436  0.00  0.00    -0.598 OA
HETATM   91  O   UNK N   1      34.976  14.213   3.865  0.00  0.00    -0.598 OA
BRANCH  89  92
HETATM   92  O   UNK N   1      34.645  14.566   1.337  0.00  0.00    -0.292 OA
HETATM   93  H   UNK N   1      34.332  14.836   0.459  0.00  0.00     0.232 HD
ENDBRANCH  89  92
ENDBRANCH  82  89
BRANCH  77  94
HETATM   94  S   UNK N   1      30.452  11.174   0.401  0.00  0.00     0.130 S 
HETATM   95  O   UNK N   1      29.083  11.862   0.540  0.00  0.00    -0.598 OA
HETATM   96  O   UNK N   1      31.073  12.007  -0.726  0.00  0.00    -0.598 OA
BRANCH  94  97
HETATM   97  O   UNK N   1      30.157   9.642  -0.327  0.00  0.00    -0.292 OA
HETATM   98  H   UNK N   1      29.740   9.286  -1.127  0.00  0.00     0.232 HD
ENDBRANCH  94  97
ENDBRANCH  77  94
ENDBRANCH  72  74
ENDBRANCH  65  70
ENDBRANCH  61  63
ENDBRANCH  55  59
ENDBRANCH   3  53
TORSDOF 22
ENDMDL
MODEL 3
REMARK VINA RESULT:      -9.4      5.619     10.050
REMARK  22 active torsions:
REMARK  status: ('A' for Active; 'I' for Inactive)
REMARK    1  A    between atoms: S_1  and  O_7 
REMARK    2  A    between atoms: S_1  and  C_40 
REMARK    3  A    between atoms: S_2  and  O_8 
REMARK    4  A    between atoms: S_2  and  C_41 
REMARK    5  A    between atoms: S_3  and  O_9 
REMARK    6  A    between atoms: S_3  and  C_42 
REMARK    7  A    between atoms: S_4  and  O_10 
REMARK    8  A    between atoms: S_4  and  C_43 
REMARK    9  A    between atoms: S_5  and  O_15 
REMARK   10  A    between atoms: S_5  and  C_48 
REMARK   11  A    between atoms: S_6  and  O_16 
REMARK   12  A    between atoms: S_6  and  C_49 
REMARK   13  A    between atoms: N_30  and  C_44 
REMARK       I    between atoms: N_30  and  C_56 
REMARK   14  A    between atoms: N_31  and  C_45 
REMARK       I    between atoms: N_31  and  C_57 
REMARK   15  A    between atoms: N_32  and  C_62 
REMARK       I    between atoms: N_32  and  C_72 
REMARK   16  A    between atoms: N_33  and  C_63 
REMARK       I    between atoms: N_33  and  C_73 
REMARK   17  A    between atoms: N_34  and  C_78 
REMARK       I    between atoms: N_34  and  C_86 
REMARK   18  A    between atoms: N_35  and  C_79 
REMARK       I    between atoms: N_35  and  C_86 
REMARK   19  A    between atoms: C_56  and  C_58 
REMARK   20  A    between atoms: C_57  and  C_59 
REMARK   21  A    between atoms: C_72  and  C_74 
REMARK   22  A    between atoms: C_73  and  C_75 
ROOT
HETATM    1  O   UNK N   1      27.170  16.454   2.405  0.00  0.00    -0.247 OA
HETATM    2  N   UNK N   1      27.480  14.299   1.834  0.00  0.00    -0.309 N 
HETATM    3  N   UNK N   1      25.367  15.328   1.738  0.00  0.00    -0.309 N 
HETATM    4  C   UNK N   1      26.701  15.408   1.943  0.00  0.00     0.325 C 
HETATM    5  H   UNK N   1      27.388  13.726   1.039  0.00  0.00     0.170 HD
HETATM    6  H   UNK N   1      24.799  16.133   1.759  0.00  0.00     0.170 HD
ENDROOT
BRANCH   2   7
HETATM    7  C   UNK N   1      28.415  13.947   2.826  0.00  0.00     0.037 A 
HETATM    8  C   UNK N   1      29.513  14.783   2.969  0.00  0.00     0.046 A 
HETATM    9  C   UNK N   1      30.362  14.696   4.039  0.00  0.00     0.034 A 
HETATM   10  C   UNK N   1      30.096  13.735   5.039  0.00  0.00     0.017 A 
HETATM   11  C   UNK N   1      28.977  12.892   4.929  0.00  0.00     0.003 A 
HETATM   12  C   UNK N   1      28.115  13.016   3.828  0.00  0.00     0.029 A 
BRANCH   9  13
HETATM   13  C   UNK N   1      31.467  15.699   4.120  0.00  0.00     0.256 C 
HETATM   14  O   UNK N   1      32.590  15.379   3.759  0.00  0.00    -0.267 OA
HETATM   15  N   UNK N   1      31.260  16.948   4.606  0.00  0.00    -0.322 N 
HETATM   16  H   UNK N   1      31.849  17.692   4.340  0.00  0.00     0.169 HD
BRANCH  15  17
HETATM   17  C   UNK N   1      30.192  17.168   5.498  0.00  0.00     0.042 A 
HETATM   18  C   UNK N   1      29.062  17.799   4.996  0.00  0.00     0.047 A 
HETATM   19  C   UNK N   1      28.008  18.154   5.806  0.00  0.00     0.034 A 
HETATM   20  C   UNK N   1      28.074  17.866   7.178  0.00  0.00     0.018 A 
HETATM   21  C   UNK N   1      29.192  17.187   7.695  0.00  0.00     0.010 A 
HETATM   22  C   UNK N   1      30.253  16.822   6.849  0.00  0.00    -0.035 A 
HETATM   23  C   UNK N   1      31.447  16.128   7.404  0.00  0.00     0.050 C 
BRANCH  19  24
HETATM   24  C   UNK N   1      26.809  18.698   5.155  0.00  0.00     0.256 C 
HETATM   25  O   UNK N   1      26.538  19.887   5.244  0.00  0.00    -0.267 OA
HETATM   26  N   UNK N   1      25.941  17.828   4.566  0.00  0.00    -0.322 N 
HETATM   27  H   UNK N   1      26.213  16.888   4.455  0.00  0.00     0.169 HD
BRANCH  26  28
HETATM   28  C   UNK N   1      24.671  18.225   4.111  0.00  0.00     0.047 A 
HETATM   29  C   UNK N   1      23.465  17.576   4.524  0.00  0.00     0.026 A 
HETATM   30  C   UNK N   1      22.223  18.187   4.140  0.00  0.00     0.003 A 
HETATM   31  C   UNK N   1      23.401  16.365   5.312  0.00  0.00     0.087 A 
HETATM   32  C   UNK N   1      22.216  19.362   3.357  0.00  0.00     0.083 A 
HETATM   33  C   UNK N   1      21.003  17.640   4.568  0.00  0.00     0.039 A 
HETATM   34  C   UNK N   1      23.412  19.916   2.920  0.00  0.00     0.028 A 
HETATM   35  C   UNK N   1      24.622  19.356   3.296  0.00  0.00     0.032 A 
HETATM   36  C   UNK N   1      20.965  16.493   5.352  0.00  0.00     0.074 A 
HETATM   37  C   UNK N   1      22.167  15.884   5.704  0.00  0.00     0.051 A 
BRANCH  32  38
HETATM   38  S   UNK N   1      20.691  20.223   2.946  0.00  0.00     0.130 S 
HETATM   39  O   UNK N   1      20.967  21.376   1.968  0.00  0.00    -0.598 OA
HETATM   40  O   UNK N   1      20.144  21.004   4.150  0.00  0.00    -0.598 OA
BRANCH  38  41
HETATM   41  O   UNK N   1      19.350  19.382   2.285  0.00  0.00    -0.292 OA
HETATM   42  H   UNK N   1      18.444  19.554   1.986  0.00  0.00     0.232 HD
ENDBRANCH  38  41
ENDBRANCH  32  38
BRANCH  36  43
HETATM   43  S   UNK N   1      19.375  15.888   6.006  0.00  0.00     0.129 S 
HETATM   44  O   UNK N   1      19.086  16.557   4.651  0.00  0.00    -0.598 OA
HETATM   45  O   UNK N   1      19.626  14.494   5.406  0.00  0.00    -0.598 OA
BRANCH  43  46
HETATM   46  O   UNK N   1      17.698  15.683   5.707  0.00  0.00    -0.292 OA
HETATM   47  H   UNK N   1      16.970  15.940   6.293  0.00  0.00     0.232 HD
ENDBRANCH  43  46
ENDBRANCH  36  43
BRANCH  31  48
HETATM   48  S   UNK N   1      24.737  15.291   5.878  0.00  0.00     0.130 S 
HETATM   49  O   UNK N   1      25.415  15.802   7.156  0.00  0.00    -0.598 OA
HETATM   50  O   UNK N   1      25.896  15.020   4.908  0.00  0.00    -0.598 OA
BRANCH  48  51
HETATM   51  O   UNK N   1      24.221  13.722   6.347  0.00  0.00    -0.292 OA
HETATM   52  H   UNK N   1      23.791  13.054   5.791  0.00  0.00     0.232 HD
ENDBRANCH  48  51
ENDBRANCH  31  48
ENDBRANCH  26  28
ENDBRANCH  19  24
ENDBRANCH  15  17
ENDBRANCH   9  13
ENDBRANCH   2   7
BRANCH   3  53
HETATM   53  C   UNK N   1      24.816  14.047   1.492  0.00  0.00     0.037 A 
HETATM   54  C   UNK N   1      24.674  13.227   2.572  0.00  0.00     0.046 A 
HETATM   55  C   UNK N   1      23.790  12.167   2.573  0.00  0.00     0.034 A 
HETATM   56  C   UNK N   1      23.073  11.865   1.406  0.00  0.00     0.017 A 
HETATM   57  C   UNK N   1      23.212  12.684   0.281  0.00  0.00     0.003 A 
HETATM   58  C   UNK N   1      24.024  13.826   0.354  0.00  0.00     0.029 A 
BRANCH  55  59
HETATM   59  C   UNK N   1      23.183  11.816   3.873  0.00  0.00     0.256 C 
HETATM   60  O   UNK N   1      22.345  12.562   4.351  0.00  0.00    -0.267 OA
HETATM   61  N   UNK N   1      23.784  10.895   4.687  0.00  0.00    -0.322 N 
HETATM   62  H   UNK N   1      23.799  11.076   5.654  0.00  0.00     0.169 HD
BRANCH  61  63
HETATM   63  C   UNK N   1      24.387   9.699   4.226  0.00  0.00     0.042 A 
HETATM   64  C   UNK N   1      25.619   9.854   3.661  0.00  0.00     0.047 A 
HETATM   65  C   UNK N   1      26.208   8.855   2.957  0.00  0.00     0.034 A 
HETATM   66  C   UNK N   1      25.608   7.591   2.876  0.00  0.00     0.018 A 
HETATM   67  C   UNK N   1      24.385   7.373   3.505  0.00  0.00     0.010 A 
HETATM   68  C   UNK N   1      23.732   8.446   4.128  0.00  0.00    -0.035 A 
HETATM   69  C   UNK N   1      22.347   8.245   4.618  0.00  0.00     0.050 C 
BRANCH  65  70
HETATM   70  C   UNK N   1      27.129   9.280   1.932  0.00  0.00     0.256 C 
HETATM   71  O   UNK N   1      26.689   9.406   0.801  0.00  0.00    -0.267 OA
HETATM   72  N   UNK N   1      28.408   9.664   2.158  0.00  0.00    -0.322 N 
HETATM   73  H   UNK N   1      28.787   9.997   1.312  0.00  0.00     0.169 HD
BRANCH  72  74
HETATM   74  C   UNK N   1      29.406   9.762   3.164  0.00  0.00     0.047 A 
HETATM   75  C   UNK N   1      30.583  10.466   2.824  0.00  0.00     0.026 A 
HETATM   76  C   UNK N   1      31.621  10.610   3.799  0.00  0.00     0.003 A 
HETATM   77  C   UNK N   1      30.780  11.030   1.512  0.00  0.00     0.087 A 
HETATM   78  C   UNK N   1      31.473  10.037   5.084  0.00  0.00     0.083 A 
HETATM   79  C   UNK N   1      32.785  11.323   3.465  0.00  0.00     0.039 A 
HETATM   80  C   UNK N   1      30.300   9.341   5.393  0.00  0.00     0.028 A 
HETATM   81  C   UNK N   1      29.278   9.207   4.447  0.00  0.00     0.032 A 
HETATM   82  C   UNK N   1      32.925  11.880   2.192  0.00  0.00     0.074 A 
HETATM   83  C   UNK N   1      31.941  11.719   1.245  0.00  0.00     0.051 A 
BRANCH  78  84
HETATM   84  S   UNK N   1      32.776  10.138   6.340  0.00  0.00     0.130 S 
HETATM   85  O   UNK N   1      32.882  11.550   6.938  0.00  0.00    -0.598 OA
HETATM   86  O   UNK N   1      32.414   9.320   7.590  0.00  0.00    -0.598 OA
BRANCH  84  87
HETATM   87  O   UNK N   1      34.393   9.698   5.968  0.00  0.00    -0.292 OA
HETATM   88  H   UNK N   1      34.666   8.834   5.618  0.00  0.00     0.232 HD
ENDBRANCH  84  87
ENDBRANCH  78  84
BRANCH  82  89
HETATM   89  S   UNK N   1      34.319  12.877   1.727  0.00  0.00     0.129 S 
HETATM   90  O   UNK N   1      34.940  12.473   0.385  0.00  0.00    -0.598 OA
HETATM   91  O   UNK N   1      35.480  12.583   2.692  0.00  0.00    -0.598 OA
BRANCH  89  92
HETATM   92  O   UNK N   1      34.181  14.586   1.730  0.00  0.00    -0.292 OA
HETATM   93  H   UNK N   1      33.766  15.400   2.057  0.00  0.00     0.232 HD
ENDBRANCH  89  92
ENDBRANCH  82  89
BRANCH  77  94
HETATM   94  S   UNK N   1      29.644  10.922   0.095  0.00  0.00     0.130 S 
HETATM   95  O   UNK N   1      28.345  11.722   0.299  0.00  0.00    -0.598 OA
HETATM   96  O   UNK N   1      30.222  11.631  -1.135  0.00  0.00    -0.598 OA
BRANCH  94  97
HETATM   97  O   UNK N   1      29.177   9.374  -0.496  0.00  0.00    -0.292 OA
HETATM   98  H   UNK N   1      28.669   9.001  -1.232  0.00  0.00     0.232 HD
ENDBRANCH  94  97
ENDBRANCH  77  94
ENDBRANCH  72  74
ENDBRANCH  65  70
ENDBRANCH  61  63
ENDBRANCH  55  59
ENDBRANCH   3  53
TORSDOF 22
ENDMDL
MODEL 4
REMARK VINA RESULT:      -9.4      4.676      9.793
REMARK  22 active torsions:
REMARK  status: ('A' for Active; 'I' for Inactive)
REMARK    1  A    between atoms: S_1  and  O_7 
REMARK    2  A    between atoms: S_1  and  C_40 
REMARK    3  A    between atoms: S_2  and  O_8 
REMARK    4  A    between atoms: S_2  and  C_41 
REMARK    5  A    between atoms: S_3  and  O_9 
REMARK    6  A    between atoms: S_3  and  C_42 
REMARK    7  A    between atoms: S_4  and  O_10 
REMARK    8  A    between atoms: S_4  and  C_43 
REMARK    9  A    between atoms: S_5  and  O_15 
REMARK   10  A    between atoms: S_5  and  C_48 
REMARK   11  A    between atoms: S_6  and  O_16 
REMARK   12  A    between atoms: S_6  and  C_49 
REMARK   13  A    between atoms: N_30  and  C_44 
REMARK       I    between atoms: N_30  and  C_56 
REMARK   14  A    between atoms: N_31  and  C_45 
REMARK       I    between atoms: N_31  and  C_57 
REMARK   15  A    between atoms: N_32  and  C_62 
REMARK       I    between atoms: N_32  and  C_72 
REMARK   16  A    between atoms: N_33  and  C_63 
REMARK       I    between atoms: N_33  and  C_73 
REMARK   17  A    between atoms: N_34  and  C_78 
REMARK       I    between atoms: N_34  and  C_86 
REMARK   18  A    between atoms: N_35  and  C_79 
REMARK       I    between atoms: N_35  and  C_86 
REMARK   19  A    between atoms: C_56  and  C_58 
REMARK   20  A    between atoms: C_57  and  C_59 
REMARK   21  A    between atoms: C_72  and  C_74 
REMARK   22  A    between atoms: C_73  and  C_75 
ROOT
HETATM    1  O   UNK N   1      29.603  13.015   1.463  0.00  0.00    -0.247 OA
HETATM    2  N   UNK N   1      27.489  12.287   1.214  0.00  0.00    -0.309 N 
HETATM    3  N   UNK N   1      27.995  14.323   2.278  0.00  0.00    -0.309 N 
HETATM    4  C   UNK N   1      28.393  13.231   1.587  0.00  0.00     0.325 C 
HETATM    5  H   UNK N   1      26.659  12.570   0.766  0.00  0.00     0.170 HD
HETATM    6  H   UNK N   1      28.629  15.042   2.506  0.00  0.00     0.170 HD
ENDROOT
BRANCH   2   7
HETATM    7  C   UNK N   1      27.706  10.916   1.449  0.00  0.00     0.037 A 
HETATM    8  C   UNK N   1      27.665  10.499   2.771  0.00  0.00     0.046 A 
HETATM    9  C   UNK N   1      27.620   9.176   3.118  0.00  0.00     0.034 A 
HETATM   10  C   UNK N   1      27.594   8.207   2.092  0.00  0.00     0.017 A 
HETATM   11  C   UNK N   1      27.611   8.604   0.744  0.00  0.00     0.003 A 
HETATM   12  C   UNK N   1      27.640   9.969   0.419  0.00  0.00     0.029 A 
BRANCH   9  13
HETATM   13  C   UNK N   1      27.505   8.853   4.573  0.00  0.00     0.256 C 
HETATM   14  O   UNK N   1      28.490   8.453   5.175  0.00  0.00    -0.267 OA
HETATM   15  N   UNK N   1      26.327   8.968   5.237  0.00  0.00    -0.322 N 
HETATM   16  H   UNK N   1      26.314   9.108   6.211  0.00  0.00     0.169 HD
BRANCH  15  17
HETATM   17  C   UNK N   1      25.121   8.887   4.512  0.00  0.00     0.042 A 
HETATM   18  C   UNK N   1      24.511  10.080   4.153  0.00  0.00     0.047 A 
HETATM   19  C   UNK N   1      23.280  10.110   3.537  0.00  0.00     0.034 A 
HETATM   20  C   UNK N   1      22.626   8.901   3.260  0.00  0.00     0.018 A 
HETATM   21  C   UNK N   1      23.251   7.681   3.577  0.00  0.00     0.010 A 
HETATM   22  C   UNK N   1      24.513   7.670   4.193  0.00  0.00    -0.035 A 
HETATM   23  C   UNK N   1      25.160   6.379   4.552  0.00  0.00     0.050 C 
BRANCH  19  24
HETATM   24  C   UNK N   1      22.784  11.416   3.084  0.00  0.00     0.256 C 
HETATM   25  O   UNK N   1      23.515  12.182   2.471  0.00  0.00    -0.267 OA
HETATM   26  N   UNK N   1      21.538  11.807   3.476  0.00  0.00    -0.322 N 
HETATM   27  H   UNK N   1      20.950  11.150   3.914  0.00  0.00     0.169 HD
BRANCH  26  28
HETATM   28  C   UNK N   1      21.064  13.116   3.277  0.00  0.00     0.047 A 
HETATM   29  C   UNK N   1      20.892  14.046   4.351  0.00  0.00     0.026 A 
HETATM   30  C   UNK N   1      20.579  15.404   4.002  0.00  0.00     0.003 A 
HETATM   31  C   UNK N   1      21.024  13.728   5.755  0.00  0.00     0.087 A 
HETATM   32  C   UNK N   1      20.420  15.777   2.650  0.00  0.00     0.083 A 
HETATM   33  C   UNK N   1      20.463  16.382   5.003  0.00  0.00     0.039 A 
HETATM   34  C   UNK N   1      20.528  14.823   1.647  0.00  0.00     0.028 A 
HETATM   35  C   UNK N   1      20.850  13.512   1.957  0.00  0.00     0.032 A 
HETATM   36  C   UNK N   1      20.626  16.061   6.345  0.00  0.00     0.074 A 
HETATM   37  C   UNK N   1      20.903  14.740   6.687  0.00  0.00     0.051 A 
BRANCH  32  38
HETATM   38  S   UNK N   1      20.140  17.485   2.160  0.00  0.00     0.130 S 
HETATM   39  O   UNK N   1      20.280  17.641   0.638  0.00  0.00    -0.598 OA
HETATM   40  O   UNK N   1      21.275  18.402   2.640  0.00  0.00    -0.598 OA
BRANCH  38  41
HETATM   41  O   UNK N   1      18.682  18.293   2.564  0.00  0.00    -0.292 OA
HETATM   42  H   UNK N   1      17.860  18.134   3.052  0.00  0.00     0.232 HD
ENDBRANCH  38  41
ENDBRANCH  32  38
BRANCH  36  43
HETATM   43  S   UNK N   1      20.606  17.377   7.606  0.00  0.00     0.129 S 
HETATM   44  O   UNK N   1      19.171  16.834   7.489  0.00  0.00    -0.598 OA
HETATM   45  O   UNK N   1      21.029  16.377   8.696  0.00  0.00    -0.598 OA
BRANCH  43  46
HETATM   46  O   UNK N   1      19.670  18.213   8.777  0.00  0.00    -0.292 OA
HETATM   47  H   UNK N   1      18.827  18.666   8.626  0.00  0.00     0.232 HD
ENDBRANCH  43  46
ENDBRANCH  36  43
BRANCH  31  48
HETATM   48  S   UNK N   1      21.307  12.131   6.550  0.00  0.00     0.130 S 
HETATM   49  O   UNK N   1      20.997  12.148   8.052  0.00  0.00    -0.598 OA
HETATM   50  O   UNK N   1      22.714  11.523   6.453  0.00  0.00    -0.598 OA
BRANCH  48  51
HETATM   51  O   UNK N   1      20.280  10.877   5.984  0.00  0.00    -0.292 OA
HETATM   52  H   UNK N   1      20.542   9.993   5.684  0.00  0.00     0.232 HD
ENDBRANCH  48  51
ENDBRANCH  31  48
ENDBRANCH  26  28
ENDBRANCH  19  24
ENDBRANCH  15  17
ENDBRANCH   9  13
ENDBRANCH   2   7
BRANCH   3  53
HETATM   53  C   UNK N   1      26.633  14.399   2.659  0.00  0.00     0.037 A 
HETATM   54  C   UNK N   1      26.353  14.157   3.972  0.00  0.00     0.046 A 
HETATM   55  C   UNK N   1      25.189  14.603   4.564  0.00  0.00     0.034 A 
HETATM   56  C   UNK N   1      24.220  15.250   3.783  0.00  0.00     0.017 A 
HETATM   57  C   UNK N   1      24.479  15.497   2.431  0.00  0.00     0.003 A 
HETATM   58  C   UNK N   1      25.724  15.142   1.890  0.00  0.00     0.029 A 
BRANCH  55  59
HETATM   59  C   UNK N   1      25.268  14.946   5.999  0.00  0.00     0.256 C 
HETATM   60  O   UNK N   1      24.711  14.223   6.808  0.00  0.00    -0.267 OA
HETATM   61  N   UNK N   1      25.635  16.205   6.386  0.00  0.00    -0.322 N 
HETATM   62  H   UNK N   1      25.154  16.613   7.142  0.00  0.00     0.169 HD
BRANCH  61  63
HETATM   63  C   UNK N   1      26.662  16.961   5.768  0.00  0.00     0.042 A 
HETATM   64  C   UNK N   1      27.932  16.579   6.089  0.00  0.00     0.047 A 
HETATM   65  C   UNK N   1      29.005  17.351   5.781  0.00  0.00     0.034 A 
HETATM   66  C   UNK N   1      28.846  18.523   5.029  0.00  0.00     0.018 A 
HETATM   67  C   UNK N   1      27.572  18.905   4.618  0.00  0.00     0.010 A 
HETATM   68  C   UNK N   1      26.461  18.162   5.044  0.00  0.00    -0.035 A 
HETATM   69  C   UNK N   1      25.104  18.692   4.765  0.00  0.00     0.050 C 
BRANCH  65  70
HETATM   70  C   UNK N   1      30.142  17.207   6.655  0.00  0.00     0.256 C 
HETATM   71  O   UNK N   1      30.035  17.644   7.790  0.00  0.00    -0.267 OA
HETATM   72  N   UNK N   1      31.266  16.517   6.348  0.00  0.00    -0.322 N 
HETATM   73  H   UNK N   1      31.842  16.491   7.147  0.00  0.00     0.169 HD
BRANCH  72  74
HETATM   74  C   UNK N   1      31.923  15.819   5.299  0.00  0.00     0.047 A 
HETATM   75  C   UNK N   1      33.245  15.391   5.552  0.00  0.00     0.026 A 
HETATM   76  C   UNK N   1      33.955  14.671   4.539  0.00  0.00     0.003 A 
HETATM   77  C   UNK N   1      33.911  15.673   6.800  0.00  0.00     0.087 A 
HETATM   78  C   UNK N   1      33.342  14.409   3.291  0.00  0.00     0.083 A 
HETATM   79  C   UNK N   1      35.265  14.232   4.797  0.00  0.00     0.039 A 
HETATM   80  C   UNK N   1      32.034  14.850   3.065  0.00  0.00     0.028 A 
HETATM   81  C   UNK N   1      31.332  15.543   4.057  0.00  0.00     0.032 A 
HETATM   82  C   UNK N   1      35.865  14.500   6.030  0.00  0.00     0.074 A 
HETATM   83  C   UNK N   1      35.193  15.215   6.994  0.00  0.00     0.051 A 
BRANCH  78  84
HETATM   84  S   UNK N   1      34.212  13.554   1.952  0.00  0.00     0.130 S 
HETATM   85  O   UNK N   1      33.236  13.010   0.895  0.00  0.00    -0.598 OA
HETATM   86  O   UNK N   1      35.039  14.534   1.105  0.00  0.00    -0.598 OA
BRANCH  84  87
HETATM   87  O   UNK N   1      35.271  12.244   2.285  0.00  0.00    -0.292 OA
HETATM   88  H   UNK N   1      36.194  12.337   2.573  0.00  0.00     0.232 HD
ENDBRANCH  84  87
ENDBRANCH  78  84
BRANCH  82  89
HETATM   89  S   UNK N   1      37.475  13.894   6.467  0.00  0.00     0.129 S 
HETATM   90  O   UNK N   1      38.615  14.579   5.703  0.00  0.00    -0.598 OA
HETATM   91  O   UNK N   1      37.611  12.446   5.968  0.00  0.00    -0.598 OA
BRANCH  89  92
HETATM   92  O   UNK N   1      37.939  13.825   8.117  0.00  0.00    -0.292 OA
HETATM   93  H   UNK N   1      37.713  13.852   9.060  0.00  0.00     0.232 HD
ENDBRANCH  89  92
ENDBRANCH  82  89
BRANCH  77  94
HETATM   94  S   UNK N   1      33.244  16.619   8.203  0.00  0.00     0.130 S 
HETATM   95  O   UNK N   1      32.100  15.894   8.934  0.00  0.00    -0.598 OA
HETATM   96  O   UNK N   1      34.273  16.734   9.334  0.00  0.00    -0.598 OA
BRANCH  94  97
HETATM   97  O   UNK N   1      32.716  18.238   7.954  0.00  0.00    -0.292 OA
HETATM   98  H   UNK N   1      31.916  18.706   7.667  0.00  0.00     0.232 HD
ENDBRANCH  94  97
ENDBRANCH  77  94
ENDBRANCH  72  74
ENDBRANCH  65  70
ENDBRANCH  61  63
ENDBRANCH  55  59
ENDBRANCH   3  53
TORSDOF 22
ENDMDL
MODEL 5
REMARK VINA RESULT:      -9.3      3.173      4.982
REMARK  22 active torsions:
REMARK  status: ('A' for Active; 'I' for Inactive)
REMARK    1  A    between atoms: S_1  and  O_7 
REMARK    2  A    between atoms: S_1  and  C_40 
REMARK    3  A    between atoms: S_2  and  O_8 
REMARK    4  A    between atoms: S_2  and  C_41 
REMARK    5  A    between atoms: S_3  and  O_9 
REMARK    6  A    between atoms: S_3  and  C_42 
REMARK    7  A    between atoms: S_4  and  O_10 
REMARK    8  A    between atoms: S_4  and  C_43 
REMARK    9  A    between atoms: S_5  and  O_15 
REMARK   10  A    between atoms: S_5  and  C_48 
REMARK   11  A    between atoms: S_6  and  O_16 
REMARK   12  A    between atoms: S_6  and  C_49 
REMARK   13  A    between atoms: N_30  and  C_44 
REMARK       I    between atoms: N_30  and  C_56 
REMARK   14  A    between atoms: N_31  and  C_45 
REMARK       I    between atoms: N_31  and  C_57 
REMARK   15  A    between atoms: N_32  and  C_62 
REMARK       I    between atoms: N_32  and  C_72 
REMARK   16  A    between atoms: N_33  and  C_63 
REMARK       I    between atoms: N_33  and  C_73 
REMARK   17  A    between atoms: N_34  and  C_78 
REMARK       I    between atoms: N_34  and  C_86 
REMARK   18  A    between atoms: N_35  and  C_79 
REMARK       I    between atoms: N_35  and  C_86 
REMARK   19  A    between atoms: C_56  and  C_58 
REMARK   20  A    between atoms: C_57  and  C_59 
REMARK   21  A    between atoms: C_72  and  C_74 
REMARK   22  A    between atoms: C_73  and  C_75 
ROOT
HETATM    1  O   UNK N   1      33.654  15.113   2.313  0.00  0.00    -0.247 OA
HETATM    2  N   UNK N   1      35.020  14.086   3.777  0.00  0.00    -0.309 N 
HETATM    3  N   UNK N   1      35.099  13.643   1.468  0.00  0.00    -0.309 N 
HETATM    4  C   UNK N   1      34.608  14.352   2.510  0.00  0.00     0.325 C 
HETATM    5  H   UNK N   1      35.984  14.015   3.962  0.00  0.00     0.170 HD
HETATM    6  H   UNK N   1      34.852  13.862   0.540  0.00  0.00     0.170 HD
ENDROOT
BRANCH   2   7
HETATM    7  C   UNK N   1      34.106  13.907   4.833  0.00  0.00     0.037 A 
HETATM    8  C   UNK N   1      33.992  14.952   5.739  0.00  0.00     0.046 A 
HETATM    9  C   UNK N   1      32.983  15.011   6.662  0.00  0.00     0.034 A 
HETATM   10  C   UNK N   1      32.016  13.982   6.675  0.00  0.00     0.017 A 
HETATM   11  C   UNK N   1      32.095  12.925   5.753  0.00  0.00     0.003 A 
HETATM   12  C   UNK N   1      33.133  12.901   4.807  0.00  0.00     0.029 A 
BRANCH   9  13
HETATM   13  C   UNK N   1      32.924  16.223   7.535  0.00  0.00     0.256 C 
HETATM   14  O   UNK N   1      33.487  16.205   8.619  0.00  0.00    -0.267 OA
HETATM   15  N   UNK N   1      32.239  17.334   7.165  0.00  0.00    -0.322 N 
HETATM   16  H   UNK N   1      32.480  18.215   7.533  0.00  0.00     0.169 HD
BRANCH  15  17
HETATM   17  C   UNK N   1      31.178  17.211   6.246  0.00  0.00     0.042 A 
HETATM   18  C   UNK N   1      29.936  16.852   6.750  0.00  0.00     0.047 A 
HETATM   19  C   UNK N   1      28.862  16.604   5.926  0.00  0.00     0.034 A 
HETATM   20  C   UNK N   1      29.025  16.721   4.538  0.00  0.00     0.018 A 
HETATM   21  C   UNK N   1      30.265  17.128   4.013  0.00  0.00     0.010 A 
HETATM   22  C   UNK N   1      31.346  17.389   4.871  0.00  0.00    -0.035 A 
HETATM   23  C   UNK N   1      32.665  17.793   4.311  0.00  0.00     0.050 C 
BRANCH  19  24
HETATM   24  C   UNK N   1      27.563  16.358   6.566  0.00  0.00     0.256 C 
HETATM   25  O   UNK N   1      27.411  16.559   7.763  0.00  0.00    -0.267 OA
HETATM   26  N   UNK N   1      26.576  15.778   5.826  0.00  0.00    -0.322 N 
HETATM   27  H   UNK N   1      26.704  15.685   4.854  0.00  0.00     0.169 HD
BRANCH  26  28
HETATM   28  C   UNK N   1      25.382  15.309   6.402  0.00  0.00     0.047 A 
HETATM   29  C   UNK N   1      24.091  15.750   5.969  0.00  0.00     0.026 A 
HETATM   30  C   UNK N   1      22.948  15.064   6.504  0.00  0.00     0.003 A 
HETATM   31  C   UNK N   1      23.851  16.818   5.026  0.00  0.00     0.087 A 
HETATM   32  C   UNK N   1      23.113  14.022   7.443  0.00  0.00     0.083 A 
HETATM   33  C   UNK N   1      21.655  15.401   6.072  0.00  0.00     0.039 A 
HETATM   34  C   UNK N   1      24.383  13.677   7.885  0.00  0.00     0.028 A 
HETATM   35  C   UNK N   1      25.501  14.310   7.368  0.00  0.00     0.032 A 
HETATM   36  C   UNK N   1      21.449  16.409   5.139  0.00  0.00     0.074 A 
HETATM   37  C   UNK N   1      22.554  17.094   4.640  0.00  0.00     0.051 A 
BRANCH  32  38
HETATM   38  S   UNK N   1      21.720  13.062   8.054  0.00  0.00     0.130 S 
HETATM   39  O   UNK N   1      22.159  12.144   9.206  0.00  0.00    -0.598 OA
HETATM   40  O   UNK N   1      21.261  12.017   7.025  0.00  0.00    -0.598 OA
BRANCH  38  41
HETATM   41  O   UNK N   1      20.291  13.831   8.609  0.00  0.00    -0.292 OA
HETATM   42  H   UNK N   1      19.473  13.617   9.084  0.00  0.00     0.232 HD
ENDBRANCH  38  41
ENDBRANCH  32  38
BRANCH  36  43
HETATM   43  S   UNK N   1      19.773  16.728   4.496  0.00  0.00     0.129 S 
HETATM   44  O   UNK N   1      20.736  17.665   3.746  0.00  0.00    -0.598 OA
HETATM   45  O   UNK N   1      19.910  15.574   3.488  0.00  0.00    -0.598 OA
BRANCH  43  46
HETATM   46  O   UNK N   1      18.828  17.582   3.347  0.00  0.00    -0.292 OA
HETATM   47  H   UNK N   1      18.660  18.537   3.331  0.00  0.00     0.232 HD
ENDBRANCH  43  46
ENDBRANCH  36  43
BRANCH  31  48
HETATM   48  S   UNK N   1      25.025  17.944   4.241  0.00  0.00     0.130 S 
HETATM   49  O   UNK N   1      24.340  19.058   3.438  0.00  0.00    -0.598 OA
HETATM   50  O   UNK N   1      26.052  17.343   3.271  0.00  0.00    -0.598 OA
BRANCH  48  51
HETATM   51  O   UNK N   1      25.984  18.837   5.350  0.00  0.00    -0.292 OA
HETATM   52  H   UNK N   1      26.950  18.919   5.359  0.00  0.00     0.232 HD
ENDBRANCH  48  51
ENDBRANCH  31  48
ENDBRANCH  26  28
ENDBRANCH  19  24
ENDBRANCH  15  17
ENDBRANCH   9  13
ENDBRANCH   2   7
BRANCH   3  53
HETATM   53  C   UNK N   1      35.982  12.575   1.759  0.00  0.00     0.037 A 
HETATM   54  C   UNK N   1      35.507  11.315   1.542  0.00  0.00     0.046 A 
HETATM   55  C   UNK N   1      36.351  10.237   1.365  0.00  0.00     0.034 A 
HETATM   56  C   UNK N   1      37.736  10.416   1.495  0.00  0.00     0.017 A 
HETATM   57  C   UNK N   1      38.245  11.696   1.731  0.00  0.00     0.003 A 
HETATM   58  C   UNK N   1      37.369  12.791   1.781  0.00  0.00     0.029 A 
BRANCH  55  59
HETATM   59  C   UNK N   1      35.868   9.161   0.476  0.00  0.00     0.256 C 
HETATM   60  O   UNK N   1      35.843   9.359  -0.727  0.00  0.00    -0.267 OA
HETATM   61  N   UNK N   1      35.138   8.123   0.986  0.00  0.00    -0.322 N 
HETATM   62  H   UNK N   1      34.371   7.798   0.462  0.00  0.00     0.169 HD
BRANCH  61  63
HETATM   63  C   UNK N   1      35.416   7.485   2.221  0.00  0.00     0.042 A 
HETATM   64  C   UNK N   1      34.423   7.573   3.152  0.00  0.00     0.047 A 
HETATM   65  C   UNK N   1      34.635   7.235   4.449  0.00  0.00     0.034 A 
HETATM   66  C   UNK N   1      35.859   6.685   4.851  0.00  0.00     0.018 A 
HETATM   67  C   UNK N   1      36.871   6.509   3.911  0.00  0.00     0.010 A 
HETATM   68  C   UNK N   1      36.680   6.971   2.601  0.00  0.00    -0.035 A 
HETATM   69  C   UNK N   1      37.834   6.957   1.669  0.00  0.00     0.050 C 
BRANCH  65  70
HETATM   70  C   UNK N   1      33.805   7.919   5.409  0.00  0.00     0.256 C 
HETATM   71  O   UNK N   1      32.787   7.352   5.774  0.00  0.00    -0.267 OA
HETATM   72  N   UNK N   1      34.132   9.081   6.021  0.00  0.00    -0.322 N 
HETATM   73  H   UNK N   1      33.445   9.282   6.697  0.00  0.00     0.169 HD
BRANCH  72  74
HETATM   74  C   UNK N   1      35.102  10.120   6.047  0.00  0.00     0.047 A 
HETATM   75  C   UNK N   1      35.031  11.027   7.128  0.00  0.00     0.026 A 
HETATM   76  C   UNK N   1      35.988  12.088   7.218  0.00  0.00     0.003 A 
HETATM   77  C   UNK N   1      34.008  10.928   8.140  0.00  0.00     0.087 A 
HETATM   78  C   UNK N   1      36.983  12.233   6.222  0.00  0.00     0.083 A 
HETATM   79  C   UNK N   1      35.926  12.981   8.301  0.00  0.00     0.039 A 
HETATM   80  C   UNK N   1      37.027  11.324   5.161  0.00  0.00     0.028 A 
HETATM   81  C   UNK N   1      36.101  10.279   5.075  0.00  0.00     0.032 A 
HETATM   82  C   UNK N   1      34.937  12.833   9.276  0.00  0.00     0.074 A 
HETATM   83  C   UNK N   1      34.000  11.831   9.177  0.00  0.00     0.051 A 
BRANCH  78  84
HETATM   84  S   UNK N   1      38.184  13.589   6.252  0.00  0.00     0.130 S 
HETATM   85  O   UNK N   1      39.323  13.363   5.244  0.00  0.00    -0.598 OA
HETATM   86  O   UNK N   1      37.573  14.892   5.713  0.00  0.00    -0.598 OA
BRANCH  84  87
HETATM   87  O   UNK N   1      38.974  14.034   7.711  0.00  0.00    -0.292 OA
HETATM   88  H   UNK N   1      38.933  14.915   8.117  0.00  0.00     0.232 HD
ENDBRANCH  84  87
ENDBRANCH  78  84
BRANCH  82  89
HETATM   89  S   UNK N   1      34.854  13.859  10.723  0.00  0.00     0.129 S 
HETATM   90  O   UNK N   1      36.034  14.828  10.855  0.00  0.00    -0.598 OA
HETATM   91  O   UNK N   1      35.054  12.976  11.967  0.00  0.00    -0.598 OA
BRANCH  89  92
HETATM   92  O   UNK N   1      33.425  14.748  11.054  0.00  0.00    -0.292 OA
HETATM   93  H   UNK N   1      32.915  15.347  11.622  0.00  0.00     0.232 HD
ENDBRANCH  89  92
ENDBRANCH  82  89
BRANCH  77  94
HETATM   94  S   UNK N   1      32.652   9.716   8.206  0.00  0.00     0.130 S 
HETATM   95  O   UNK N   1      33.133   8.287   8.515  0.00  0.00    -0.598 OA
HETATM   96  O   UNK N   1      31.737   9.973   9.408  0.00  0.00    -0.598 OA
BRANCH  94  97
HETATM   97  O   UNK N   1      31.568   9.590   6.875  0.00  0.00    -0.292 OA
HETATM   98  H   UNK N   1      30.859   9.004   6.569  0.00  0.00     0.232 HD
ENDBRANCH  94  97
ENDBRANCH  77  94
ENDBRANCH  72  74
ENDBRANCH  65  70
ENDBRANCH  61  63
ENDBRANCH  55  59
ENDBRANCH   3  53
TORSDOF 22
ENDMDL
MODEL 6
REMARK VINA RESULT:      -9.2      6.101     12.891
REMARK  22 active torsions:
REMARK  status: ('A' for Active; 'I' for Inactive)
REMARK    1  A    between atoms: S_1  and  O_7 
REMARK    2  A    between atoms: S_1  and  C_40 
REMARK    3  A    between atoms: S_2  and  O_8 
REMARK    4  A    between atoms: S_2  and  C_41 
REMARK    5  A    between atoms: S_3  and  O_9 
REMARK    6  A    between atoms: S_3  and  C_42 
REMARK    7  A    between atoms: S_4  and  O_10 
REMARK    8  A    between atoms: S_4  and  C_43 
REMARK    9  A    between atoms: S_5  and  O_15 
REMARK   10  A    between atoms: S_5  and  C_48 
REMARK   11  A    between atoms: S_6  and  O_16 
REMARK   12  A    between atoms: S_6  and  C_49 
REMARK   13  A    between atoms: N_30  and  C_44 
REMARK       I    between atoms: N_30  and  C_56 
REMARK   14  A    between atoms: N_31  and  C_45 
REMARK       I    between atoms: N_31  and  C_57 
REMARK   15  A    between atoms: N_32  and  C_62 
REMARK       I    between atoms: N_32  and  C_72 
REMARK   16  A    between atoms: N_33  and  C_63 
REMARK       I    between atoms: N_33  and  C_73 
REMARK   17  A    between atoms: N_34  and  C_78 
REMARK       I    between atoms: N_34  and  C_86 
REMARK   18  A    between atoms: N_35  and  C_79 
REMARK       I    between atoms: N_35  and  C_86 
REMARK   19  A    between atoms: C_56  and  C_58 
REMARK   20  A    between atoms: C_57  and  C_59 
REMARK   21  A    between atoms: C_72  and  C_74 
REMARK   22  A    between atoms: C_73  and  C_75 
ROOT
HETATM    1  O   UNK N   1      26.052  15.942   1.368  0.00  0.00    -0.247 OA
HETATM    2  N   UNK N   1      25.470  14.724   3.169  0.00  0.00    -0.309 N 
HETATM    3  N   UNK N   1      26.990  13.930   1.558  0.00  0.00    -0.309 N 
HETATM    4  C   UNK N   1      26.214  14.923   2.049  0.00  0.00     0.325 C 
HETATM    5  H   UNK N   1      25.898  14.333   3.964  0.00  0.00     0.170 HD
HETATM    6  H   UNK N   1      27.576  14.078   0.781  0.00  0.00     0.170 HD
ENDROOT
BRANCH   2   7
HETATM    7  C   UNK N   1      24.105  15.063   3.224  0.00  0.00     0.037 A 
HETATM    8  C   UNK N   1      23.720  15.930   4.236  0.00  0.00     0.046 A 
HETATM    9  C   UNK N   1      22.487  16.523   4.260  0.00  0.00     0.034 A 
HETATM   10  C   UNK N   1      21.586  16.255   3.206  0.00  0.00     0.017 A 
HETATM   11  C   UNK N   1      21.960  15.398   2.156  0.00  0.00     0.003 A 
HETATM   12  C   UNK N   1      23.239  14.818   2.152  0.00  0.00     0.029 A 
BRANCH   9  13
HETATM   13  C   UNK N   1      22.215  17.495   5.362  0.00  0.00     0.256 C 
HETATM   14  O   UNK N   1      21.205  17.364   6.037  0.00  0.00    -0.267 OA
HETATM   15  N   UNK N   1      23.050  18.534   5.617  0.00  0.00    -0.322 N 
HETATM   16  H   UNK N   1      23.082  18.940   6.513  0.00  0.00     0.169 HD
BRANCH  15  17
HETATM   17  C   UNK N   1      23.870  19.023   4.581  0.00  0.00     0.042 A 
HETATM   18  C   UNK N   1      25.236  18.803   4.692  0.00  0.00     0.047 A 
HETATM   19  C   UNK N   1      26.132  19.330   3.789  0.00  0.00     0.034 A 
HETATM   20  C   UNK N   1      25.651  20.109   2.725  0.00  0.00     0.018 A 
HETATM   21  C   UNK N   1      24.267  20.304   2.574  0.00  0.00     0.010 A 
HETATM   22  C   UNK N   1      23.367  19.747   3.498  0.00  0.00    -0.035 A 
HETATM   23  C   UNK N   1      21.904  19.978   3.350  0.00  0.00     0.050 C 
BRANCH  19  24
HETATM   24  C   UNK N   1      27.539  18.930   3.923  0.00  0.00     0.256 C 
HETATM   25  O   UNK N   1      28.437  19.693   3.593  0.00  0.00    -0.267 OA
HETATM   26  N   UNK N   1      27.815  17.648   4.295  0.00  0.00    -0.322 N 
HETATM   27  H   UNK N   1      27.078  17.077   4.614  0.00  0.00     0.169 HD
BRANCH  26  28
HETATM   28  C   UNK N   1      29.114  17.114   4.241  0.00  0.00     0.047 A 
HETATM   29  C   UNK N   1      29.886  16.841   5.415  0.00  0.00     0.026 A 
HETATM   30  C   UNK N   1      31.119  16.126   5.240  0.00  0.00     0.003 A 
HETATM   31  C   UNK N   1      29.512  17.214   6.761  0.00  0.00     0.087 A 
HETATM   32  C   UNK N   1      31.551  15.747   3.950  0.00  0.00     0.083 A 
HETATM   33  C   UNK N   1      31.893  15.768   6.356  0.00  0.00     0.039 A 
HETATM   34  C   UNK N   1      30.801  16.096   2.835  0.00  0.00     0.028 A 
HETATM   35  C   UNK N   1      29.598  16.766   2.980  0.00  0.00     0.032 A 
HETATM   36  C   UNK N   1      31.499  16.108   7.644  0.00  0.00     0.074 A 
HETATM   37  C   UNK N   1      30.316  16.824   7.813  0.00  0.00     0.051 A 
BRANCH  32  38
HETATM   38  S   UNK N   1      33.029  14.755   3.694  0.00  0.00     0.130 S 
HETATM   39  O   UNK N   1      33.426  14.749   2.209  0.00  0.00    -0.598 OA
HETATM   40  O   UNK N   1      32.750  13.261   3.914  0.00  0.00    -0.598 OA
BRANCH  38  41
HETATM   41  O   UNK N   1      34.479  15.091   4.547  0.00  0.00    -0.292 OA
HETATM   42  H   UNK N   1      35.257  14.628   4.893  0.00  0.00     0.232 HD
ENDBRANCH  38  41
ENDBRANCH  32  38
BRANCH  36  43
HETATM   43  S   UNK N   1      32.451  15.508   9.078  0.00  0.00     0.129 S 
HETATM   44  O   UNK N   1      31.012  15.763   9.560  0.00  0.00    -0.598 OA
HETATM   45  O   UNK N   1      32.190  14.046   8.675  0.00  0.00    -0.598 OA
BRANCH  43  46
HETATM   46  O   UNK N   1      32.396  15.033  10.726  0.00  0.00    -0.292 OA
HETATM   47  H   UNK N   1      31.609  14.768  11.225  0.00  0.00     0.232 HD
ENDBRANCH  43  46
ENDBRANCH  36  43
BRANCH  31  48
HETATM   48  S   UNK N   1      28.104  18.189   7.334  0.00  0.00     0.130 S 
HETATM   49  O   UNK N   1      28.066  19.598   6.727  0.00  0.00    -0.598 OA
HETATM   50  O   UNK N   1      27.960  18.416   8.845  0.00  0.00    -0.598 OA
BRANCH  48  51
HETATM   51  O   UNK N   1      26.579  17.554   6.868  0.00  0.00    -0.292 OA
HETATM   52  H   UNK N   1      26.195  17.538   5.977  0.00  0.00     0.232 HD
ENDBRANCH  48  51
ENDBRANCH  31  48
ENDBRANCH  26  28
ENDBRANCH  19  24
ENDBRANCH  15  17
ENDBRANCH   9  13
ENDBRANCH   2   7
BRANCH   3  53
HETATM   53  C   UNK N   1      26.930  12.671   2.203  0.00  0.00     0.037 A 
HETATM   54  C   UNK N   1      26.316  11.664   1.519  0.00  0.00     0.046 A 
HETATM   55  C   UNK N   1      26.554  10.335   1.806  0.00  0.00     0.034 A 
HETATM   56  C   UNK N   1      27.382  10.000   2.887  0.00  0.00     0.017 A 
HETATM   57  C   UNK N   1      28.012  11.016   3.612  0.00  0.00     0.003 A 
HETATM   58  C   UNK N   1      27.848  12.352   3.216  0.00  0.00     0.029 A 
BRANCH  55  59
HETATM   59  C   UNK N   1      26.470   9.390   0.674  0.00  0.00     0.256 C 
HETATM   60  O   UNK N   1      27.400   9.332  -0.113  0.00  0.00    -0.267 OA
HETATM   61  N   UNK N   1      25.263   8.864   0.304  0.00  0.00    -0.322 N 
HETATM   62  H   UNK N   1      25.073   8.779  -0.658  0.00  0.00     0.169 HD
BRANCH  61  63
HETATM   63  C   UNK N   1      24.268   8.434   1.218  0.00  0.00     0.042 A 
HETATM   64  C   UNK N   1      23.072   9.082   1.115  0.00  0.00     0.047 A 
HETATM   65  C   UNK N   1      22.115   8.960   2.070  0.00  0.00     0.034 A 
HETATM   66  C   UNK N   1      22.290   8.079   3.146  0.00  0.00     0.018 A 
HETATM   67  C   UNK N   1      23.469   7.344   3.242  0.00  0.00     0.010 A 
HETATM   68  C   UNK N   1      24.496   7.567   2.314  0.00  0.00    -0.035 A 
HETATM   69  C   UNK N   1      25.813   6.925   2.546  0.00  0.00     0.050 C 
BRANCH  65  70
HETATM   70  C   UNK N   1      21.228  10.088   2.202  0.00  0.00     0.256 C 
HETATM   71  O   UNK N   1      20.182  10.056   1.572  0.00  0.00    -0.267 OA
HETATM   72  N   UNK N   1      21.413  11.117   3.062  0.00  0.00    -0.322 N 
HETATM   73  H   UNK N   1      20.621  11.701   3.025  0.00  0.00     0.169 HD
BRANCH  72  74
HETATM   74  C   UNK N   1      22.330  11.667   3.998  0.00  0.00     0.047 A 
HETATM   75  C   UNK N   1      21.789  12.505   4.999  0.00  0.00     0.026 A 
HETATM   76  C   UNK N   1      22.661  13.079   5.979  0.00  0.00     0.003 A 
HETATM   77  C   UNK N   1      20.382  12.816   5.053  0.00  0.00     0.087 A 
HETATM   78  C   UNK N   1      24.051  12.822   5.933  0.00  0.00     0.083 A 
HETATM   79  C   UNK N   1      22.120  13.901   6.983  0.00  0.00     0.039 A 
HETATM   80  C   UNK N   1      24.560  11.992   4.929  0.00  0.00     0.028 A 
HETATM   81  C   UNK N   1      23.711  11.420   3.975  0.00  0.00     0.032 A 
HETATM   82  C   UNK N   1      20.746  14.155   7.018  0.00  0.00     0.074 A 
HETATM   83  C   UNK N   1      19.913  13.626   6.061  0.00  0.00     0.051 A 
BRANCH  78  84
HETATM   84  S   UNK N   1      25.208  13.565   7.111  0.00  0.00     0.130 S 
HETATM   85  O   UNK N   1      26.666  13.422   6.646  0.00  0.00    -0.598 OA
HETATM   86  O   UNK N   1      25.064  15.095   7.148  0.00  0.00    -0.598 OA
BRANCH  84  87
HETATM   87  O   UNK N   1      25.225  13.077   8.758  0.00  0.00    -0.292 OA
HETATM   88  H   UNK N   1      25.905  13.328   9.403  0.00  0.00     0.232 HD
ENDBRANCH  84  87
ENDBRANCH  78  84
BRANCH  82  89
HETATM   89  S   UNK N   1      19.977  15.099   8.310  0.00  0.00     0.129 S 
HETATM   90  O   UNK N   1      18.865  16.029   7.809  0.00  0.00    -0.598 OA
HETATM   91  O   UNK N   1      20.994  16.117   8.852  0.00  0.00    -0.598 OA
BRANCH  89  92
HETATM   92  O   UNK N   1      19.381  14.302   9.707  0.00  0.00    -0.292 OA
HETATM   93  H   UNK N   1      19.404  13.559  10.330  0.00  0.00     0.232 HD
ENDBRANCH  89  92
ENDBRANCH  82  89
BRANCH  77  94
HETATM   94  S   UNK N   1      19.097  12.265   3.889  0.00  0.00     0.130 S 
HETATM   95  O   UNK N   1      18.793  10.760   3.992  0.00  0.00    -0.598 OA
HETATM   96  O   UNK N   1      17.730  12.855   4.253  0.00  0.00    -0.598 OA
BRANCH  94  97
HETATM   97  O   UNK N   1      19.271  12.615   2.213  0.00  0.00    -0.292 OA
HETATM   98  H   UNK N   1      19.925  12.490   1.508  0.00  0.00     0.232 HD
ENDBRANCH  94  97
ENDBRANCH  77  94
ENDBRANCH  72  74
ENDBRANCH  65  70
ENDBRANCH  61  63
ENDBRANCH  55  59
ENDBRANCH   3  53
TORSDOF 22
ENDMDL
MODEL 7
REMARK VINA RESULT:      -8.9      5.729     14.299
REMARK  22 active torsions:
REMARK  status: ('A' for Active; 'I' for Inactive)
REMARK    1  A    between atoms: S_1  and  O_7 
REMARK    2  A    between atoms: S_1  and  C_40 
REMARK    3  A    between atoms: S_2  and  O_8 
REMARK    4  A    between atoms: S_2  and  C_41 
REMARK    5  A    between atoms: S_3  and  O_9 
REMARK    6  A    between atoms: S_3  and  C_42 
REMARK    7  A    between atoms: S_4  and  O_10 
REMARK    8  A    between atoms: S_4  and  C_43 
REMARK    9  A    between atoms: S_5  and  O_15 
REMARK   10  A    between atoms: S_5  and  C_48 
REMARK   11  A    between atoms: S_6  and  O_16 
REMARK   12  A    between atoms: S_6  and  C_49 
REMARK   13  A    between atoms: N_30  and  C_44 
REMARK       I    between atoms: N_30  and  C_56 
REMARK   14  A    between atoms: N_31  and  C_45 
REMARK       I    between atoms: N_31  and  C_57 
REMARK   15  A    between atoms: N_32  and  C_62 
REMARK       I    between atoms: N_32  and  C_72 
REMARK   16  A    between atoms: N_33  and  C_63 
REMARK       I    between atoms: N_33  and  C_73 
REMARK   17  A    between atoms: N_34  and  C_78 
REMARK       I    between atoms: N_34  and  C_86 
REMARK   18  A    between atoms: N_35  and  C_79 
REMARK       I    between atoms: N_35  and  C_86 
REMARK   19  A    between atoms: C_56  and  C_58 
REMARK   20  A    between atoms: C_57  and  C_59 
REMARK   21  A    between atoms: C_72  and  C_74 
REMARK   22  A    between atoms: C_73  and  C_75 
ROOT
HETATM    1  O   UNK N   1      25.434  14.023   1.357  0.00  0.00    -0.247 OA
HETATM    2  N   UNK N   1      23.967  12.702   2.438  0.00  0.00    -0.309 N 
HETATM    3  N   UNK N   1      25.444  11.864   0.808  0.00  0.00    -0.309 N 
HETATM    4  C   UNK N   1      25.004  12.886   1.578  0.00  0.00     0.325 C 
HETATM    5  H   UNK N   1      23.981  11.927   3.044  0.00  0.00     0.170 HD
HETATM    6  H   UNK N   1      26.229  11.968   0.222  0.00  0.00     0.170 HD
ENDROOT
BRANCH   2   7
HETATM    7  C   UNK N   1      22.875  13.588   2.485  0.00  0.00     0.037 A 
HETATM    8  C   UNK N   1      22.636  14.217   3.698  0.00  0.00     0.046 A 
HETATM    9  C   UNK N   1      21.769  15.268   3.818  0.00  0.00     0.034 A 
HETATM   10  C   UNK N   1      21.112  15.739   2.660  0.00  0.00     0.017 A 
HETATM   11  C   UNK N   1      21.353  15.135   1.415  0.00  0.00     0.003 A 
HETATM   12  C   UNK N   1      22.261  14.069   1.321  0.00  0.00     0.029 A 
BRANCH   9  13
HETATM   13  C   UNK N   1      21.652  15.910   5.163  0.00  0.00     0.256 C 
HETATM   14  O   UNK N   1      20.588  15.851   5.761  0.00  0.00    -0.267 OA
HETATM   15  N   UNK N   1      22.690  16.577   5.726  0.00  0.00    -0.322 N 
HETATM   16  H   UNK N   1      22.746  16.680   6.704  0.00  0.00     0.169 HD
BRANCH  15  17
HETATM   17  C   UNK N   1      23.688  17.121   4.893  0.00  0.00     0.042 A 
HETATM   18  C   UNK N   1      24.894  16.438   4.813  0.00  0.00     0.047 A 
HETATM   19  C   UNK N   1      25.967  16.939   4.111  0.00  0.00     0.034 A 
HETATM   20  C   UNK N   1      25.838  18.173   3.456  0.00  0.00     0.018 A 
HETATM   21  C   UNK N   1      24.609  18.856   3.491  0.00  0.00     0.010 A 
HETATM   22  C   UNK N   1      23.521  18.322   4.201  0.00  0.00    -0.035 A 
HETATM   23  C   UNK N   1      22.230  19.061   4.259  0.00  0.00     0.050 C 
BRANCH  19  24
HETATM   24  C   UNK N   1      27.150  16.078   3.982  0.00  0.00     0.256 C 
HETATM   25  O   UNK N   1      27.044  14.861   4.045  0.00  0.00    -0.267 OA
HETATM   26  N   UNK N   1      28.377  16.668   3.924  0.00  0.00    -0.322 N 
HETATM   27  H   UNK N   1      28.429  17.645   3.813  0.00  0.00     0.169 HD
BRANCH  26  28
HETATM   28  C   UNK N   1      29.571  15.931   4.017  0.00  0.00     0.047 A 
HETATM   29  C   UNK N   1      30.330  15.840   5.227  0.00  0.00     0.026 A 
HETATM   30  C   UNK N   1      31.425  14.912   5.249  0.00  0.00     0.003 A 
HETATM   31  C   UNK N   1      30.068  16.598   6.430  0.00  0.00     0.087 A 
HETATM   32  C   UNK N   1      31.744  14.154   4.102  0.00  0.00     0.083 A 
HETATM   33  C   UNK N   1      32.170  14.725   6.424  0.00  0.00     0.039 A 
HETATM   34  C   UNK N   1      31.021  14.328   2.929  0.00  0.00     0.028 A 
HETATM   35  C   UNK N   1      29.948  15.201   2.890  0.00  0.00     0.032 A 
HETATM   36  C   UNK N   1      31.881  15.440   7.580  0.00  0.00     0.074 A 
HETATM   37  C   UNK N   1      30.836  16.360   7.553  0.00  0.00     0.051 A 
BRANCH  32  38
HETATM   38  S   UNK N   1      33.034  12.900   4.117  0.00  0.00     0.130 S 
HETATM   39  O   UNK N   1      34.424  13.554   4.168  0.00  0.00    -0.598 OA
HETATM   40  O   UNK N   1      33.122  12.166   2.771  0.00  0.00    -0.598 OA
BRANCH  38  41
HETATM   41  O   UNK N   1      33.066  11.678   5.320  0.00  0.00    -0.292 OA
HETATM   42  H   UNK N   1      32.761  10.768   5.458  0.00  0.00     0.232 HD
ENDBRANCH  38  41
ENDBRANCH  32  38
BRANCH  36  43
HETATM   43  S   UNK N   1      32.775  15.074   9.127  0.00  0.00     0.129 S 
HETATM   44  O   UNK N   1      31.390  15.619   9.517  0.00  0.00    -0.598 OA
HETATM   45  O   UNK N   1      32.320  13.605   9.075  0.00  0.00    -0.598 OA
BRANCH  43  46
HETATM   46  O   UNK N   1      32.689  15.009  10.839  0.00  0.00    -0.292 OA
HETATM   47  H   UNK N   1      32.521  14.223  11.381  0.00  0.00     0.232 HD
ENDBRANCH  43  46
ENDBRANCH  36  43
BRANCH  31  48
HETATM   48  S   UNK N   1      28.856  17.904   6.726  0.00  0.00     0.130 S 
HETATM   49  O   UNK N   1      27.467  17.361   7.083  0.00  0.00    -0.598 OA
HETATM   50  O   UNK N   1      28.599  18.909   5.594  0.00  0.00    -0.598 OA
BRANCH  48  51
HETATM   51  O   UNK N   1      29.215  18.896   8.080  0.00  0.00    -0.292 OA
HETATM   52  H   UNK N   1      28.640  19.560   8.492  0.00  0.00     0.232 HD
ENDBRANCH  48  51
ENDBRANCH  31  48
ENDBRANCH  26  28
ENDBRANCH  19  24
ENDBRANCH  15  17
ENDBRANCH   9  13
ENDBRANCH   2   7
BRANCH   3  53
HETATM   53  C   UNK N   1      24.735  10.640   0.876  0.00  0.00     0.037 A 
HETATM   54  C   UNK N   1      23.726  10.469  -0.024  0.00  0.00     0.046 A 
HETATM   55  C   UNK N   1      23.253   9.217  -0.363  0.00  0.00     0.034 A 
HETATM   56  C   UNK N   1      23.760   8.087   0.295  0.00  0.00     0.017 A 
HETATM   57  C   UNK N   1      24.786   8.238   1.232  0.00  0.00     0.003 A 
HETATM   58  C   UNK N   1      25.331   9.511   1.461  0.00  0.00     0.029 A 
BRANCH  55  59
HETATM   59  C   UNK N   1      22.750   9.052  -1.742  0.00  0.00     0.256 C 
HETATM   60  O   UNK N   1      23.539   9.128  -2.669  0.00  0.00    -0.267 OA
HETATM   61  N   UNK N   1      21.413   9.174  -2.006  0.00  0.00    -0.322 N 
HETATM   62  H   UNK N   1      21.146   9.650  -2.824  0.00  0.00     0.169 HD
BRANCH  61  63
HETATM   63  C   UNK N   1      20.387   8.658  -1.174  0.00  0.00     0.042 A 
HETATM   64  C   UNK N   1      19.625   9.600  -0.547  0.00  0.00     0.047 A 
HETATM   65  C   UNK N   1      18.779   9.271   0.461  0.00  0.00     0.034 A 
HETATM   66  C   UNK N   1      18.587   7.930   0.821  0.00  0.00     0.018 A 
HETATM   67  C   UNK N   1      19.292   6.935   0.151  0.00  0.00     0.010 A 
HETATM   68  C   UNK N   1      20.250   7.297  -0.808  0.00  0.00    -0.035 A 
HETATM   69  C   UNK N   1      21.128   6.241  -1.366  0.00  0.00     0.050 C 
BRANCH  65  70
HETATM   70  C   UNK N   1      18.526  10.316   1.421  0.00  0.00     0.256 C 
HETATM   71  O   UNK N   1      17.509  10.977   1.276  0.00  0.00    -0.267 OA
HETATM   72  N   UNK N   1      19.267  10.536   2.533  0.00  0.00    -0.322 N 
HETATM   73  H   UNK N   1      18.829  11.240   3.065  0.00  0.00     0.169 HD
BRANCH  72  74
HETATM   74  C   UNK N   1      20.444  10.127   3.215  0.00  0.00     0.047 A 
HETATM   75  C   UNK N   1      20.787  10.851   4.379  0.00  0.00     0.026 A 
HETATM   76  C   UNK N   1      21.956  10.479   5.118  0.00  0.00     0.003 A 
HETATM   77  C   UNK N   1      20.002  11.970   4.838  0.00  0.00     0.087 A 
HETATM   78  C   UNK N   1      22.766   9.408   4.674  0.00  0.00     0.083 A 
HETATM   79  C   UNK N   1      22.288  11.190   6.284  0.00  0.00     0.039 A 
HETATM   80  C   UNK N   1      22.406   8.711   3.516  0.00  0.00     0.028 A 
HETATM   81  C   UNK N   1      21.259   9.064   2.797  0.00  0.00     0.032 A 
HETATM   82  C   UNK N   1      21.485  12.251   6.712  0.00  0.00     0.074 A 
HETATM   83  C   UNK N   1      20.378  12.626   5.988  0.00  0.00     0.051 A 
BRANCH  78  84
HETATM   84  S   UNK N   1      24.286   8.929   5.536  0.00  0.00     0.130 S 
HETATM   85  O   UNK N   1      24.912   7.665   4.925  0.00  0.00    -0.598 OA
HETATM   86  O   UNK N   1      25.409   9.951   5.302  0.00  0.00    -0.598 OA
BRANCH  84  87
HETATM   87  O   UNK N   1      24.286   8.642   7.229  0.00  0.00    -0.292 OA
HETATM   88  H   UNK N   1      24.657   7.854   7.658  0.00  0.00     0.232 HD
ENDBRANCH  84  87
ENDBRANCH  78  84
BRANCH  82  89
HETATM   89  S   UNK N   1      21.782  13.131   8.224  0.00  0.00     0.129 S 
HETATM   90  O   UNK N   1      23.145  12.822   8.855  0.00  0.00    -0.598 OA
HETATM   91  O   UNK N   1      20.827  12.596   9.304  0.00  0.00    -0.598 OA
BRANCH  89  92
HETATM   92  O   UNK N   1      21.574  14.833   8.273  0.00  0.00    -0.292 OA
HETATM   93  H   UNK N   1      21.908  15.730   8.117  0.00  0.00     0.232 HD
ENDBRANCH  89  92
ENDBRANCH  82  89
BRANCH  77  94
HETATM   94  S   UNK N   1      18.525  12.669   4.039  0.00  0.00     0.130 S 
HETATM   95  O   UNK N   1      17.302  11.738   4.110  0.00  0.00    -0.598 OA
HETATM   96  O   UNK N   1      17.999  13.885   4.810  0.00  0.00    -0.598 OA
BRANCH  94  97
HETATM   97  O   UNK N   1      18.627  13.218   2.411  0.00  0.00    -0.292 OA
HETATM   98  H   UNK N   1      18.712  12.843   1.521  0.00  0.00     0.232 HD
ENDBRANCH  94  97
ENDBRANCH  77  94
ENDBRANCH  72  74
ENDBRANCH  65  70
ENDBRANCH  61  63
ENDBRANCH  55  59
ENDBRANCH   3  53
TORSDOF 22
ENDMDL
MODEL 8
REMARK VINA RESULT:      -8.9      4.992     13.314
REMARK  22 active torsions:
REMARK  status: ('A' for Active; 'I' for Inactive)
REMARK    1  A    between atoms: S_1  and  O_7 
REMARK    2  A    between atoms: S_1  and  C_40 
REMARK    3  A    between atoms: S_2  and  O_8 
REMARK    4  A    between atoms: S_2  and  C_41 
REMARK    5  A    between atoms: S_3  and  O_9 
REMARK    6  A    between atoms: S_3  and  C_42 
REMARK    7  A    between atoms: S_4  and  O_10 
REMARK    8  A    between atoms: S_4  and  C_43 
REMARK    9  A    between atoms: S_5  and  O_15 
REMARK   10  A    between atoms: S_5  and  C_48 
REMARK   11  A    between atoms: S_6  and  O_16 
REMARK   12  A    between atoms: S_6  and  C_49 
REMARK   13  A    between atoms: N_30  and  C_44 
REMARK       I    between atoms: N_30  and  C_56 
REMARK   14  A    between atoms: N_31  and  C_45 
REMARK       I    between atoms: N_31  and  C_57 
REMARK   15  A    between atoms: N_32  and  C_62 
REMARK       I    between atoms: N_32  and  C_72 
REMARK   16  A    between atoms: N_33  and  C_63 
REMARK       I    between atoms: N_33  and  C_73 
REMARK   17  A    between atoms: N_34  and  C_78 
REMARK       I    between atoms: N_34  and  C_86 
REMARK   18  A    between atoms: N_35  and  C_79 
REMARK       I    between atoms: N_35  and  C_86 
REMARK   19  A    between atoms: C_56  and  C_58 
REMARK   20  A    between atoms: C_57  and  C_59 
REMARK   21  A    between atoms: C_72  and  C_74 
REMARK   22  A    between atoms: C_73  and  C_75 
ROOT
HETATM    1  O   UNK N   1      32.041  17.228   3.750  0.00  0.00    -0.247 OA
HETATM    2  N   UNK N   1      30.637  15.934   4.941  0.00  0.00    -0.309 N 
HETATM    3  N   UNK N   1      30.046  16.825   2.845  0.00  0.00    -0.309 N 
HETATM    4  C   UNK N   1      30.965  16.624   3.817  0.00  0.00     0.325 C 
HETATM    5  H   UNK N   1      30.180  15.066   4.853  0.00  0.00     0.170 HD
HETATM    6  H   UNK N   1      30.284  17.274   2.002  0.00  0.00     0.170 HD
ENDROOT
BRANCH   2   7
HETATM    7  C   UNK N   1      30.932  16.425   6.227  0.00  0.00     0.037 A 
HETATM    8  C   UNK N   1      32.273  16.610   6.529  0.00  0.00     0.046 A 
HETATM    9  C   UNK N   1      32.684  17.299   7.638  0.00  0.00     0.034 A 
HETATM   10  C   UNK N   1      31.705  17.854   8.491  0.00  0.00     0.017 A 
HETATM   11  C   UNK N   1      30.340  17.700   8.196  0.00  0.00     0.003 A 
HETATM   12  C   UNK N   1      29.950  17.003   7.041  0.00  0.00     0.029 A 
BRANCH   9  13
HETATM   13  C   UNK N   1      34.155  17.496   7.816  0.00  0.00     0.256 C 
HETATM   14  O   UNK N   1      34.643  18.590   7.579  0.00  0.00    -0.267 OA
HETATM   15  N   UNK N   1      34.966  16.482   8.211  0.00  0.00    -0.322 N 
HETATM   16  H   UNK N   1      35.820  16.673   8.663  0.00  0.00     0.169 HD
BRANCH  15  17
HETATM   17  C   UNK N   1      34.569  15.152   7.968  0.00  0.00     0.042 A 
HETATM   18  C   UNK N   1      34.809  14.637   6.701  0.00  0.00     0.047 A 
HETATM   19  C   UNK N   1      34.367  13.388   6.330  0.00  0.00     0.034 A 
HETATM   20  C   UNK N   1      33.657  12.610   7.258  0.00  0.00     0.018 A 
HETATM   21  C   UNK N   1      33.445  13.100   8.559  0.00  0.00     0.010 A 
HETATM   22  C   UNK N   1      33.915  14.372   8.924  0.00  0.00    -0.035 A 
HETATM   23  C   UNK N   1      33.665  14.898  10.294  0.00  0.00     0.050 C 
BRANCH  19  24
HETATM   24  C   UNK N   1      34.785  12.888   5.014  0.00  0.00     0.256 C 
HETATM   25  O   UNK N   1      35.698  12.080   4.916  0.00  0.00    -0.267 OA
HETATM   26  N   UNK N   1      34.224  13.442   3.902  0.00  0.00    -0.322 N 
HETATM   27  H   UNK N   1      33.450  14.043   4.010  0.00  0.00     0.169 HD
BRANCH  26  28
HETATM   28  C   UNK N   1      34.710  13.187   2.608  0.00  0.00     0.047 A 
HETATM   29  C   UNK N   1      33.911  12.578   1.589  0.00  0.00     0.026 A 
HETATM   30  C   UNK N   1      34.455  12.539   0.261  0.00  0.00     0.003 A 
HETATM   31  C   UNK N   1      32.594  12.016   1.791  0.00  0.00     0.087 A 
HETATM   32  C   UNK N   1      35.743  13.056  -0.001  0.00  0.00     0.083 A 
HETATM   33  C   UNK N   1      33.697  12.015  -0.799  0.00  0.00     0.039 A 
HETATM   34  C   UNK N   1      36.508  13.574   1.035  0.00  0.00     0.028 A 
HETATM   35  C   UNK N   1      35.997  13.642   2.320  0.00  0.00     0.032 A 
HETATM   36  C   UNK N   1      32.420  11.509  -0.589  0.00  0.00     0.074 A 
HETATM   37  C   UNK N   1      31.901  11.522   0.703  0.00  0.00     0.051 A 
BRANCH  32  38
HETATM   38  S   UNK N   1      36.419  13.130  -1.666  0.00  0.00     0.130 S 
HETATM   39  O   UNK N   1      36.391  11.741  -2.324  0.00  0.00    -0.598 OA
HETATM   40  O   UNK N   1      37.931  13.400  -1.648  0.00  0.00    -0.598 OA
BRANCH  38  41
HETATM   41  O   UNK N   1      35.766  14.197  -2.840  0.00  0.00    -0.292 OA
HETATM   42  H   UNK N   1      34.940  14.346  -3.326  0.00  0.00     0.232 HD
ENDBRANCH  38  41
ENDBRANCH  32  38
BRANCH  36  43
HETATM   43  S   UNK N   1      31.410  10.965  -2.005  0.00  0.00     0.129 S 
HETATM   44  O   UNK N   1      30.669  12.139  -1.339  0.00  0.00    -0.598 OA
HETATM   45  O   UNK N   1      32.221  11.857  -2.962  0.00  0.00    -0.598 OA
BRANCH  43  46
HETATM   46  O   UNK N   1      30.014  11.265  -2.956  0.00  0.00    -0.292 OA
HETATM   47  H   UNK N   1      29.370  11.979  -2.830  0.00  0.00     0.232 HD
ENDBRANCH  43  46
ENDBRANCH  36  43
BRANCH  31  48
HETATM   48  S   UNK N   1      31.657  11.806   3.320  0.00  0.00     0.130 S 
HETATM   49  O   UNK N   1      31.341  13.136   4.015  0.00  0.00    -0.598 OA
HETATM   50  O   UNK N   1      32.272  10.931   4.422  0.00  0.00    -0.598 OA
BRANCH  48  51
HETATM   51  O   UNK N   1      30.092  11.137   3.094  0.00  0.00    -0.292 OA
HETATM   52  H   UNK N   1      29.590  11.081   2.266  0.00  0.00     0.232 HD
ENDBRANCH  48  51
ENDBRANCH  31  48
ENDBRANCH  26  28
ENDBRANCH  19  24
ENDBRANCH  15  17
ENDBRANCH   9  13
ENDBRANCH   2   7
BRANCH   3  53
HETATM   53  C   UNK N   1      28.728  16.364   3.083  0.00  0.00     0.037 A 
HETATM   54  C   UNK N   1      28.538  15.015   3.052  0.00  0.00     0.046 A 
HETATM   55  C   UNK N   1      27.460  14.414   3.669  0.00  0.00     0.034 A 
HETATM   56  C   UNK N   1      26.479  15.212   4.277  0.00  0.00     0.017 A 
HETATM   57  C   UNK N   1      26.645  16.599   4.310  0.00  0.00     0.003 A 
HETATM   58  C   UNK N   1      27.814  17.169   3.783  0.00  0.00     0.029 A 
BRANCH  55  59
HETATM   59  C   UNK N   1      27.679  13.054   4.202  0.00  0.00     0.256 C 
HETATM   60  O   UNK N   1      28.366  12.916   5.200  0.00  0.00    -0.267 OA
HETATM   61  N   UNK N   1      27.434  11.960   3.418  0.00  0.00    -0.322 N 
HETATM   62  H   UNK N   1      28.068  11.208   3.464  0.00  0.00     0.169 HD
BRANCH  61  63
HETATM   63  C   UNK N   1      26.326  11.839   2.543  0.00  0.00     0.042 A 
HETATM   64  C   UNK N   1      25.119  12.156   3.094  0.00  0.00     0.047 A 
HETATM   65  C   UNK N   1      23.952  11.855   2.468  0.00  0.00     0.034 A 
HETATM   66  C   UNK N   1      23.957  11.298   1.182  0.00  0.00     0.018 A 
HETATM   67  C   UNK N   1      25.172  11.032   0.556  0.00  0.00     0.010 A 
HETATM   68  C   UNK N   1      26.367  11.238   1.261  0.00  0.00    -0.035 A 
HETATM   69  C   UNK N   1      27.637  10.765   0.657  0.00  0.00     0.050 C 
BRANCH  65  70
HETATM   70  C   UNK N   1      22.821  11.647   3.336  0.00  0.00     0.256 C 
HETATM   71  O   UNK N   1      22.748  10.575   3.915  0.00  0.00    -0.267 OA
HETATM   72  N   UNK N   1      21.905  12.595   3.647  0.00  0.00    -0.322 N 
HETATM   73  H   UNK N   1      21.296  12.228   4.330  0.00  0.00     0.169 HD
BRANCH  72  74
HETATM   74  C   UNK N   1      21.496  13.923   3.351  0.00  0.00     0.047 A 
HETATM   75  C   UNK N   1      21.076  14.716   4.443  0.00  0.00     0.026 A 
HETATM   76  C   UNK N   1      20.665  16.067   4.212  0.00  0.00     0.003 A 
HETATM   77  C   UNK N   1      21.032  14.197   5.788  0.00  0.00     0.087 A 
HETATM   78  C   UNK N   1      20.663  16.595   2.899  0.00  0.00     0.083 A 
HETATM   79  C   UNK N   1      20.261  16.860   5.300  0.00  0.00     0.039 A 
HETATM   80  C   UNK N   1      21.079  15.787   1.836  0.00  0.00     0.028 A 
HETATM   81  C   UNK N   1      21.493  14.469   2.059  0.00  0.00     0.032 A 
HETATM   82  C   UNK N   1      20.261  16.329   6.592  0.00  0.00     0.074 A 
HETATM   83  C   UNK N   1      20.630  15.023   6.812  0.00  0.00     0.051 A 
BRANCH  78  84
HETATM   84  S   UNK N   1      20.099  18.278   2.538  0.00  0.00     0.130 S 
HETATM   85  O   UNK N   1      20.769  19.312   3.457  0.00  0.00    -0.598 OA
HETATM   86  O   UNK N   1      20.591  18.751   1.161  0.00  0.00    -0.598 OA
BRANCH  84  87
HETATM   87  O   UNK N   1      18.429  18.675   2.578  0.00  0.00    -0.292 OA
HETATM   88  H   UNK N   1      17.913  18.980   1.814  0.00  0.00     0.232 HD
ENDBRANCH  84  87
ENDBRANCH  78  84
BRANCH  82  89
HETATM   89  S   UNK N   1      19.861  17.295   8.027  0.00  0.00     0.129 S 
HETATM   90  O   UNK N   1      20.334  18.750   7.937  0.00  0.00    -0.598 OA
HETATM   91  O   UNK N   1      20.693  16.784   9.215  0.00  0.00    -0.598 OA
BRANCH  89  92
HETATM   92  O   UNK N   1      18.249  17.320   8.613  0.00  0.00    -0.292 OA
HETATM   93  H   UNK N   1      17.374  16.910   8.697  0.00  0.00     0.232 HD
ENDBRANCH  89  92
ENDBRANCH  82  89
BRANCH  77  94
HETATM   94  S   UNK N   1      21.439  12.506   6.320  0.00  0.00     0.130 S 
HETATM   95  O   UNK N   1      22.948  12.205   6.277  0.00  0.00    -0.598 OA
HETATM   96  O   UNK N   1      21.154  12.310   7.813  0.00  0.00    -0.598 OA
BRANCH  94  97
HETATM   97  O   UNK N   1      20.654  11.173   5.566  0.00  0.00    -0.292 OA
HETATM   98  H   UNK N   1      20.893  10.332   5.145  0.00  0.00     0.232 HD
ENDBRANCH  94  97
ENDBRANCH  77  94
ENDBRANCH  72  74
ENDBRANCH  65  70
ENDBRANCH  61  63
ENDBRANCH  55  59
ENDBRANCH   3  53
TORSDOF 22
ENDMDL
MODEL 9
REMARK VINA RESULT:      -8.9      4.418      9.450
REMARK  22 active torsions:
REMARK  status: ('A' for Active; 'I' for Inactive)
REMARK    1  A    between atoms: S_1  and  O_7 
REMARK    2  A    between atoms: S_1  and  C_40 
REMARK    3  A    between atoms: S_2  and  O_8 
REMARK    4  A    between atoms: S_2  and  C_41 
REMARK    5  A    between atoms: S_3  and  O_9 
REMARK    6  A    between atoms: S_3  and  C_42 
REMARK    7  A    between atoms: S_4  and  O_10 
REMARK    8  A    between atoms: S_4  and  C_43 
REMARK    9  A    between atoms: S_5  and  O_15 
REMARK   10  A    between atoms: S_5  and  C_48 
REMARK   11  A    between atoms: S_6  and  O_16 
REMARK   12  A    between atoms: S_6  and  C_49 
REMARK   13  A    between atoms: N_30  and  C_44 
REMARK       I    between atoms: N_30  and  C_56 
REMARK   14  A    between atoms: N_31  and  C_45 
REMARK       I    between atoms: N_31  and  C_57 
REMARK   15  A    between atoms: N_32  and  C_62 
REMARK       I    between atoms: N_32  and  C_72 
REMARK   16  A    between atoms: N_33  and  C_63 
REMARK       I    between atoms: N_33  and  C_73 
REMARK   17  A    between atoms: N_34  and  C_78 
REMARK       I    between atoms: N_34  and  C_86 
REMARK   18  A    between atoms: N_35  and  C_79 
REMARK       I    between atoms: N_35  and  C_86 
REMARK   19  A    between atoms: C_56  and  C_58 
REMARK   20  A    between atoms: C_57  and  C_59 
REMARK   21  A    between atoms: C_72  and  C_74 
REMARK   22  A    between atoms: C_73  and  C_75 
ROOT
HETATM    1  O   UNK N   1      25.820  15.535   6.956  0.00  0.00    -0.247 OA
HETATM    2  N   UNK N   1      25.659  15.215   4.734  0.00  0.00    -0.309 N 
HETATM    3  N   UNK N   1      27.652  14.810   5.917  0.00  0.00    -0.309 N 
HETATM    4  C   UNK N   1      26.339  15.136   5.908  0.00  0.00     0.325 C 
HETATM    5  H   UNK N   1      25.731  14.476   4.089  0.00  0.00     0.170 HD
HETATM    6  H   UNK N   1      28.143  14.695   6.763  0.00  0.00     0.170 HD
ENDROOT
BRANCH   2   7
HETATM    7  C   UNK N   1      24.853  16.325   4.416  0.00  0.00     0.037 A 
HETATM    8  C   UNK N   1      23.577  16.342   4.960  0.00  0.00     0.046 A 
HETATM    9  C   UNK N   1      22.786  17.458   4.930  0.00  0.00     0.034 A 
HETATM   10  C   UNK N   1      23.297  18.636   4.342  0.00  0.00     0.017 A 
HETATM   11  C   UNK N   1      24.596  18.651   3.804  0.00  0.00     0.003 A 
HETATM   12  C   UNK N   1      25.389  17.495   3.865  0.00  0.00     0.029 A 
BRANCH   9  13
HETATM   13  C   UNK N   1      21.459  17.376   5.614  0.00  0.00     0.256 C 
HETATM   14  O   UNK N   1      21.400  17.546   6.823  0.00  0.00    -0.267 OA
HETATM   15  N   UNK N   1      20.322  17.094   4.930  0.00  0.00    -0.322 N 
HETATM   16  H   UNK N   1      19.446  17.383   5.276  0.00  0.00     0.169 HD
BRANCH  15  17
HETATM   17  C   UNK N   1      20.411  16.382   3.717  0.00  0.00     0.042 A 
HETATM   18  C   UNK N   1      20.536  15.002   3.796  0.00  0.00     0.047 A 
HETATM   19  C   UNK N   1      20.734  14.226   2.676  0.00  0.00     0.034 A 
HETATM   20  C   UNK N   1      20.809  14.846   1.420  0.00  0.00     0.018 A 
HETATM   21  C   UNK N   1      20.639  16.239   1.319  0.00  0.00     0.010 A 
HETATM   22  C   UNK N   1      20.424  17.013   2.471  0.00  0.00    -0.035 A 
HETATM   23  C   UNK N   1      20.273  18.489   2.364  0.00  0.00     0.050 C 
BRANCH  19  24
HETATM   24  C   UNK N   1      20.724  12.768   2.855  0.00  0.00     0.256 C 
HETATM   25  O   UNK N   1      20.710  12.022   1.885  0.00  0.00    -0.267 OA
HETATM   26  N   UNK N   1      20.595  12.272   4.118  0.00  0.00    -0.322 N 
HETATM   27  H   UNK N   1      20.670  12.890   4.881  0.00  0.00     0.169 HD
BRANCH  26  28
HETATM   28  C   UNK N   1      20.359  10.908   4.369  0.00  0.00     0.047 A 
HETATM   29  C   UNK N   1      21.326  10.059   4.994  0.00  0.00     0.026 A 
HETATM   30  C   UNK N   1      20.902   8.738   5.364  0.00  0.00     0.003 A 
HETATM   31  C   UNK N   1      22.689  10.435   5.296  0.00  0.00     0.087 A 
HETATM   32  C   UNK N   1      19.588   8.303   5.082  0.00  0.00     0.083 A 
HETATM   33  C   UNK N   1      21.780   7.877   6.040  0.00  0.00     0.039 A 
HETATM   34  C   UNK N   1      18.707   9.140   4.410  0.00  0.00     0.028 A 
HETATM   35  C   UNK N   1      19.087  10.425   4.063  0.00  0.00     0.032 A 
HETATM   36  C   UNK N   1      23.076   8.270   6.350  0.00  0.00     0.074 A 
HETATM   37  C   UNK N   1      23.498   9.541   5.969  0.00  0.00     0.051 A 
BRANCH  32  38
HETATM   38  S   UNK N   1      18.979   6.700   5.625  0.00  0.00     0.130 S 
HETATM   39  O   UNK N   1      17.553   6.459   5.107  0.00  0.00    -0.598 OA
HETATM   40  O   UNK N   1      18.732   6.676   7.141  0.00  0.00    -0.598 OA
BRANCH  38  41
HETATM   41  O   UNK N   1      19.839   5.260   5.267  0.00  0.00    -0.292 OA
HETATM   42  H   UNK N   1      20.702   4.979   4.927  0.00  0.00     0.232 HD
ENDBRANCH  38  41
ENDBRANCH  32  38
BRANCH  36  43
HETATM   43  S   UNK N   1      24.145   7.182   7.350  0.00  0.00     0.129 S 
HETATM   44  O   UNK N   1      22.772   6.496   7.238  0.00  0.00    -0.598 OA
HETATM   45  O   UNK N   1      24.715   6.528   6.079  0.00  0.00    -0.598 OA
BRANCH  43  46
HETATM   46  O   UNK N   1      24.285   5.673   8.155  0.00  0.00    -0.292 OA
HETATM   47  H   UNK N   1      24.570   5.531   9.070  0.00  0.00     0.232 HD
ENDBRANCH  43  46
ENDBRANCH  36  43
BRANCH  31  48
HETATM   48  S   UNK N   1      23.579  11.954   4.892  0.00  0.00     0.130 S 
HETATM   49  O   UNK N   1      25.058  11.907   5.300  0.00  0.00    -0.598 OA
HETATM   50  O   UNK N   1      23.056  13.269   5.487  0.00  0.00    -0.598 OA
BRANCH  48  51
HETATM   51  O   UNK N   1      23.680  12.277   3.209  0.00  0.00    -0.292 OA
HETATM   52  H   UNK N   1      24.480  12.460   2.692  0.00  0.00     0.232 HD
ENDBRANCH  48  51
ENDBRANCH  31  48
ENDBRANCH  26  28
ENDBRANCH  19  24
ENDBRANCH  15  17
ENDBRANCH   9  13
ENDBRANCH   2   7
BRANCH   3  53
HETATM   53  C   UNK N   1      28.294  14.639   4.666  0.00  0.00     0.037 A 
HETATM   54  C   UNK N   1      28.216  13.399   4.105  0.00  0.00     0.046 A 
HETATM   55  C   UNK N   1      28.401  13.197   2.752  0.00  0.00     0.034 A 
HETATM   56  C   UNK N   1      28.763  14.279   1.935  0.00  0.00     0.017 A 
HETATM   57  C   UNK N   1      28.862  15.557   2.491  0.00  0.00     0.003 A 
HETATM   58  C   UNK N   1      28.545  15.750   3.845  0.00  0.00     0.029 A 
BRANCH  55  59
HETATM   59  C   UNK N   1      27.641  12.088   2.141  0.00  0.00     0.256 C 
HETATM   60  O   UNK N   1      26.447  12.235   1.937  0.00  0.00    -0.267 OA
HETATM   61  N   UNK N   1      28.156  10.821   2.137  0.00  0.00    -0.322 N 
HETATM   62  H   UNK N   1      27.542  10.073   2.319  0.00  0.00     0.169 HD
BRANCH  61  63
HETATM   63  C   UNK N   1      29.518  10.516   1.889  0.00  0.00     0.042 A 
HETATM   64  C   UNK N   1      30.187   9.965   2.942  0.00  0.00     0.047 A 
HETATM   65  C   UNK N   1      31.539   9.851   2.943  0.00  0.00     0.034 A 
HETATM   66  C   UNK N   1      32.284  10.205   1.810  0.00  0.00     0.018 A 
HETATM   67  C   UNK N   1      31.627  10.701   0.687  0.00  0.00     0.010 A 
HETATM   68  C   UNK N   1      30.243  10.924   0.743  0.00  0.00    -0.035 A 
HETATM   69  C   UNK N   1      29.593  11.634  -0.386  0.00  0.00     0.050 C 
BRANCH  65  70
HETATM   70  C   UNK N   1      32.160   9.863   4.244  0.00  0.00     0.256 C 
HETATM   71  O   UNK N   1      32.482   8.787   4.721  0.00  0.00    -0.267 OA
HETATM   72  N   UNK N   1      32.519  10.983   4.915  0.00  0.00    -0.322 N 
HETATM   73  H   UNK N   1      33.007  10.716   5.728  0.00  0.00     0.169 HD
BRANCH  72  74
HETATM   74  C   UNK N   1      32.451  12.402   4.880  0.00  0.00     0.047 A 
HETATM   75  C   UNK N   1      32.851  13.086   6.050  0.00  0.00     0.026 A 
HETATM   76  C   UNK N   1      32.817  14.517   6.073  0.00  0.00     0.003 A 
HETATM   77  C   UNK N   1      33.278  12.382   7.234  0.00  0.00     0.087 A 
HETATM   78  C   UNK N   1      32.369  15.235   4.939  0.00  0.00     0.083 A 
HETATM   79  C   UNK N   1      33.230  15.196   7.232  0.00  0.00     0.039 A 
HETATM   80  C   UNK N   1      31.974  14.533   3.796  0.00  0.00     0.028 A 
HETATM   81  C   UNK N   1      32.016  13.135   3.765  0.00  0.00     0.032 A 
HETATM   82  C   UNK N   1      33.665  14.478   8.348  0.00  0.00     0.074 A 
HETATM   83  C   UNK N   1      33.672  13.103   8.337  0.00  0.00     0.051 A 
BRANCH  78  84
HETATM   84  S   UNK N   1      32.250  17.043   4.930  0.00  0.00     0.130 S 
HETATM   85  O   UNK N   1      31.347  17.560   6.061  0.00  0.00    -0.598 OA
HETATM   86  O   UNK N   1      33.590  17.694   5.308  0.00  0.00    -0.598 OA
BRANCH  84  87
HETATM   87  O   UNK N   1      31.722  17.883   3.529  0.00  0.00    -0.292 OA
HETATM   88  H   UNK N   1      31.898  17.605   2.616  0.00  0.00     0.232 HD
ENDBRANCH  84  87
ENDBRANCH  78  84
BRANCH  82  89
HETATM   89  S   UNK N   1      34.294  15.265   9.810  0.00  0.00     0.129 S 
HETATM   90  O   UNK N   1      34.449  16.784   9.670  0.00  0.00    -0.598 OA
HETATM   91  O   UNK N   1      35.756  14.834  10.013  0.00  0.00    -0.598 OA
BRANCH  89  92
HETATM   92  O   UNK N   1      33.545  14.968  11.325  0.00  0.00    -0.292 OA
HETATM   93  H   UNK N   1      32.828  15.127  11.958  0.00  0.00     0.232 HD
ENDBRANCH  89  92
ENDBRANCH  82  89
BRANCH  77  94
HETATM   94  S   UNK N   1      33.343  10.579   7.468  0.00  0.00     0.130 S 
HETATM   95  O   UNK N   1      34.427   9.897   6.614  0.00  0.00    -0.598 OA
HETATM   96  O   UNK N   1      33.828  10.220   8.878  0.00  0.00    -0.598 OA
BRANCH  94  97
HETATM   97  O   UNK N   1      31.908   9.650   7.271  0.00  0.00    -0.292 OA
HETATM   98  H   UNK N   1      30.978   9.791   7.036  0.00  0.00     0.232 HD
ENDBRANCH  94  97
ENDBRANCH  77  94
ENDBRANCH  72  74
ENDBRANCH  65  70
ENDBRANCH  61  63
ENDBRANCH  55  59
ENDBRANCH   3  53
TORSDOF 22
ENDMDL
