MODEL 1
REMARK VINA RESULT:      -7.2      0.000      0.000
REMARK  13 active torsions:
REMARK  status: ('A' for Active; 'I' for Inactive)
REMARK    1  A    between atoms: O_3  and  C_25 
REMARK    2  A    between atoms: O_3  and  C_30 
REMARK    3  A    between atoms: O_5  and  N_10 
REMARK       I    between atoms: N_6  and  C_22 
REMARK    4  A    between atoms: C_13  and  N_7 
REMARK    5  A    between atoms: N_7  and  C_24 
REMARK       I    between atoms: N_8  and  C_23 
REMARK    6  A    between atoms: N_8  and  C_26 
REMARK    7  A    between atoms: N_9  and  C_35 
REMARK    8  A    between atoms: C_12  and  C_13 
REMARK    9  A    between atoms: C_13  and  C_22 
REMARK   10  A    between atoms: C_18  and  C_23 
REMARK   11  A    between atoms: C_24  and  C_25 
REMARK   12  A    between atoms: C_26  and  C_27 
REMARK   13  A    between atoms: C_33  and  C_35 
ROOT
HETATM    1  O   UNK N   1      23.848  16.356   5.851  0.00  0.00    -0.271 OA
HETATM    2  N   UNK N   1      22.712  17.799   4.590  0.00  0.00    -0.337 N 
HETATM    3  C   UNK N   1      21.389  17.466   4.959  0.00  0.00     0.180 A 
HETATM    4  C   UNK N   1      22.444  18.849   3.684  0.00  0.00     0.129 A 
HETATM    5  C   UNK N   1      20.937  18.609   4.005  0.00  0.00     0.055 A 
HETATM    6  C   UNK N   1      23.884  17.253   5.025  0.00  0.00     0.243 C 
ENDROOT
BRANCH   3   7
HETATM    7  C   UNK N   1      21.107  17.779   6.412  0.00  0.00     0.240 C 
HETATM    8  O   UNK N   1      21.100  18.938   6.799  0.00  0.00    -0.271 OA
HETATM    9  N   UNK N   1      20.839  16.784   7.291  0.00  0.00    -0.355 N 
HETATM   10  H   UNK N   1      20.649  17.010   8.230  0.00  0.00     0.162 HD
BRANCH   9  11
HETATM   11  C   UNK N   1      20.824  15.400   6.882  0.00  0.00     0.161 C 
BRANCH  11  12
HETATM   12  C   UNK N   1      21.539  14.565   7.886  0.00  0.00    -0.040 A 
HETATM   13  C   UNK N   1      22.670  13.844   7.498  0.00  0.00     0.010 A 
HETATM   14  C   UNK N   1      23.351  13.054   8.427  0.00  0.00     0.016 A 
HETATM   15  C   UNK N   1      22.917  12.981   9.761  0.00  0.00     0.009 A 
HETATM   16  C   UNK N   1      21.780  13.714  10.140  0.00  0.00     0.016 A 
HETATM   17  C   UNK N   1      21.091  14.499   9.209  0.00  0.00     0.010 A 
BRANCH  15  18
HETATM   18  C   UNK N   1      23.628  12.156  10.788  0.00  0.00     0.129 C 
HETATM   19  N   UNK N   1      24.843  12.387  11.168  0.00  0.00    -0.253 N 
ATOM     20  HN  UNK N   1      25.254  11.781  11.878  1.00  0.00     0.196 HD
BRANCH  18  21
HETATM   21  N   UNK N   1      22.940  11.069  11.377  0.00  0.00    -0.383 N 
HETATM   22  H   UNK N   1      23.291  10.592  12.163  0.00  0.00     0.157 HD
HETATM   23  H   UNK N   1      22.082  10.783  10.989  0.00  0.00     0.157 HD
ENDBRANCH  18  21
BRANCH  19  24
HETATM   24  O   UNK N   1      25.572  13.368  10.680  0.00  0.00    -0.288 OA
HETATM   25  H   UNK N   1      26.045  13.956  11.235  0.00  0.00     0.244 HD
ENDBRANCH  19  24
ENDBRANCH  15  18
ENDBRANCH  11  12
ENDBRANCH   9  11
ENDBRANCH   3   7
BRANCH   6  26
HETATM   26  C   UNK N   1      25.250  17.700   4.515  0.00  0.00     0.174 C 
BRANCH  26  27
HETATM   27  N   UNK N   1      26.191  18.066   5.569  0.00  0.00    -0.400 N 
HETATM   28  H   UNK N   1      26.436  17.486   6.372  0.00  0.00     0.154 HD
BRANCH  27  29
HETATM   29  C   UNK N   1      26.722  19.390   5.287  0.00  0.00     0.226 C 
BRANCH  29  30
HETATM   30  C   UNK N   1      27.617  19.812   6.402  0.00  0.00     0.276 C 
HETATM   31  O   UNK N   1      27.735  21.000   6.667  0.00  0.00    -0.263 OA
BRANCH  30  32
HETATM   32  O   UNK N   1      28.297  18.871   7.100  0.00  0.00    -0.321 OA
BRANCH  32  33
HETATM   33  C   UNK N   1      28.374  18.878   8.472  0.00  0.00     0.174 C 
HETATM   34  C   UNK N   1      27.997  17.509   9.001  0.00  0.00     0.034 C 
ENDBRANCH  32  33
ENDBRANCH  30  32
ENDBRANCH  29  30
ENDBRANCH  27  29
ENDBRANCH  26  27
BRANCH  26  35
HETATM   35  C   UNK N   1      25.936  16.698   3.570  0.00  0.00     0.017 C 
HETATM   36  C   UNK N   1      24.858  15.863   2.859  0.00  0.00     0.007 C 
HETATM   37  C   UNK N   1      25.474  14.660   2.149  0.00  0.00     0.000 C 
HETATM   38  C   UNK N   1      26.204  13.725   3.125  0.00  0.00     0.000 C 
HETATM   39  C   UNK N   1      26.605  14.398   4.443  0.00  0.00     0.000 C 
HETATM   40  C   UNK N   1      27.047  15.835   4.201  0.00  0.00     0.007 C 
ENDBRANCH  26  35
ENDBRANCH   6  26
TORSDOF 13
ENDMDL
MODEL 2
REMARK VINA RESULT:      -7.2      9.278     13.495
REMARK  13 active torsions:
REMARK  status: ('A' for Active; 'I' for Inactive)
REMARK    1  A    between atoms: O_3  and  C_25 
REMARK    2  A    between atoms: O_3  and  C_30 
REMARK    3  A    between atoms: O_5  and  N_10 
REMARK       I    between atoms: N_6  and  C_22 
REMARK    4  A    between atoms: C_13  and  N_7 
REMARK    5  A    between atoms: N_7  and  C_24 
REMARK       I    between atoms: N_8  and  C_23 
REMARK    6  A    between atoms: N_8  and  C_26 
REMARK    7  A    between atoms: N_9  and  C_35 
REMARK    8  A    between atoms: C_12  and  C_13 
REMARK    9  A    between atoms: C_13  and  C_22 
REMARK   10  A    between atoms: C_18  and  C_23 
REMARK   11  A    between atoms: C_24  and  C_25 
REMARK   12  A    between atoms: C_26  and  C_27 
REMARK   13  A    between atoms: C_33  and  C_35 
ROOT
HETATM    1  O   UNK N   1      34.291  14.160  12.110  0.00  0.00    -0.271 OA
HETATM    2  N   UNK N   1      36.160  13.968  10.912  0.00  0.00    -0.337 N 
HETATM    3  C   UNK N   1      35.742  14.565   9.700  0.00  0.00     0.180 A 
HETATM    4  C   UNK N   1      37.498  13.667  10.575  0.00  0.00     0.129 A 
HETATM    5  C   UNK N   1      37.190  14.315   9.190  0.00  0.00     0.055 A 
HETATM    6  C   UNK N   1      35.449  13.776  12.060  0.00  0.00     0.243 C 
ENDROOT
BRANCH   3   7
HETATM    7  C   UNK N   1      35.433  16.036   9.868  0.00  0.00     0.240 C 
HETATM    8  O   UNK N   1      36.151  16.738  10.564  0.00  0.00    -0.271 OA
HETATM    9  N   UNK N   1      34.373  16.593   9.234  0.00  0.00    -0.355 N 
HETATM   10  H   UNK N   1      34.195  17.555   9.349  0.00  0.00     0.162 HD
BRANCH   9  11
HETATM   11  C   UNK N   1      33.501  15.810   8.393  0.00  0.00     0.161 C 
BRANCH  11  12
HETATM   12  C   UNK N   1      32.215  16.532   8.182  0.00  0.00    -0.040 A 
HETATM   13  C   UNK N   1      31.255  15.986   7.328  0.00  0.00     0.010 A 
HETATM   14  C   UNK N   1      30.045  16.652   7.117  0.00  0.00     0.016 A 
HETATM   15  C   UNK N   1      29.773  17.868   7.765  0.00  0.00     0.009 A 
HETATM   16  C   UNK N   1      30.746  18.404   8.626  0.00  0.00     0.016 A 
HETATM   17  C   UNK N   1      31.962  17.744   8.831  0.00  0.00     0.010 A 
BRANCH  15  18
HETATM   18  C   UNK N   1      28.484  18.604   7.575  0.00  0.00     0.129 C 
HETATM   19  N   UNK N   1      27.537  18.616   8.456  0.00  0.00    -0.253 N 
ATOM     20  HN  UNK N   1      26.689  19.146   8.252  1.00  0.00     0.196 HD
BRANCH  18  21
HETATM   21  N   UNK N   1      28.288  19.326   6.375  0.00  0.00    -0.383 N 
HETATM   22  H   UNK N   1      28.606  20.250   6.262  0.00  0.00     0.157 HD
HETATM   23  H   UNK N   1      27.819  18.889   5.628  0.00  0.00     0.157 HD
ENDBRANCH  18  21
BRANCH  19  24
HETATM   24  O   UNK N   1      27.616  17.974   9.603  0.00  0.00    -0.288 OA
HETATM   25  H   UNK N   1      26.863  17.832  10.142  0.00  0.00     0.244 HD
ENDBRANCH  19  24
ENDBRANCH  15  18
ENDBRANCH  11  12
ENDBRANCH   9  11
ENDBRANCH   3   7
BRANCH   6  26
HETATM   26  C   UNK N   1      36.026  13.087  13.292  0.00  0.00     0.174 C 
BRANCH  26  27
HETATM   27  N   UNK N   1      35.329  13.403  14.535  0.00  0.00    -0.400 N 
HETATM   28  H   UNK N   1      34.321  13.341  14.682  0.00  0.00     0.154 HD
BRANCH  27  29
HETATM   29  C   UNK N   1      36.306  13.820  15.530  0.00  0.00     0.226 C 
BRANCH  29  30
HETATM   30  C   UNK N   1      35.695  13.740  16.887  0.00  0.00     0.276 C 
HETATM   31  O   UNK N   1      35.921  14.619  17.705  0.00  0.00    -0.263 OA
BRANCH  30  32
HETATM   32  O   UNK N   1      34.904  12.685  17.198  0.00  0.00    -0.321 OA
BRANCH  32  33
HETATM   33  C   UNK N   1      35.411  11.479  17.619  0.00  0.00     0.174 C 
HETATM   34  C   UNK N   1      35.423  11.443  19.133  0.00  0.00     0.034 C 
ENDBRANCH  32  33
ENDBRANCH  30  32
ENDBRANCH  29  30
ENDBRANCH  27  29
ENDBRANCH  26  27
BRANCH  26  35
HETATM   35  C   UNK N   1      36.145  11.558  13.170  0.00  0.00     0.017 C 
HETATM   36  C   UNK N   1      34.972  10.904  13.917  0.00  0.00     0.007 C 
HETATM   37  C   UNK N   1      35.198   9.405  14.091  0.00  0.00     0.000 C 
HETATM   38  C   UNK N   1      36.474   9.102  14.892  0.00  0.00     0.000 C 
HETATM   39  C   UNK N   1      37.484  10.255  14.904  0.00  0.00     0.000 C 
HETATM   40  C   UNK N   1      37.514  10.960  13.554  0.00  0.00     0.007 C 
ENDBRANCH  26  35
ENDBRANCH   6  26
TORSDOF 13
ENDMDL
MODEL 3
REMARK VINA RESULT:      -7.2      2.234      4.840
REMARK  13 active torsions:
REMARK  status: ('A' for Active; 'I' for Inactive)
REMARK    1  A    between atoms: O_3  and  C_25 
REMARK    2  A    between atoms: O_3  and  C_30 
REMARK    3  A    between atoms: O_5  and  N_10 
REMARK       I    between atoms: N_6  and  C_22 
REMARK    4  A    between atoms: C_13  and  N_7 
REMARK    5  A    between atoms: N_7  and  C_24 
REMARK       I    between atoms: N_8  and  C_23 
REMARK    6  A    between atoms: N_8  and  C_26 
REMARK    7  A    between atoms: N_9  and  C_35 
REMARK    8  A    between atoms: C_12  and  C_13 
REMARK    9  A    between atoms: C_13  and  C_22 
REMARK   10  A    between atoms: C_18  and  C_23 
REMARK   11  A    between atoms: C_24  and  C_25 
REMARK   12  A    between atoms: C_26  and  C_27 
REMARK   13  A    between atoms: C_33  and  C_35 
ROOT
HETATM    1  O   UNK N   1      24.673  15.593   5.510  0.00  0.00    -0.271 OA
HETATM    2  N   UNK N   1      25.324  15.292   3.401  0.00  0.00    -0.337 N 
HETATM    3  C   UNK N   1      25.613  13.908   3.424  0.00  0.00     0.180 A 
HETATM    4  C   UNK N   1      25.613  15.567   2.046  0.00  0.00     0.129 A 
HETATM    5  C   UNK N   1      25.951  14.051   1.912  0.00  0.00     0.055 A 
HETATM    6  C   UNK N   1      24.878  16.088   4.414  0.00  0.00     0.243 C 
ENDROOT
BRANCH   3   7
HETATM    7  C   UNK N   1      24.375  13.072   3.664  0.00  0.00     0.240 C 
HETATM    8  O   UNK N   1      23.490  13.032   2.823  0.00  0.00    -0.271 OA
HETATM    9  N   UNK N   1      24.244  12.345   4.799  0.00  0.00    -0.355 N 
HETATM   10  H   UNK N   1      23.435  11.801   4.932  0.00  0.00     0.162 HD
BRANCH   9  11
HETATM   11  C   UNK N   1      25.266  12.350   5.819  0.00  0.00     0.161 C 
BRANCH  11  12
HETATM   12  C   UNK N   1      24.638  12.286   7.168  0.00  0.00    -0.040 A 
HETATM   13  C   UNK N   1      24.872  13.314   8.082  0.00  0.00     0.010 A 
HETATM   14  C   UNK N   1      24.293  13.268   9.353  0.00  0.00     0.016 A 
HETATM   15  C   UNK N   1      23.463  12.198   9.724  0.00  0.00     0.009 A 
HETATM   16  C   UNK N   1      23.232  11.170   8.793  0.00  0.00     0.016 A 
HETATM   17  C   UNK N   1      23.818  11.210   7.524  0.00  0.00     0.010 A 
BRANCH  15  18
HETATM   18  C   UNK N   1      22.815  12.120  11.071  0.00  0.00     0.129 C 
HETATM   19  N   UNK N   1      23.480  12.128  12.181  0.00  0.00    -0.253 N 
ATOM     20  HN  UNK N   1      22.961  12.077  13.058  1.00  0.00     0.196 HD
BRANCH  18  21
HETATM   21  N   UNK N   1      21.404  12.035  11.139  0.00  0.00    -0.383 N 
HETATM   22  H   UNK N   1      20.832  12.836  11.142  0.00  0.00     0.157 HD
HETATM   23  H   UNK N   1      20.983  11.147  11.183  0.00  0.00     0.157 HD
ENDBRANCH  18  21
BRANCH  19  24
HETATM   24  O   UNK N   1      24.793  12.199  12.229  0.00  0.00    -0.288 OA
HETATM   25  H   UNK N   1      25.321  12.112  11.461  0.00  0.00     0.244 HD
ENDBRANCH  19  24
ENDBRANCH  15  18
ENDBRANCH  11  12
ENDBRANCH   9  11
ENDBRANCH   3   7
BRANCH   6  26
HETATM   26  C   UNK N   1      24.632  17.585   4.249  0.00  0.00     0.174 C 
BRANCH  26  27
HETATM   27  N   UNK N   1      23.898  18.194   5.354  0.00  0.00    -0.400 N 
HETATM   28  H   UNK N   1      24.305  18.511   6.234  0.00  0.00     0.154 HD
BRANCH  27  29
HETATM   29  C   UNK N   1      22.490  18.277   4.994  0.00  0.00     0.226 C 
BRANCH  29  30
HETATM   30  C   UNK N   1      21.659  17.800   6.134  0.00  0.00     0.276 C 
HETATM   31  O   UNK N   1      21.260  18.599   6.969  0.00  0.00    -0.263 OA
BRANCH  30  32
HETATM   32  O   UNK N   1      21.366  16.481   6.236  0.00  0.00    -0.321 OA
BRANCH  32  33
HETATM   33  C   UNK N   1      21.907  15.675   7.209  0.00  0.00     0.174 C 
HETATM   34  C   UNK N   1      20.843  15.344   8.234  0.00  0.00     0.034 C 
ENDBRANCH  32  33
ENDBRANCH  30  32
ENDBRANCH  29  30
ENDBRANCH  27  29
ENDBRANCH  26  27
BRANCH  26  35
HETATM   35  C   UNK N   1      25.902  18.413   3.987  0.00  0.00     0.017 C 
HETATM   36  C   UNK N   1      26.961  18.052   5.041  0.00  0.00     0.007 C 
HETATM   37  C   UNK N   1      28.118  19.048   5.022  0.00  0.00     0.000 C 
HETATM   38  C   UNK N   1      27.650  20.481   5.319  0.00  0.00     0.000 C 
HETATM   39  C   UNK N   1      26.155  20.708   5.067  0.00  0.00     0.000 C 
HETATM   40  C   UNK N   1      25.691  19.934   3.841  0.00  0.00     0.007 C 
ENDBRANCH  26  35
ENDBRANCH   6  26
TORSDOF 13
ENDMDL
MODEL 4
REMARK VINA RESULT:      -7.0      2.187      4.148
REMARK  13 active torsions:
REMARK  status: ('A' for Active; 'I' for Inactive)
REMARK    1  A    between atoms: O_3  and  C_25 
REMARK    2  A    between atoms: O_3  and  C_30 
REMARK    3  A    between atoms: O_5  and  N_10 
REMARK       I    between atoms: N_6  and  C_22 
REMARK    4  A    between atoms: C_13  and  N_7 
REMARK    5  A    between atoms: N_7  and  C_24 
REMARK       I    between atoms: N_8  and  C_23 
REMARK    6  A    between atoms: N_8  and  C_26 
REMARK    7  A    between atoms: N_9  and  C_35 
REMARK    8  A    between atoms: C_12  and  C_13 
REMARK    9  A    between atoms: C_13  and  C_22 
REMARK   10  A    between atoms: C_18  and  C_23 
REMARK   11  A    between atoms: C_24  and  C_25 
REMARK   12  A    between atoms: C_26  and  C_27 
REMARK   13  A    between atoms: C_33  and  C_35 
ROOT
HETATM    1  O   UNK N   1      26.338  15.551   6.687  0.00  0.00    -0.271 OA
HETATM    2  N   UNK N   1      26.364  15.971   4.500  0.00  0.00    -0.337 N 
HETATM    3  C   UNK N   1      25.355  15.082   4.063  0.00  0.00     0.180 A 
HETATM    4  C   UNK N   1      26.706  16.561   3.263  0.00  0.00     0.129 A 
HETATM    5  C   UNK N   1      25.607  15.649   2.636  0.00  0.00     0.055 A 
HETATM    6  C   UNK N   1      26.828  16.181   5.765  0.00  0.00     0.243 C 
ENDROOT
BRANCH   3   7
HETATM    7  C   UNK N   1      23.993  15.458   4.603  0.00  0.00     0.240 C 
HETATM    8  O   UNK N   1      23.504  16.544   4.332  0.00  0.00    -0.271 OA
HETATM    9  N   UNK N   1      23.294  14.589   5.373  0.00  0.00    -0.355 N 
HETATM   10  H   UNK N   1      22.406  14.850   5.708  0.00  0.00     0.162 HD
BRANCH   9  11
HETATM   11  C   UNK N   1      23.823  13.291   5.714  0.00  0.00     0.161 C 
BRANCH  11  12
HETATM   12  C   UNK N   1      23.552  12.992   7.148  0.00  0.00    -0.040 A 
HETATM   13  C   UNK N   1      23.939  11.759   7.676  0.00  0.00     0.010 A 
HETATM   14  C   UNK N   1      23.691  11.462   9.018  0.00  0.00     0.016 A 
HETATM   15  C   UNK N   1      23.060  12.397   9.854  0.00  0.00     0.009 A 
HETATM   16  C   UNK N   1      22.679  13.637   9.312  0.00  0.00     0.016 A 
HETATM   17  C   UNK N   1      22.919  13.932   7.966  0.00  0.00     0.010 A 
BRANCH  15  18
HETATM   18  C   UNK N   1      22.789  12.121  11.300  0.00  0.00     0.129 C 
HETATM   19  N   UNK N   1      23.704  12.156  12.214  0.00  0.00    -0.253 N 
ATOM     20  HN  UNK N   1      23.436  11.960  13.179  1.00  0.00     0.196 HD
BRANCH  18  21
HETATM   21  N   UNK N   1      21.467  11.808  11.693  0.00  0.00    -0.383 N 
HETATM   22  H   UNK N   1      20.979  11.038  11.320  0.00  0.00     0.157 HD
HETATM   23  H   UNK N   1      21.021  12.378  12.359  0.00  0.00     0.157 HD
ENDBRANCH  18  21
BRANCH  19  24
HETATM   24  O   UNK N   1      24.965  12.432  11.955  0.00  0.00    -0.288 OA
HETATM   25  H   UNK N   1      25.651  12.217  12.556  0.00  0.00     0.244 HD
ENDBRANCH  19  24
ENDBRANCH  15  18
ENDBRANCH  11  12
ENDBRANCH   9  11
ENDBRANCH   3   7
BRANCH   6  26
HETATM   26  C   UNK N   1      27.951  17.162   6.087  0.00  0.00     0.174 C 
BRANCH  26  27
HETATM   27  N   UNK N   1      27.505  18.381   6.757  0.00  0.00    -0.400 N 
HETATM   28  H   UNK N   1      27.100  18.429   7.692  0.00  0.00     0.154 HD
BRANCH  27  29
HETATM   29  C   UNK N   1      27.734  19.514   5.874  0.00  0.00     0.226 C 
BRANCH  29  30
HETATM   30  C   UNK N   1      26.649  20.517   6.065  0.00  0.00     0.276 C 
HETATM   31  O   UNK N   1      26.487  21.033   7.161  0.00  0.00    -0.263 OA
BRANCH  30  32
HETATM   32  O   UNK N   1      25.848  20.836   5.020  0.00  0.00    -0.321 OA
BRANCH  32  33
HETATM   33  C   UNK N   1      26.100  20.412   3.737  0.00  0.00     0.174 C 
HETATM   34  C   UNK N   1      24.846  19.792   3.159  0.00  0.00     0.034 C 
ENDBRANCH  32  33
ENDBRANCH  30  32
ENDBRANCH  29  30
ENDBRANCH  27  29
ENDBRANCH  26  27
BRANCH  26  35
HETATM   35  C   UNK N   1      29.114  16.557   6.891  0.00  0.00     0.017 C 
HETATM   36  C   UNK N   1      29.455  17.494   8.061  0.00  0.00     0.007 C 
HETATM   37  C   UNK N   1      30.783  17.108   8.707  0.00  0.00     0.000 C 
HETATM   38  C   UNK N   1      31.952  17.180   7.711  0.00  0.00     0.000 C 
HETATM   39  C   UNK N   1      31.517  17.111   6.242  0.00  0.00     0.000 C 
HETATM   40  C   UNK N   1      30.353  16.144   6.069  0.00  0.00     0.007 C 
ENDBRANCH  26  35
ENDBRANCH   6  26
TORSDOF 13
ENDMDL
MODEL 5
REMARK VINA RESULT:      -7.0      2.019      2.721
REMARK  13 active torsions:
REMARK  status: ('A' for Active; 'I' for Inactive)
REMARK    1  A    between atoms: O_3  and  C_25 
REMARK    2  A    between atoms: O_3  and  C_30 
REMARK    3  A    between atoms: O_5  and  N_10 
REMARK       I    between atoms: N_6  and  C_22 
REMARK    4  A    between atoms: C_13  and  N_7 
REMARK    5  A    between atoms: N_7  and  C_24 
REMARK       I    between atoms: N_8  and  C_23 
REMARK    6  A    between atoms: N_8  and  C_26 
REMARK    7  A    between atoms: N_9  and  C_35 
REMARK    8  A    between atoms: C_12  and  C_13 
REMARK    9  A    between atoms: C_13  and  C_22 
REMARK   10  A    between atoms: C_18  and  C_23 
REMARK   11  A    between atoms: C_24  and  C_25 
REMARK   12  A    between atoms: C_26  and  C_27 
REMARK   13  A    between atoms: C_33  and  C_35 
ROOT
HETATM    1  O   UNK N   1      23.317  15.192   5.486  0.00  0.00    -0.271 OA
HETATM    2  N   UNK N   1      21.965  15.736   3.801  0.00  0.00    -0.337 N 
HETATM    3  C   UNK N   1      20.830  14.958   4.131  0.00  0.00     0.180 A 
HETATM    4  C   UNK N   1      21.482  16.368   2.634  0.00  0.00     0.129 A 
HETATM    5  C   UNK N   1      20.155  15.586   2.878  0.00  0.00     0.055 A 
HETATM    6  C   UNK N   1      23.154  15.833   4.461  0.00  0.00     0.243 C 
ENDROOT
BRANCH   3   7
HETATM    7  C   UNK N   1      20.187  15.411   5.424  0.00  0.00     0.240 C 
HETATM    8  O   UNK N   1      19.685  16.522   5.502  0.00  0.00    -0.271 OA
HETATM    9  N   UNK N   1      20.141  14.584   6.496  0.00  0.00    -0.355 N 
HETATM   10  H   UNK N   1      19.710  14.895   7.325  0.00  0.00     0.162 HD
BRANCH   9  11
HETATM   11  C   UNK N   1      20.710  13.259   6.451  0.00  0.00     0.161 C 
BRANCH  11  12
HETATM   12  C   UNK N   1      21.411  12.962   7.731  0.00  0.00    -0.040 A 
HETATM   13  C   UNK N   1      21.093  13.699   8.873  0.00  0.00     0.010 A 
HETATM   14  C   UNK N   1      21.743  13.435  10.081  0.00  0.00     0.016 A 
HETATM   15  C   UNK N   1      22.715  12.424  10.167  0.00  0.00     0.009 A 
HETATM   16  C   UNK N   1      23.023  11.687   9.010  0.00  0.00     0.016 A 
HETATM   17  C   UNK N   1      22.380  11.956   7.798  0.00  0.00     0.010 A 
BRANCH  15  18
HETATM   18  C   UNK N   1      23.423  12.104  11.446  0.00  0.00     0.129 C 
HETATM   19  N   UNK N   1      24.667  12.390  11.659  0.00  0.00    -0.253 N 
ATOM     20  HN  UNK N   1      25.074  12.142  12.561  1.00  0.00     0.196 HD
BRANCH  18  21
HETATM   21  N   UNK N   1      22.701  11.457  12.476  0.00  0.00    -0.383 N 
HETATM   22  H   UNK N   1      23.049  11.384  13.393  0.00  0.00     0.157 HD
HETATM   23  H   UNK N   1      21.820  11.070  12.268  0.00  0.00     0.157 HD
ENDBRANCH  18  21
BRANCH  19  24
HETATM   24  O   UNK N   1      25.429  12.986  10.767  0.00  0.00    -0.288 OA
HETATM   25  H   UNK N   1      25.261  13.861  10.479  0.00  0.00     0.244 HD
ENDBRANCH  19  24
ENDBRANCH  15  18
ENDBRANCH  11  12
ENDBRANCH   9  11
ENDBRANCH   3   7
BRANCH   6  26
HETATM   26  C   UNK N   1      24.309  16.700   3.969  0.00  0.00     0.174 C 
BRANCH  26  27
HETATM   27  N   UNK N   1      24.406  17.998   4.631  0.00  0.00    -0.400 N 
HETATM   28  H   UNK N   1      24.833  18.169   5.541  0.00  0.00     0.154 HD
BRANCH  27  29
HETATM   29  C   UNK N   1      23.793  19.006   3.780  0.00  0.00     0.226 C 
BRANCH  29  30
HETATM   30  C   UNK N   1      24.770  20.104   3.531  0.00  0.00     0.276 C 
HETATM   31  O   UNK N   1      24.889  20.565   2.406  0.00  0.00    -0.263 OA
BRANCH  30  32
HETATM   32  O   UNK N   1      25.523  20.567   4.558  0.00  0.00    -0.321 OA
BRANCH  32  33
HETATM   33  C   UNK N   1      26.897  20.595   4.515  0.00  0.00     0.174 C 
HETATM   34  C   UNK N   1      27.428  21.082   5.847  0.00  0.00     0.034 C 
ENDBRANCH  32  33
ENDBRANCH  30  32
ENDBRANCH  29  30
ENDBRANCH  27  29
ENDBRANCH  26  27
BRANCH  26  35
HETATM   35  C   UNK N   1      25.687  16.017   4.025  0.00  0.00     0.017 C 
HETATM   36  C   UNK N   1      26.766  17.031   3.613  0.00  0.00     0.007 C 
HETATM   37  C   UNK N   1      28.101  16.339   3.355  0.00  0.00     0.000 C 
HETATM   38  C   UNK N   1      28.004  15.296   2.231  0.00  0.00     0.000 C 
HETATM   39  C   UNK N   1      26.576  14.804   1.967  0.00  0.00     0.000 C 
HETATM   40  C   UNK N   1      25.800  14.676   3.271  0.00  0.00     0.007 C 
ENDBRANCH  26  35
ENDBRANCH   6  26
TORSDOF 13
ENDMDL
MODEL 6
REMARK VINA RESULT:      -7.0      2.428      4.031
REMARK  13 active torsions:
REMARK  status: ('A' for Active; 'I' for Inactive)
REMARK    1  A    between atoms: O_3  and  C_25 
REMARK    2  A    between atoms: O_3  and  C_30 
REMARK    3  A    between atoms: O_5  and  N_10 
REMARK       I    between atoms: N_6  and  C_22 
REMARK    4  A    between atoms: C_13  and  N_7 
REMARK    5  A    between atoms: N_7  and  C_24 
REMARK       I    between atoms: N_8  and  C_23 
REMARK    6  A    between atoms: N_8  and  C_26 
REMARK    7  A    between atoms: N_9  and  C_35 
REMARK    8  A    between atoms: C_12  and  C_13 
REMARK    9  A    between atoms: C_13  and  C_22 
REMARK   10  A    between atoms: C_18  and  C_23 
REMARK   11  A    between atoms: C_24  and  C_25 
REMARK   12  A    between atoms: C_26  and  C_27 
REMARK   13  A    between atoms: C_33  and  C_35 
ROOT
HETATM    1  O   UNK N   1      23.396  14.806   5.838  0.00  0.00    -0.271 OA
HETATM    2  N   UNK N   1      22.258  15.177   3.959  0.00  0.00    -0.337 N 
HETATM    3  C   UNK N   1      21.226  14.221   4.100  0.00  0.00     0.180 A 
HETATM    4  C   UNK N   1      21.871  15.759   2.732  0.00  0.00     0.129 A 
HETATM    5  C   UNK N   1      20.665  14.770   2.757  0.00  0.00     0.055 A 
HETATM    6  C   UNK N   1      23.297  15.443   4.802  0.00  0.00     0.243 C 
ENDROOT
BRANCH   3   7
HETATM    7  C   UNK N   1      20.321  14.528   5.273  0.00  0.00     0.240 C 
HETATM    8  O   UNK N   1      19.610  15.520   5.255  0.00  0.00    -0.271 OA
HETATM    9  N   UNK N   1      20.276  13.697   6.343  0.00  0.00    -0.355 N 
HETATM   10  H   UNK N   1      19.674  13.910   7.092  0.00  0.00     0.162 HD
BRANCH   9  11
HETATM   11  C   UNK N   1      21.089  12.507   6.408  0.00  0.00     0.161 C 
BRANCH  11  12
HETATM   12  C   UNK N   1      21.700  12.382   7.761  0.00  0.00    -0.040 A 
HETATM   13  C   UNK N   1      21.244  13.199   8.797  0.00  0.00     0.010 A 
HETATM   14  C   UNK N   1      21.809  13.096  10.071  0.00  0.00     0.016 A 
HETATM   15  C   UNK N   1      22.830  12.167  10.329  0.00  0.00     0.009 A 
HETATM   16  C   UNK N   1      23.277  11.347   9.279  0.00  0.00     0.016 A 
HETATM   17  C   UNK N   1      22.720  11.456   8.000  0.00  0.00     0.010 A 
BRANCH  15  18
HETATM   18  C   UNK N   1      23.450  12.018  11.684  0.00  0.00     0.129 C 
HETATM   19  N   UNK N   1      24.662  12.380  11.953  0.00  0.00    -0.253 N 
ATOM     20  HN  UNK N   1      25.009  12.249  12.904  1.00  0.00     0.196 HD
BRANCH  18  21
HETATM   21  N   UNK N   1      22.674  11.457  12.725  0.00  0.00    -0.383 N 
HETATM   22  H   UNK N   1      21.706  11.301  12.630  0.00  0.00     0.157 HD
HETATM   23  H   UNK N   1      23.115  11.215  13.570  0.00  0.00     0.157 HD
ENDBRANCH  18  21
BRANCH  19  24
HETATM   24  O   UNK N   1      25.469  12.907  11.057  0.00  0.00    -0.288 OA
HETATM   25  H   UNK N   1      25.178  13.117  10.192  0.00  0.00     0.244 HD
ENDBRANCH  19  24
ENDBRANCH  15  18
ENDBRANCH  11  12
ENDBRANCH   9  11
ENDBRANCH   3   7
BRANCH   6  26
HETATM   26  C   UNK N   1      24.360  16.496   4.506  0.00  0.00     0.174 C 
BRANCH  26  27
HETATM   27  N   UNK N   1      24.266  17.690   5.340  0.00  0.00    -0.400 N 
HETATM   28  H   UNK N   1      24.736  17.827   6.235  0.00  0.00     0.154 HD
BRANCH  27  29
HETATM   29  C   UNK N   1      23.394  18.653   4.686  0.00  0.00     0.226 C 
BRANCH  29  30
HETATM   30  C   UNK N   1      22.033  18.577   5.288  0.00  0.00     0.276 C 
HETATM   31  O   UNK N   1      21.912  18.365   6.486  0.00  0.00    -0.263 OA
BRANCH  30  32
HETATM   32  O   UNK N   1      20.946  18.733   4.495  0.00  0.00    -0.321 OA
BRANCH  32  33
HETATM   33  C   UNK N   1      20.886  19.676   3.496  0.00  0.00     0.174 C 
HETATM   34  C   UNK N   1      20.222  19.072   2.277  0.00  0.00     0.034 C 
ENDBRANCH  32  33
ENDBRANCH  30  32
ENDBRANCH  29  30
ENDBRANCH  27  29
ENDBRANCH  26  27
BRANCH  26  35
HETATM   35  C   UNK N   1      25.806  15.972   4.558  0.00  0.00     0.017 C 
HETATM   36  C   UNK N   1      26.406  16.297   5.936  0.00  0.00     0.007 C 
HETATM   37  C   UNK N   1      27.917  16.081   5.943  0.00  0.00     0.000 C 
HETATM   38  C   UNK N   1      28.633  16.969   4.913  0.00  0.00     0.000 C 
HETATM   39  C   UNK N   1      27.718  17.474   3.791  0.00  0.00     0.000 C 
HETATM   40  C   UNK N   1      26.716  16.400   3.389  0.00  0.00     0.007 C 
ENDBRANCH  26  35
ENDBRANCH   6  26
TORSDOF 13
ENDMDL
MODEL 7
REMARK VINA RESULT:      -6.8      4.015      7.081
REMARK  13 active torsions:
REMARK  status: ('A' for Active; 'I' for Inactive)
REMARK    1  A    between atoms: O_3  and  C_25 
REMARK    2  A    between atoms: O_3  and  C_30 
REMARK    3  A    between atoms: O_5  and  N_10 
REMARK       I    between atoms: N_6  and  C_22 
REMARK    4  A    between atoms: C_13  and  N_7 
REMARK    5  A    between atoms: N_7  and  C_24 
REMARK       I    between atoms: N_8  and  C_23 
REMARK    6  A    between atoms: N_8  and  C_26 
REMARK    7  A    between atoms: N_9  and  C_35 
REMARK    8  A    between atoms: C_12  and  C_13 
REMARK    9  A    between atoms: C_13  and  C_22 
REMARK   10  A    between atoms: C_18  and  C_23 
REMARK   11  A    between atoms: C_24  and  C_25 
REMARK   12  A    between atoms: C_26  and  C_27 
REMARK   13  A    between atoms: C_33  and  C_35 
ROOT
HETATM    1  O   UNK N   1      26.087  17.406   3.563  0.00  0.00    -0.271 OA
HETATM    2  N   UNK N   1      26.431  15.686   4.936  0.00  0.00    -0.337 N 
HETATM    3  C   UNK N   1      25.142  15.104   4.935  0.00  0.00     0.180 A 
HETATM    4  C   UNK N   1      27.096  14.776   5.786  0.00  0.00     0.129 A 
HETATM    5  C   UNK N   1      25.739  14.012   5.868  0.00  0.00     0.055 A 
HETATM    6  C   UNK N   1      26.868  16.795   4.274  0.00  0.00     0.243 C 
ENDROOT
BRANCH   3   7
HETATM    7  C   UNK N   1      24.764  14.560   3.574  0.00  0.00     0.240 C 
HETATM    8  O   UNK N   1      25.628  14.131   2.825  0.00  0.00    -0.271 OA
HETATM    9  N   UNK N   1      23.468  14.523   3.184  0.00  0.00    -0.355 N 
HETATM   10  H   UNK N   1      23.242  14.156   2.298  0.00  0.00     0.162 HD
BRANCH   9  11
HETATM   11  C   UNK N   1      22.409  15.007   4.036  0.00  0.00     0.161 C 
BRANCH  11  12
HETATM   12  C   UNK N   1      21.956  16.348   3.572  0.00  0.00    -0.040 A 
HETATM   13  C   UNK N   1      20.842  16.443   2.737  0.00  0.00     0.010 A 
HETATM   14  C   UNK N   1      20.405  17.693   2.290  0.00  0.00     0.016 A 
HETATM   15  C   UNK N   1      21.071  18.867   2.681  0.00  0.00     0.009 A 
HETATM   16  C   UNK N   1      22.188  18.758   3.526  0.00  0.00     0.016 A 
HETATM   17  C   UNK N   1      22.633  17.507   3.966  0.00  0.00     0.010 A 
BRANCH  15  18
HETATM   18  C   UNK N   1      20.625  20.224   2.234  0.00  0.00     0.129 C 
HETATM   19  N   UNK N   1      20.425  20.533   0.994  0.00  0.00    -0.253 N 
ATOM     20  HN  UNK N   1      20.116  21.480   0.773  1.00  0.00     0.196 HD
BRANCH  18  21
HETATM   21  N   UNK N   1      20.408  21.221   3.214  0.00  0.00    -0.383 N 
HETATM   22  H   UNK N   1      21.143  21.597   3.749  0.00  0.00     0.157 HD
HETATM   23  H   UNK N   1      19.493  21.549   3.363  0.00  0.00     0.157 HD
ENDBRANCH  18  21
BRANCH  19  24
HETATM   24  O   UNK N   1      20.602  19.682   0.005  0.00  0.00    -0.288 OA
HETATM   25  H   UNK N   1      21.375  19.693  -0.523  0.00  0.00     0.244 HD
ENDBRANCH  19  24
ENDBRANCH  15  18
ENDBRANCH  11  12
ENDBRANCH   9  11
ENDBRANCH   3   7
BRANCH   6  26
HETATM   26  C   UNK N   1      28.293  17.326   4.391  0.00  0.00     0.174 C 
BRANCH  26  27
HETATM   27  N   UNK N   1      29.029  17.344   3.130  0.00  0.00    -0.400 N 
HETATM   28  H   UNK N   1      28.970  18.074   2.420  0.00  0.00     0.154 HD
BRANCH  27  29
HETATM   29  C   UNK N   1      29.860  16.153   3.054  0.00  0.00     0.226 C 
BRANCH  29  30
HETATM   30  C   UNK N   1      31.286  16.529   3.271  0.00  0.00     0.276 C 
HETATM   31  O   UNK N   1      31.916  17.061   2.369  0.00  0.00    -0.263 OA
BRANCH  30  32
HETATM   32  O   UNK N   1      31.867  16.265   4.466  0.00  0.00    -0.321 OA
BRANCH  32  33
HETATM   33  C   UNK N   1      31.884  17.173   5.499  0.00  0.00     0.174 C 
HETATM   34  C   UNK N   1      31.064  16.633   6.652  0.00  0.00     0.034 C 
ENDBRANCH  32  33
ENDBRANCH  30  32
ENDBRANCH  29  30
ENDBRANCH  27  29
ENDBRANCH  26  27
BRANCH  26  35
HETATM   35  C   UNK N   1      28.403  18.715   5.044  0.00  0.00     0.017 C 
HETATM   36  C   UNK N   1      27.751  18.666   6.436  0.00  0.00     0.007 C 
HETATM   37  C   UNK N   1      27.557  20.071   7.002  0.00  0.00     0.000 C 
HETATM   38  C   UNK N   1      26.656  20.935   6.106  0.00  0.00     0.000 C 
HETATM   39  C   UNK N   1      26.565  20.439   4.658  0.00  0.00     0.000 C 
HETATM   40  C   UNK N   1      27.909  19.899   4.188  0.00  0.00     0.007 C 
ENDBRANCH  26  35
ENDBRANCH   6  26
TORSDOF 13
ENDMDL
MODEL 8
REMARK VINA RESULT:      -6.8      3.009      4.913
REMARK  13 active torsions:
REMARK  status: ('A' for Active; 'I' for Inactive)
REMARK    1  A    between atoms: O_3  and  C_25 
REMARK    2  A    between atoms: O_3  and  C_30 
REMARK    3  A    between atoms: O_5  and  N_10 
REMARK       I    between atoms: N_6  and  C_22 
REMARK    4  A    between atoms: C_13  and  N_7 
REMARK    5  A    between atoms: N_7  and  C_24 
REMARK       I    between atoms: N_8  and  C_23 
REMARK    6  A    between atoms: N_8  and  C_26 
REMARK    7  A    between atoms: N_9  and  C_35 
REMARK    8  A    between atoms: C_12  and  C_13 
REMARK    9  A    between atoms: C_13  and  C_22 
REMARK   10  A    between atoms: C_18  and  C_23 
REMARK   11  A    between atoms: C_24  and  C_25 
REMARK   12  A    between atoms: C_26  and  C_27 
REMARK   13  A    between atoms: C_33  and  C_35 
ROOT
HETATM    1  O   UNK N   1      26.928  15.155   6.625  0.00  0.00    -0.271 OA
HETATM    2  N   UNK N   1      26.984  16.342   4.741  0.00  0.00    -0.337 N 
HETATM    3  C   UNK N   1      25.644  16.194   4.313  0.00  0.00     0.180 A 
HETATM    4  C   UNK N   1      27.469  17.170   3.705  0.00  0.00     0.129 A 
HETATM    5  C   UNK N   1      26.025  17.114   3.118  0.00  0.00     0.055 A 
HETATM    6  C   UNK N   1      27.586  15.832   5.853  0.00  0.00     0.243 C 
ENDROOT
BRANCH   3   7
HETATM    7  C   UNK N   1      24.667  16.852   5.262  0.00  0.00     0.240 C 
HETATM    8  O   UNK N   1      24.659  18.067   5.387  0.00  0.00    -0.271 OA
HETATM    9  N   UNK N   1      23.780  16.107   5.963  0.00  0.00    -0.355 N 
HETATM   10  H   UNK N   1      23.147  16.555   6.569  0.00  0.00     0.162 HD
BRANCH   9  11
HETATM   11  C   UNK N   1      23.741  14.669   5.842  0.00  0.00     0.161 C 
BRANCH  11  12
HETATM   12  C   UNK N   1      23.526  14.052   7.180  0.00  0.00    -0.040 A 
HETATM   13  C   UNK N   1      24.448  13.120   7.661  0.00  0.00     0.010 A 
HETATM   14  C   UNK N   1      24.259  12.530   8.913  0.00  0.00     0.016 A 
HETATM   15  C   UNK N   1      23.152  12.869   9.707  0.00  0.00     0.009 A 
HETATM   16  C   UNK N   1      22.233  13.812   9.213  0.00  0.00     0.016 A 
HETATM   17  C   UNK N   1      22.415  14.397   7.956  0.00  0.00     0.010 A 
BRANCH  15  18
HETATM   18  C   UNK N   1      22.923  12.268  11.058  0.00  0.00     0.129 C 
HETATM   19  N   UNK N   1      23.844  12.183  11.963  0.00  0.00    -0.253 N 
ATOM     20  HN  UNK N   1      23.605  11.764  12.862  1.00  0.00     0.196 HD
BRANCH  18  21
HETATM   21  N   UNK N   1      21.636  11.770  11.368  0.00  0.00    -0.383 N 
HETATM   22  H   UNK N   1      21.468  11.208  12.159  0.00  0.00     0.157 HD
HETATM   23  H   UNK N   1      20.884  11.993  10.773  0.00  0.00     0.157 HD
ENDBRANCH  18  21
BRANCH  19  24
HETATM   24  O   UNK N   1      25.074  12.612  11.775  0.00  0.00    -0.288 OA
HETATM   25  H   UNK N   1      25.769  12.393  12.365  0.00  0.00     0.244 HD
ENDBRANCH  19  24
ENDBRANCH  15  18
ENDBRANCH  11  12
ENDBRANCH   9  11
ENDBRANCH   3   7
BRANCH   6  26
HETATM   26  C   UNK N   1      29.060  16.055   6.177  0.00  0.00     0.174 C 
BRANCH  26  27
HETATM   27  N   UNK N   1      29.949  15.937   5.025  0.00  0.00    -0.400 N 
HETATM   28  H   UNK N   1      30.159  16.682   4.359  0.00  0.00     0.154 HD
BRANCH  27  29
HETATM   29  C   UNK N   1      30.487  14.586   4.981  0.00  0.00     0.226 C 
BRANCH  29  30
HETATM   30  C   UNK N   1      31.966  14.648   4.811  0.00  0.00     0.276 C 
HETATM   31  O   UNK N   1      32.486  14.121   3.837  0.00  0.00    -0.263 OA
BRANCH  30  32
HETATM   32  O   UNK N   1      32.717  15.278   5.746  0.00  0.00    -0.321 OA
BRANCH  32  33
HETATM   33  C   UNK N   1      33.758  16.114   5.420  0.00  0.00     0.174 C 
HETATM   34  C   UNK N   1      33.220  17.507   5.168  0.00  0.00     0.034 C 
ENDBRANCH  32  33
ENDBRANCH  30  32
ENDBRANCH  29  30
ENDBRANCH  27  29
ENDBRANCH  26  27
BRANCH  26  35
HETATM   35  C   UNK N   1      29.360  17.381   6.896  0.00  0.00     0.017 C 
HETATM   36  C   UNK N   1      30.566  17.183   7.829  0.00  0.00     0.007 C 
HETATM   37  C   UNK N   1      30.719  18.361   8.787  0.00  0.00     0.000 C 
HETATM   38  C   UNK N   1      29.480  18.548   9.677  0.00  0.00     0.000 C 
HETATM   39  C   UNK N   1      28.210  17.902   9.111  0.00  0.00     0.000 C 
HETATM   40  C   UNK N   1      28.159  18.050   7.596  0.00  0.00     0.007 C 
ENDBRANCH  26  35
ENDBRANCH   6  26
TORSDOF 13
ENDMDL
MODEL 9
REMARK VINA RESULT:      -6.8      6.046      9.770
REMARK  13 active torsions:
REMARK  status: ('A' for Active; 'I' for Inactive)
REMARK    1  A    between atoms: O_3  and  C_25 
REMARK    2  A    between atoms: O_3  and  C_30 
REMARK    3  A    between atoms: O_5  and  N_10 
REMARK       I    between atoms: N_6  and  C_22 
REMARK    4  A    between atoms: C_13  and  N_7 
REMARK    5  A    between atoms: N_7  and  C_24 
REMARK       I    between atoms: N_8  and  C_23 
REMARK    6  A    between atoms: N_8  and  C_26 
REMARK    7  A    between atoms: N_9  and  C_35 
REMARK    8  A    between atoms: C_12  and  C_13 
REMARK    9  A    between atoms: C_13  and  C_22 
REMARK   10  A    between atoms: C_18  and  C_23 
REMARK   11  A    between atoms: C_24  and  C_25 
REMARK   12  A    between atoms: C_26  and  C_27 
REMARK   13  A    between atoms: C_33  and  C_35 
ROOT
HETATM    1  O   UNK N   1      30.346  16.823   7.509  0.00  0.00    -0.271 OA
HETATM    2  N   UNK N   1      31.295  17.309   5.553  0.00  0.00    -0.337 N 
HETATM    3  C   UNK N   1      32.654  17.079   5.871  0.00  0.00     0.180 A 
HETATM    4  C   UNK N   1      31.432  17.669   4.194  0.00  0.00     0.129 A 
HETATM    5  C   UNK N   1      32.962  17.436   4.388  0.00  0.00     0.055 A 
HETATM    6  C   UNK N   1      30.198  17.186   6.353  0.00  0.00     0.243 C 
ENDROOT
BRANCH   3   7
HETATM    7  C   UNK N   1      32.926  15.624   6.184  0.00  0.00     0.240 C 
HETATM    8  O   UNK N   1      32.772  14.772   5.322  0.00  0.00    -0.271 OA
HETATM    9  N   UNK N   1      33.362  15.254   7.412  0.00  0.00    -0.355 N 
HETATM   10  H   UNK N   1      33.542  14.303   7.593  0.00  0.00     0.162 HD
BRANCH   9  11
HETATM   11  C   UNK N   1      33.570  16.223   8.461  0.00  0.00     0.161 C 
BRANCH  11  12
HETATM   12  C   UNK N   1      34.267  15.584   9.613  0.00  0.00    -0.040 A 
HETATM   13  C   UNK N   1      35.100  16.356  10.423  0.00  0.00     0.010 A 
HETATM   14  C   UNK N   1      35.763  15.772  11.505  0.00  0.00     0.016 A 
HETATM   15  C   UNK N   1      35.594  14.409  11.798  0.00  0.00     0.009 A 
HETATM   16  C   UNK N   1      34.749  13.643  10.977  0.00  0.00     0.016 A 
HETATM   17  C   UNK N   1      34.092  14.224   9.888  0.00  0.00     0.010 A 
BRANCH  15  18
HETATM   18  C   UNK N   1      36.277  13.750  12.956  0.00  0.00     0.129 C 
HETATM   19  N   UNK N   1      37.428  13.167  12.864  0.00  0.00    -0.253 N 
ATOM     20  HN  UNK N   1      37.828  12.746  13.703  1.00  0.00     0.196 HD
BRANCH  18  21
HETATM   21  N   UNK N   1      35.636  13.767  14.218  0.00  0.00    -0.383 N 
HETATM   22  H   UNK N   1      35.430  14.606  14.689  0.00  0.00     0.157 HD
HETATM   23  H   UNK N   1      35.388  12.912  14.636  0.00  0.00     0.157 HD
ENDBRANCH  18  21
BRANCH  19  24
HETATM   24  O   UNK N   1      38.105  13.091  11.738  0.00  0.00    -0.288 OA
HETATM   25  H   UNK N   1      37.709  12.795  10.942  0.00  0.00     0.244 HD
ENDBRANCH  19  24
ENDBRANCH  15  18
ENDBRANCH  11  12
ENDBRANCH   9  11
ENDBRANCH   3   7
BRANCH   6  26
HETATM   26  C   UNK N   1      28.782  17.496   5.878  0.00  0.00     0.174 C 
BRANCH  26  27
HETATM   27  N   UNK N   1      27.732  16.951   6.733  0.00  0.00    -0.400 N 
HETATM   28  H   UNK N   1      27.402  17.367   7.604  0.00  0.00     0.154 HD
BRANCH  27  29
HETATM   29  C   UNK N   1      27.233  15.720   6.139  0.00  0.00     0.226 C 
BRANCH  29  30
HETATM   30  C   UNK N   1      26.284  16.051   5.038  0.00  0.00     0.276 C 
HETATM   31  O   UNK N   1      25.157  16.439   5.307  0.00  0.00    -0.263 OA
BRANCH  30  32
HETATM   32  O   UNK N   1      26.684  15.906   3.752  0.00  0.00    -0.321 OA
BRANCH  32  33
HETATM   33  C   UNK N   1      25.909  16.300   2.687  0.00  0.00     0.174 C 
HETATM   34  C   UNK N   1      25.684  15.118   1.767  0.00  0.00     0.034 C 
ENDBRANCH  32  33
ENDBRANCH  30  32
ENDBRANCH  29  30
ENDBRANCH  27  29
ENDBRANCH  26  27
BRANCH  26  35
HETATM   35  C   UNK N   1      28.502  18.991   5.647  0.00  0.00     0.017 C 
HETATM   36  C   UNK N   1      27.743  19.551   6.861  0.00  0.00     0.007 C 
HETATM   37  C   UNK N   1      27.173  20.935   6.563  0.00  0.00     0.000 C 
HETATM   38  C   UNK N   1      26.190  20.914   5.382  0.00  0.00     0.000 C 
HETATM   39  C   UNK N   1      26.362  19.703   4.458  0.00  0.00     0.000 C 
HETATM   40  C   UNK N   1      27.834  19.348   4.302  0.00  0.00     0.007 C 
ENDBRANCH  26  35
ENDBRANCH   6  26
TORSDOF 13
ENDMDL
