REMARK  18 active torsions:
REMARK  status: ('A' for Active; 'I' for Inactive)
REMARK    1  A    between atoms: S_1  and  N_8 
REMARK    2  A    between atoms: O_3  and  C_17 
REMARK    3  A    between atoms: O_3  and  C_31 
REMARK    4  A    between atoms: N_7  and  C_9 
REMARK    5  A    between atoms: N_7  and  C_10 
REMARK    6  A    between atoms: N_7  and  C_11 
REMARK    7  A    between atoms: N_8  and  C_30 
REMARK    8  A    between atoms: C_9  and  C_12 
REMARK    9  A    between atoms: C_10  and  C_13 
REMARK   10  A    between atoms: C_11  and  C_14 
REMARK   11  A    between atoms: C_12  and  C_15 
REMARK   12  A    between atoms: C_13  and  C_16 
REMARK   13  A    between atoms: C_14  and  C_17 
REMARK   14  A    between atoms: C_18  and  C_20 
REMARK   15  A    between atoms: C_19  and  C_26 
REMARK   16  A    between atoms: C_20  and  C_22 
REMARK   17  A    between atoms: C_22  and  C_27 
REMARK   18  A    between atoms: C_26  and  C_29 
ROOT
HETATM    1  O   UNK N   1       4.947   0.072  -0.462  0.00  0.00    -0.287 OA
HETATM    2  C   UNK N   1       5.765  -0.720  -0.007  0.00  0.00     0.195 C 
ENDROOT
BRANCH   2   3
HETATM    3  C   UNK N   1       5.453  -2.181  -0.053  0.00  0.00     0.058 A 
HETATM    4  C   UNK N   1       6.242  -3.361   0.038  0.00  0.00     0.069 A 
HETATM    5  O   UNK N   1       5.451  -4.416  -0.031  0.00  0.00    -0.313 OA
HETATM    6  C   UNK N   1       4.213  -4.001  -0.183  0.00  0.00     0.087 A 
HETATM    7  C   UNK N   1       4.182  -2.640  -0.226  0.00  0.00     0.017 A 
HETATM    8  C   UNK N   1       3.056  -4.761  -0.293  0.00  0.00     0.040 A 
HETATM    9  C   UNK N   1       3.003  -1.934  -0.412  0.00  0.00     0.045 A 
HETATM   10  C   UNK N   1       1.820  -2.655  -0.547  0.00  0.00     0.043 A 
HETATM   11  C   UNK N   1       1.836  -4.070  -0.480  0.00  0.00     0.033 A 
BRANCH   4  12
HETATM   12  C   UNK N   1       7.735  -3.492   0.141  0.00  0.00     0.066 C 
BRANCH  12  13
HETATM   13  C   UNK N   1       8.293  -4.673  -0.643  0.00  0.00     0.006 C 
BRANCH  13  14
HETATM   14  C   UNK N   1       9.817  -4.619  -0.693  0.00  0.00    -0.004 C 
HETATM   15  C   UNK N   1      10.432  -4.834   0.680  0.00  0.00     0.005 C 
ENDBRANCH  13  14
ENDBRANCH  12  13
ENDBRANCH   4  12
BRANCH  10  16
HETATM   16  N   UNK N   1       0.634  -1.954  -0.841  0.00  0.00    -0.285 N 
HETATM   17  H   UNK N   1       0.462  -1.674  -1.768  0.00  0.00     0.178 HD
BRANCH  16  18
HETATM   18  S   UNK N   1      -0.540  -1.570   0.395  0.00  0.00     0.227 S 
HETATM   19  O   UNK N   1       0.272  -1.367   1.685  0.00  0.00    -0.206 OA
HETATM   20  O   UNK N   1      -0.966  -0.133   0.056  0.00  0.00    -0.206 OA
HETATM   21  C   UNK N   1      -1.943  -2.703   0.556  0.00  0.00     0.186 C 
ENDBRANCH  16  18
ENDBRANCH  10  16
ENDBRANCH   2   3
BRANCH   2  22
HETATM   22  C   UNK N   1       7.028  -0.189   0.494  0.00  0.00     0.015 C 
HETATM   23  C   UNK N   1       7.420   1.095   0.116  0.00  0.00     0.018 C 
HETATM   24  C   UNK N   1       8.741   1.468   0.274  0.00  0.00     0.037 C 
HETATM   25  C   UNK N   1       9.654   0.556   0.819  0.00  0.00     0.068 C 
HETATM   26  C   UNK N   1       9.219  -0.632   1.382  0.00  0.00     0.037 C 
HETATM   27  C   UNK N   1       7.898  -0.996   1.223  0.00  0.00     0.018 C 
BRANCH  25  28
HETATM   28  O   UNK N   1      10.952   0.684   0.550  0.00  0.00    -0.351 OA
BRANCH  28  29
HETATM   29  C   UNK N   1      11.352   0.540  -0.773  0.00  0.00     0.177 C 
BRANCH  29  30
HETATM   30  C   UNK N   1      10.918   1.733  -1.639  0.00  0.00     0.057 C 
BRANCH  30  31
HETATM   31  C   UNK N   1      11.513   3.075  -1.189  0.00  0.00     0.274 C 
BRANCH  31  32
HETATM   32  N   UNK N   1      12.192   2.968   0.101  0.00  0.00     0.088 N 
BRANCH  32  33
HETATM   33  C   UNK N   1      12.235   4.266   0.778  0.00  0.00     0.272 C 
BRANCH  33  34
HETATM   34  C   UNK N   1      13.136   5.284   0.086  0.00  0.00     0.030 C 
BRANCH  34  35
HETATM   35  C   UNK N   1      14.569   5.116   0.558  0.00  0.00    -0.003 C 
HETATM   36  C   UNK N   1      15.459   4.796  -0.626  0.00  0.00     0.005 C 
ENDBRANCH  34  35
ENDBRANCH  33  34
ENDBRANCH  32  33
BRANCH  32  37
HETATM   37  C   UNK N   1      13.522   2.396  -0.103  0.00  0.00     0.272 C 
BRANCH  37  38
HETATM   38  C   UNK N   1      13.848   1.393   0.995  0.00  0.00     0.030 C 
BRANCH  38  39
HETATM   39  C   UNK N   1      14.214   0.042   0.396  0.00  0.00    -0.003 C 
HETATM   40  C   UNK N   1      15.536   0.119  -0.344  0.00  0.00     0.005 C 
ENDBRANCH  38  39
ENDBRANCH  37  38
ENDBRANCH  32  37
ENDBRANCH  31  32
ENDBRANCH  30  31
ENDBRANCH  29  30
ENDBRANCH  28  29
ENDBRANCH  25  28
ENDBRANCH   2  22
TORSDOF 18
