REMARK  7 active torsions:
REMARK  status: ('A' for Active; 'I' for Inactive)
REMARK    1  A    between atoms: O_2  and  C_20 
REMARK    2  A    between atoms: O_2  and  C_21 
REMARK    3  A    between atoms: N_4  and  C_7 
REMARK    4  A    between atoms: N_4  and  C_8 
REMARK    5  A    between atoms: N_5  and  C_10 
REMARK       I    between atoms: N_5  and  C_20 
REMARK    6  A    between atoms: N_6  and  C_12 
REMARK    7  A    between atoms: C_7  and  C_9 
ROOT
HETATM    1  C   UNK N   1       2.834  -0.446  -0.153  0.00  0.00     0.030 A 
HETATM    2  C   UNK N   1       3.316   2.311   0.167  0.00  0.00     0.063 A 
HETATM    3  C   UNK N   1       1.766   0.434   0.055  0.00  0.00     0.060 A 
HETATM    4  C   UNK N   1       2.000   1.809   0.209  0.00  0.00     0.055 A 
HETATM    5  C   UNK N   1       4.141   0.053  -0.183  0.00  0.00     0.031 A 
HETATM    6  C   UNK N   1       4.379   1.414  -0.014  0.00  0.00     0.034 A 
ENDROOT
BRANCH   1   7
HETATM    7  N   UNK N   1       2.581  -1.809  -0.445  0.00  0.00    -0.386 N 
HETATM    8  H   UNK N   1       1.759  -2.239  -0.114  0.00  0.00     0.160 HD
BRANCH   7   9
HETATM    9  C   UNK N   1       3.528  -2.569  -1.228  0.00  0.00     0.158 C 
BRANCH   9  10
HETATM   10  C   UNK N   1       3.965  -3.830  -0.570  0.00  0.00    -0.040 A 
HETATM   11  C   UNK N   1       5.320  -4.013  -0.276  0.00  0.00     0.012 A 
HETATM   12  C   UNK N   1       5.768  -5.233   0.240  0.00  0.00     0.043 A 
HETATM   13  C   UNK N   1       4.861  -6.276   0.452  0.00  0.00     0.116 A 
HETATM   14  F   UNK N   1       5.299  -7.464   0.931  0.00  0.00    -0.206 F 
HETATM   15  C   UNK N   1       3.505  -6.095   0.159  0.00  0.00     0.043 A 
HETATM   16  C   UNK N   1       3.057  -4.874  -0.357  0.00  0.00     0.012 A 
ENDBRANCH   9  10
ENDBRANCH   7   9
ENDBRANCH   1   7
BRANCH   4  17
HETATM   17  N   UNK N   1       0.906   2.686   0.362  0.00  0.00    -0.397 N 
HETATM   18  H   UNK N   1       1.054   3.653   0.469  0.00  0.00     0.156 HD
HETATM   19  H   UNK N   1      -0.011   2.328   0.362  0.00  0.00     0.156 HD
ENDBRANCH   4  17
BRANCH   2  20
HETATM   20  N   UNK N   1       3.539   3.721   0.252  0.00  0.00    -0.301 N 
HETATM   21  C   UNK N   1       4.756   4.335   0.219  0.00  0.00     0.365 C 
HETATM   22  O   UNK N   1       5.789   3.683   0.182  0.00  0.00    -0.238 OA
HETATM   23  H   UNK N   1       2.746   4.297   0.342  0.00  0.00     0.171 HD
BRANCH  21  24
HETATM   24  O   UNK N   1       4.808   5.690   0.196  0.00  0.00    -0.304 OA
BRANCH  24  25
HETATM   25  C   UNK N   1       6.001   6.370   0.096  0.00  0.00     0.176 C 
HETATM   26  C   UNK N   1       5.733   7.850  -0.071  0.00  0.00     0.034 C 
ENDBRANCH  24  25
ENDBRANCH  21  24
ENDBRANCH   2  20
TORSDOF 7
