MODEL 1
REMARK VINA RESULT:      -7.5      0.000      0.000
REMARK  4 active torsions:
REMARK  status: ('A' for Active; 'I' for Inactive)
REMARK    1  A    between atoms: C_11  and  C_17 
REMARK    2  A    between atoms: C_12  and  C_16 
REMARK    3  A    between atoms: C_13  and  O_27 
REMARK    4  A    between atoms: C_18  and  O_26 
ROOT
HETATM    1  O   UNK N   1      30.197  12.349   3.963  0.00  0.00    -0.369 OA
HETATM    2  C   UNK N   1      30.976  12.756   2.875  0.00  0.00     0.084 A 
HETATM    3  C   UNK N   1      30.707  13.665   4.030  0.00  0.00     0.159 A 
HETATM    4  C   UNK N   1      26.581  17.493   3.972  0.00  0.00     0.143 C 
HETATM    5  C   UNK N   1      27.978  17.678   4.576  0.00  0.00     0.040 C 
HETATM    6  C   UNK N   1      25.802  16.185   4.088  0.00  0.00     0.081 C 
HETATM    7  N   UNK N   1      30.602  15.808   6.007  0.00  0.00    -0.353 N 
HETATM    8  C   UNK N   1      30.541  16.983   6.686  0.00  0.00     0.220 C 
HETATM    9  C   UNK N   1      31.855  15.106   5.767  0.00  0.00     0.115 C 
HETATM   10  C   UNK N   1      27.991  17.270   6.077  0.00  0.00     0.142 C 
HETATM   11  C   UNK N   1      31.631  13.696   5.228  0.00  0.00     0.064 C 
HETATM   12  C   UNK N   1      29.242  17.725   6.857  0.00  0.00     0.135 C 
HETATM   13  C   UNK N   1      26.185  15.092   3.079  0.00  0.00     0.132 C 
HETATM   14  O   UNK N   1      26.024  18.458   3.460  0.00  0.00    -0.297 OA
HETATM   15  O   UNK N   1      31.548  17.457   7.185  0.00  0.00    -0.274 OA
HETATM   16  C   UNK N   1      27.390  14.267   3.515  0.00  0.00     0.011 C 
HETATM   17  C   UNK N   1      30.118  12.797   1.598  0.00  0.00     0.040 C 
HETATM   18  C   UNK N   1      32.269  11.959   2.840  0.00  0.00     0.049 C 
HETATM   19  C   UNK N   1      28.974  16.860   3.786  0.00  0.00     0.026 C 
HETATM   20  C   UNK N   1      28.409  19.141   4.435  0.00  0.00     0.026 C 
HETATM   21  C   UNK N   1      24.302  16.426   3.985  0.00  0.00     0.020 C 
HETATM   22  C   UNK N   1      28.931  13.765   1.620  0.00  0.00     0.004 C 
HETATM   23  C   UNK N   1      27.790  13.228   2.474  0.00  0.00     0.007 C 
HETATM   24  C   UNK N   1      27.090  13.553   4.821  0.00  0.00     0.012 C 
HETATM   25  H   UNK N   1      29.768  15.416   5.664  0.00  0.00     0.163 HD
ENDROOT
BRANCH   9  26
HETATM   26  C   UNK N   1      32.813  15.924   4.926  0.00  0.00    -0.059 C 
HETATM   27  C   UNK N   1      33.991  16.328   5.425  0.00  0.00     0.034 C 
HETATM   28  C   UNK N   1      32.391  16.429   3.586  0.00  0.00     0.045 C 
BRANCH  27  29
HETATM   29  C   UNK N   1      34.549  15.821   6.695  0.00  0.00     0.039 A 
HETATM   30  N   UNK N   1      34.413  16.519   7.876  0.00  0.00    -0.354 N 
HETATM   31  C   UNK N   1      35.002  15.875   8.911  0.00  0.00     0.047 A 
ATOM     32  HN  UNK N   1      33.928  17.412   7.960  1.00  0.00     0.166 HD
HETATM   33  C   UNK N   1      34.984  16.348  10.318  0.00  0.00     0.076 C 
HETATM   34  S   UNK N   1      35.700  14.485   8.372  0.00  0.00    -0.087 SA
HETATM   35  C   UNK N   1      35.275  14.615   6.779  0.00  0.00     0.081 A 
ENDBRANCH  27  29
ENDBRANCH   9  26
BRANCH  10  36
HETATM   36  O   UNK N   1      26.888  17.834   6.724  0.00  0.00    -0.394 OA
HETATM   37  H   UNK N   1      26.730  17.834   7.682  0.00  0.00     0.210 HD
ENDBRANCH  10  36
BRANCH  13  38
HETATM   38  O   UNK N   1      26.352  15.631   1.800  0.00  0.00    -0.394 OA
HETATM   39  H   UNK N   1      26.172  15.807   0.863  0.00  0.00     0.210 HD
ENDBRANCH  13  38
TORSDOF 4
ENDMDL
MODEL 2
REMARK VINA RESULT:      -7.5      4.215      8.308
REMARK  4 active torsions:
REMARK  status: ('A' for Active; 'I' for Inactive)
REMARK    1  A    between atoms: C_11  and  C_17 
REMARK    2  A    between atoms: C_12  and  C_16 
REMARK    3  A    between atoms: C_13  and  O_27 
REMARK    4  A    between atoms: C_18  and  O_26 
ROOT
HETATM    1  O   UNK N   1      25.935  13.546   2.405  0.00  0.00    -0.369 OA
HETATM    2  C   UNK N   1      25.360  12.910   3.510  0.00  0.00     0.084 A 
HETATM    3  C   UNK N   1      25.518  14.395   3.454  0.00  0.00     0.159 A 
HETATM    4  C   UNK N   1      29.872  17.068   5.816  0.00  0.00     0.143 C 
HETATM    5  C   UNK N   1      28.418  17.551   5.795  0.00  0.00     0.040 C 
HETATM    6  C   UNK N   1      30.528  16.383   4.619  0.00  0.00     0.081 C 
HETATM    7  N   UNK N   1      25.479  17.283   3.864  0.00  0.00    -0.353 N 
HETATM    8  C   UNK N   1      25.523  18.555   4.339  0.00  0.00     0.220 C 
HETATM    9  C   UNK N   1      24.229  16.564   3.661  0.00  0.00     0.115 C 
HETATM   10  C   UNK N   1      28.149  18.449   4.553  0.00  0.00     0.142 C 
HETATM   11  C   UNK N   1      24.429  15.271   2.875  0.00  0.00     0.064 C 
HETATM   12  C   UNK N   1      26.831  19.249   4.609  0.00  0.00     0.135 C 
HETATM   13  C   UNK N   1      30.222  14.887   4.461  0.00  0.00     0.132 C 
HETATM   14  O   UNK N   1      30.568  17.324   6.792  0.00  0.00    -0.297 OA
HETATM   15  O   UNK N   1      24.489  19.168   4.547  0.00  0.00    -0.274 OA
HETATM   16  C   UNK N   1      28.909  14.614   3.736  0.00  0.00     0.011 C 
HETATM   17  C   UNK N   1      26.401  12.013   4.204  0.00  0.00     0.040 C 
HETATM   18  C   UNK N   1      24.033  12.286   3.113  0.00  0.00     0.049 C 
HETATM   19  C   UNK N   1      27.495  16.354   5.804  0.00  0.00     0.026 C 
HETATM   20  C   UNK N   1      28.119  18.339   7.074  0.00  0.00     0.026 C 
HETATM   21  C   UNK N   1      32.040  16.563   4.642  0.00  0.00     0.020 C 
HETATM   22  C   UNK N   1      27.639  12.728   4.757  0.00  0.00     0.004 C 
HETATM   23  C   UNK N   1      28.597  13.126   3.641  0.00  0.00     0.007 C 
HETATM   24  C   UNK N   1      28.957  15.190   2.332  0.00  0.00     0.012 C 
HETATM   25  H   UNK N   1      26.325  16.830   3.648  0.00  0.00     0.163 HD
ENDROOT
BRANCH   9  26
HETATM   26  C   UNK N   1      23.471  16.367   4.957  0.00  0.00    -0.059 C 
HETATM   27  C   UNK N   1      22.266  16.931   5.140  0.00  0.00     0.034 C 
HETATM   28  C   UNK N   1      24.121  15.676   6.110  0.00  0.00     0.045 C 
BRANCH  27  29
HETATM   29  C   UNK N   1      21.493  17.558   4.050  0.00  0.00     0.039 A 
HETATM   30  N   UNK N   1      21.643  18.890   3.727  0.00  0.00    -0.354 N 
HETATM   31  C   UNK N   1      20.834  19.253   2.703  0.00  0.00     0.047 A 
ATOM     32  HN  UNK N   1      22.285  19.524   4.202  1.00  0.00     0.166 HD
HETATM   33  C   UNK N   1      20.802  20.607   2.095  0.00  0.00     0.076 C 
HETATM   34  S   UNK N   1      19.933  17.961   2.226  0.00  0.00    -0.087 SA
HETATM   35  C   UNK N   1      20.535  16.850   3.292  0.00  0.00     0.081 A 
ENDBRANCH  27  29
ENDBRANCH   9  26
BRANCH  10  36
HETATM   36  O   UNK N   1      29.180  19.382   4.420  0.00  0.00    -0.394 OA
HETATM   37  H   UNK N   1      29.108  20.336   4.587  0.00  0.00     0.210 HD
ENDBRANCH  10  36
BRANCH  13  38
HETATM   38  O   UNK N   1      30.290  14.231   5.693  0.00  0.00    -0.394 OA
HETATM   39  H   UNK N   1      30.140  14.062   6.636  0.00  0.00     0.210 HD
ENDBRANCH  13  38
TORSDOF 4
ENDMDL
MODEL 3
REMARK VINA RESULT:      -7.2     12.276     14.670
REMARK  4 active torsions:
REMARK  status: ('A' for Active; 'I' for Inactive)
REMARK    1  A    between atoms: C_11  and  C_17 
REMARK    2  A    between atoms: C_12  and  C_16 
REMARK    3  A    between atoms: C_13  and  O_27 
REMARK    4  A    between atoms: C_18  and  O_26 
ROOT
HETATM    1  O   UNK N   1      30.485  26.701  -5.638  0.00  0.00    -0.369 OA
HETATM    2  C   UNK N   1      29.921  26.667  -4.359  0.00  0.00     0.084 A 
HETATM    3  C   UNK N   1      29.964  25.454  -5.230  0.00  0.00     0.159 A 
HETATM    4  C   UNK N   1      25.616  23.873  -8.437  0.00  0.00     0.143 C 
HETATM    5  C   UNK N   1      26.549  22.942  -7.655  0.00  0.00     0.040 C 
HETATM    6  C   UNK N   1      26.120  25.114  -9.170  0.00  0.00     0.081 C 
HETATM    7  N   UNK N   1      29.848  22.791  -6.417  0.00  0.00    -0.353 N 
HETATM    8  C   UNK N   1      29.526  21.539  -6.835  0.00  0.00     0.220 C 
HETATM    9  C   UNK N   1      30.723  23.039  -5.280  0.00  0.00     0.115 C 
HETATM   10  C   UNK N   1      27.752  22.495  -8.535  0.00  0.00     0.142 C 
HETATM   11  C   UNK N   1      31.141  24.503  -5.183  0.00  0.00     0.064 C 
HETATM   12  C   UNK N   1      28.561  21.310  -7.967  0.00  0.00     0.135 C 
HETATM   13  C   UNK N   1      26.336  26.359  -8.297  0.00  0.00     0.132 C 
HETATM   14  O   UNK N   1      24.437  23.563  -8.563  0.00  0.00    -0.297 OA
HETATM   15  O   UNK N   1      30.030  20.565  -6.299  0.00  0.00    -0.274 OA
HETATM   16  C   UNK N   1      27.691  26.377  -7.599  0.00  0.00     0.011 C 
HETATM   17  C   UNK N   1      28.682  27.578  -4.304  0.00  0.00     0.040 C 
HETATM   18  C   UNK N   1      31.002  26.871  -3.313  0.00  0.00     0.049 C 
HETATM   19  C   UNK N   1      27.027  23.648  -6.407  0.00  0.00     0.026 C 
HETATM   20  C   UNK N   1      25.769  21.710  -7.185  0.00  0.00     0.026 C 
HETATM   21  C   UNK N   1      25.193  25.490 -10.318  0.00  0.00     0.020 C 
HETATM   22  C   UNK N   1      27.537  27.209  -5.253  0.00  0.00     0.004 C 
HETATM   23  C   UNK N   1      27.861  27.590  -6.692  0.00  0.00     0.007 C 
HETATM   24  C   UNK N   1      28.809  26.378  -8.626  0.00  0.00     0.012 C 
HETATM   25  H   UNK N   1      29.474  23.561  -6.903  0.00  0.00     0.163 HD
ENDROOT
BRANCH   9  26
HETATM   26  C   UNK N   1      30.147  22.492  -3.991  0.00  0.00    -0.059 C 
HETATM   27  C   UNK N   1      30.747  21.478  -3.347  0.00  0.00     0.034 C 
HETATM   28  C   UNK N   1      28.818  22.966  -3.502  0.00  0.00     0.045 C 
BRANCH  27  29
HETATM   29  C   UNK N   1      32.098  20.990  -3.686  0.00  0.00     0.039 A 
HETATM   30  N   UNK N   1      32.314  20.116  -4.730  0.00  0.00    -0.354 N 
HETATM   31  C   UNK N   1      33.624  19.799  -4.858  0.00  0.00     0.047 A 
ATOM     32  HN  UNK N   1      31.576  19.752  -5.333  1.00  0.00     0.166 HD
HETATM   33  C   UNK N   1      34.179  18.920  -5.918  0.00  0.00     0.076 C 
HETATM   34  S   UNK N   1      34.494  20.562  -3.688  0.00  0.00    -0.087 SA
HETATM   35  C   UNK N   1      33.246  21.360  -2.953  0.00  0.00     0.081 A 
ENDBRANCH  27  29
ENDBRANCH   9  26
BRANCH  10  36
HETATM   36  O   UNK N   1      27.289  22.099  -9.792  0.00  0.00    -0.394 OA
HETATM   37  H   UNK N   1      26.468  22.396 -10.215  0.00  0.00     0.210 HD
ENDBRANCH  10  36
BRANCH  13  38
HETATM   38  O   UNK N   1      25.278  26.528  -7.398  0.00  0.00    -0.394 OA
HETATM   39  H   UNK N   1      24.367  26.534  -7.066  0.00  0.00     0.210 HD
ENDBRANCH  13  38
TORSDOF 4
ENDMDL
MODEL 4
REMARK VINA RESULT:      -7.1      3.169      6.359
REMARK  4 active torsions:
REMARK  status: ('A' for Active; 'I' for Inactive)
REMARK    1  A    between atoms: C_11  and  C_17 
REMARK    2  A    between atoms: C_12  and  C_16 
REMARK    3  A    between atoms: C_13  and  O_27 
REMARK    4  A    between atoms: C_18  and  O_26 
ROOT
HETATM    1  O   UNK N   1      35.595  15.538   7.677  0.00  0.00    -0.369 OA
HETATM    2  C   UNK N   1      35.388  14.187   7.975  0.00  0.00     0.084 A 
HETATM    3  C   UNK N   1      34.736  14.841   6.800  0.00  0.00     0.159 A 
HETATM    4  C   UNK N   1      29.488  16.869   6.992  0.00  0.00     0.143 C 
HETATM    5  C   UNK N   1      30.131  16.135   5.810  0.00  0.00     0.040 C 
HETATM    6  C   UNK N   1      30.253  17.876   7.848  0.00  0.00     0.081 C 
HETATM    7  N   UNK N   1      33.290  15.533   4.362  0.00  0.00    -0.353 N 
HETATM    8  C   UNK N   1      32.408  15.672   3.339  0.00  0.00     0.220 C 
HETATM    9  C   UNK N   1      34.435  14.637   4.294  0.00  0.00     0.115 C 
HETATM   10  C   UNK N   1      30.809  17.140   4.835  0.00  0.00     0.142 C 
HETATM   11  C   UNK N   1      35.411  14.861   5.446  0.00  0.00     0.064 C 
HETATM   12  C   UNK N   1      31.190  16.549   3.463  0.00  0.00     0.135 C 
HETATM   13  C   UNK N   1      31.148  17.275   8.942  0.00  0.00     0.132 C 
HETATM   14  O   UNK N   1      28.290  16.717   7.203  0.00  0.00    -0.297 OA
HETATM   15  O   UNK N   1      32.595  15.088   2.283  0.00  0.00    -0.274 OA
HETATM   16  C   UNK N   1      32.522  16.857   8.432  0.00  0.00     0.011 C 
HETATM   17  C   UNK N   1      34.666  14.049   9.327  0.00  0.00     0.040 C 
HETATM   18  C   UNK N   1      36.678  13.411   7.774  0.00  0.00     0.049 C 
HETATM   19  C   UNK N   1      31.134  15.132   6.333  0.00  0.00     0.026 C 
HETATM   20  C   UNK N   1      29.063  15.331   5.062  0.00  0.00     0.026 C 
HETATM   21  C   UNK N   1      29.306  18.875   8.500  0.00  0.00     0.020 C 
HETATM   22  C   UNK N   1      33.277  14.693   9.413  0.00  0.00     0.004 C 
HETATM   23  C   UNK N   1      33.372  16.210   9.518  0.00  0.00     0.007 C 
HETATM   24  C   UNK N   1      33.267  18.062   7.887  0.00  0.00     0.012 C 
HETATM   25  H   UNK N   1      33.149  16.058   5.182  0.00  0.00     0.163 HD
ENDROOT
BRANCH   9  26
HETATM   26  C   UNK N   1      34.017  13.191   4.135  0.00  0.00    -0.059 C 
HETATM   27  C   UNK N   1      34.377  12.487   3.050  0.00  0.00     0.034 C 
HETATM   28  C   UNK N   1      33.065  12.574   5.106  0.00  0.00     0.045 C 
BRANCH  27  29
HETATM   29  C   UNK N   1      35.380  12.960   2.075  0.00  0.00     0.039 A 
HETATM   30  N   UNK N   1      35.017  13.652   0.939  0.00  0.00    -0.354 N 
HETATM   31  C   UNK N   1      36.094  13.983   0.187  0.00  0.00     0.047 A 
ATOM     32  HN  UNK N   1      34.055  13.885   0.694  1.00  0.00     0.166 HD
HETATM   33  C   UNK N   1      36.034  14.772  -1.069  0.00  0.00     0.076 C 
HETATM   34  S   UNK N   1      37.463  13.409   0.899  0.00  0.00    -0.087 SA
HETATM   35  C   UNK N   1      36.761  12.714   2.225  0.00  0.00     0.081 A 
ENDBRANCH  27  29
ENDBRANCH   9  26
BRANCH  10  36
HETATM   36  O   UNK N   1      29.940  18.206   4.586  0.00  0.00    -0.394 OA
HETATM   37  H   UNK N   1      29.171  18.449   5.125  0.00  0.00     0.210 HD
ENDBRANCH  10  36
BRANCH  13  38
HETATM   38  O   UNK N   1      30.493  16.233   9.605  0.00  0.00    -0.394 OA
HETATM   39  H   UNK N   1      30.373  15.382  10.055  0.00  0.00     0.210 HD
ENDBRANCH  13  38
TORSDOF 4
ENDMDL
MODEL 5
REMARK VINA RESULT:      -7.1     12.470     15.071
REMARK  4 active torsions:
REMARK  status: ('A' for Active; 'I' for Inactive)
REMARK    1  A    between atoms: C_11  and  C_17 
REMARK    2  A    between atoms: C_12  and  C_16 
REMARK    3  A    between atoms: C_13  and  O_27 
REMARK    4  A    between atoms: C_18  and  O_26 
ROOT
HETATM    1  O   UNK N   1      27.699  24.099  -8.883  0.00  0.00    -0.369 OA
HETATM    2  C   UNK N   1      26.536  23.600  -8.288  0.00  0.00     0.084 A 
HETATM    3  C   UNK N   1      27.693  24.076  -7.471  0.00  0.00     0.159 A 
HETATM    4  C   UNK N   1      31.604  20.577  -5.435  0.00  0.00     0.143 C 
HETATM    5  C   UNK N   1      31.016  21.794  -4.713  0.00  0.00     0.040 C 
HETATM    6  C   UNK N   1      31.925  20.582  -6.928  0.00  0.00     0.081 C 
HETATM    7  N   UNK N   1      29.558  24.932  -5.396  0.00  0.00    -0.353 N 
HETATM    8  C   UNK N   1      30.325  25.088  -4.286  0.00  0.00     0.220 C 
HETATM    9  C   UNK N   1      28.318  25.667  -5.603  0.00  0.00     0.115 C 
HETATM   10  C   UNK N   1      31.865  23.068  -4.993  0.00  0.00     0.142 C 
HETATM   11  C   UNK N   1      27.792  25.519  -7.028  0.00  0.00     0.064 C 
HETATM   12  C   UNK N   1      31.563  24.261  -4.063  0.00  0.00     0.135 C 
HETATM   13  C   UNK N   1      30.733  20.335  -7.864  0.00  0.00     0.132 C 
HETATM   14  O   UNK N   1      31.919  19.592  -4.776  0.00  0.00    -0.297 OA
HETATM   15  O   UNK N   1      30.025  25.919  -3.445  0.00  0.00    -0.274 OA
HETATM   16  C   UNK N   1      29.931  21.597  -8.161  0.00  0.00     0.011 C 
HETATM   17  C   UNK N   1      26.356  22.114  -8.644  0.00  0.00     0.040 C 
HETATM   18  C   UNK N   1      25.375  24.543  -8.555  0.00  0.00     0.049 C 
HETATM   19  C   UNK N   1      29.585  21.993  -5.157  0.00  0.00     0.026 C 
HETATM   20  C   UNK N   1      30.971  21.526  -3.206  0.00  0.00     0.026 C 
HETATM   21  C   UNK N   1      33.012  19.569  -7.260  0.00  0.00     0.020 C 
HETATM   22  C   UNK N   1      27.474  21.174  -8.180  0.00  0.00     0.004 C 
HETATM   23  C   UNK N   1      28.720  21.320  -9.044  0.00  0.00     0.007 C 
HETATM   24  C   UNK N   1      30.809  22.625  -8.852  0.00  0.00     0.012 C 
HETATM   25  H   UNK N   1      29.851  24.296  -6.088  0.00  0.00     0.163 HD
ENDROOT
BRANCH   9  26
HETATM   26  C   UNK N   1      27.284  25.346  -4.545  0.00  0.00    -0.059 C 
HETATM   27  C   UNK N   1      26.864  26.290  -3.688  0.00  0.00     0.034 C 
HETATM   28  C   UNK N   1      26.835  23.938  -4.338  0.00  0.00     0.045 C 
BRANCH  27  29
HETATM   29  C   UNK N   1      27.169  27.725  -3.850  0.00  0.00     0.039 A 
HETATM   30  N   UNK N   1      28.306  28.290  -3.313  0.00  0.00    -0.354 N 
HETATM   31  C   UNK N   1      28.382  29.616  -3.579  0.00  0.00     0.047 A 
ATOM     32  HN  UNK N   1      29.004  27.773  -2.779  1.00  0.00     0.166 HD
HETATM   33  C   UNK N   1      29.512  30.492  -3.177  0.00  0.00     0.076 C 
HETATM   34  S   UNK N   1      27.059  30.084  -4.437  0.00  0.00    -0.087 SA
HETATM   35  C   UNK N   1      26.312  28.612  -4.536  0.00  0.00     0.081 A 
ENDBRANCH  27  29
ENDBRANCH   9  26
BRANCH  10  36
HETATM   36  O   UNK N   1      33.221  22.769  -4.834  0.00  0.00    -0.394 OA
HETATM   37  H   UNK N   1      33.946  23.414  -4.810  0.00  0.00     0.210 HD
ENDBRANCH  10  36
BRANCH  13  38
HETATM   38  O   UNK N   1      29.927  19.300  -7.384  0.00  0.00    -0.394 OA
HETATM   39  H   UNK N   1      29.283  18.574  -7.398  0.00  0.00     0.210 HD
ENDBRANCH  13  38
TORSDOF 4
ENDMDL
MODEL 6
REMARK VINA RESULT:      -6.9      2.347      3.486
REMARK  4 active torsions:
REMARK  status: ('A' for Active; 'I' for Inactive)
REMARK    1  A    between atoms: C_11  and  C_17 
REMARK    2  A    between atoms: C_12  and  C_16 
REMARK    3  A    between atoms: C_13  and  O_27 
REMARK    4  A    between atoms: C_18  and  O_26 
ROOT
HETATM    1  O   UNK N   1      26.598  12.942   5.197  0.00  0.00    -0.369 OA
HETATM    2  C   UNK N   1      26.816  12.665   3.843  0.00  0.00     0.084 A 
HETATM    3  C   UNK N   1      27.221  13.968   4.453  0.00  0.00     0.159 A 
HETATM    4  C   UNK N   1      24.000  18.575   4.168  0.00  0.00     0.143 C 
HETATM    5  C   UNK N   1      25.528  18.531   4.050  0.00  0.00     0.040 C 
HETATM    6  C   UNK N   1      23.227  17.704   5.155  0.00  0.00     0.081 C 
HETATM    7  N   UNK N   1      28.292  16.605   5.092  0.00  0.00    -0.353 N 
HETATM    8  C   UNK N   1      28.686  17.905   5.119  0.00  0.00     0.220 C 
HETATM    9  C   UNK N   1      29.200  15.518   4.758  0.00  0.00     0.115 C 
HETATM   10  C   UNK N   1      26.197  18.715   5.442  0.00  0.00     0.142 C 
HETATM   11  C   UNK N   1      28.596  14.149   5.059  0.00  0.00     0.064 C 
HETATM   12  C   UNK N   1      27.709  19.017   5.395  0.00  0.00     0.135 C 
HETATM   13  C   UNK N   1      22.970  16.258   4.706  0.00  0.00     0.132 C 
HETATM   14  O   UNK N   1      23.379  19.407   3.516  0.00  0.00    -0.297 OA
HETATM   15  O   UNK N   1      29.855  18.196   4.926  0.00  0.00    -0.274 OA
HETATM   16  C   UNK N   1      24.139  15.323   4.992  0.00  0.00     0.011 C 
HETATM   17  C   UNK N   1      25.471  12.498   3.114  0.00  0.00     0.040 C 
HETATM   18  C   UNK N   1      27.845  11.556   3.703  0.00  0.00     0.049 C 
HETATM   19  C   UNK N   1      25.941  17.219   3.423  0.00  0.00     0.026 C 
HETATM   20  C   UNK N   1      26.002  19.635   3.100  0.00  0.00     0.026 C 
HETATM   21  C   UNK N   1      21.890  18.337   5.518  0.00  0.00     0.020 C 
HETATM   22  C   UNK N   1      24.547  13.721   3.125  0.00  0.00     0.004 C 
HETATM   23  C   UNK N   1      23.887  13.907   4.486  0.00  0.00     0.007 C 
HETATM   24  C   UNK N   1      24.408  15.263   6.485  0.00  0.00     0.012 C 
HETATM   25  H   UNK N   1      27.356  16.391   5.307  0.00  0.00     0.163 HD
ENDROOT
BRANCH   9  26
HETATM   26  C   UNK N   1      29.737  15.639   3.347  0.00  0.00    -0.059 C 
HETATM   27  C   UNK N   1      31.041  15.864   3.126  0.00  0.00     0.034 C 
HETATM   28  C   UNK N   1      28.797  15.668   2.187  0.00  0.00     0.045 C 
BRANCH  27  29
HETATM   29  C   UNK N   1      32.069  15.768   4.181  0.00  0.00     0.039 A 
HETATM   30  N   UNK N   1      32.443  16.863   4.931  0.00  0.00    -0.354 N 
HETATM   31  C   UNK N   1      33.402  16.549   5.835  0.00  0.00     0.047 A 
ATOM     32  HN  UNK N   1      32.046  17.795   4.820  1.00  0.00     0.166 HD
HETATM   33  C   UNK N   1      33.974  17.500   6.821  0.00  0.00     0.076 C 
HETATM   34  S   UNK N   1      33.798  14.958   5.690  0.00  0.00    -0.087 SA
HETATM   35  C   UNK N   1      32.753  14.568   4.470  0.00  0.00     0.081 A 
ENDBRANCH  27  29
ENDBRANCH   9  26
BRANCH  10  36
HETATM   36  O   UNK N   1      25.595  19.784   6.112  0.00  0.00    -0.394 OA
HETATM   37  H   UNK N   1      25.587  19.919   7.073  0.00  0.00     0.210 HD
ENDBRANCH  10  36
BRANCH  13  38
HETATM   38  O   UNK N   1      22.576  16.215   3.365  0.00  0.00    -0.394 OA
HETATM   39  H   UNK N   1      21.993  16.111   2.598  0.00  0.00     0.210 HD
ENDBRANCH  13  38
TORSDOF 4
ENDMDL
MODEL 7
REMARK VINA RESULT:      -6.7      3.056      8.148
REMARK  4 active torsions:
REMARK  status: ('A' for Active; 'I' for Inactive)
REMARK    1  A    between atoms: C_11  and  C_17 
REMARK    2  A    between atoms: C_12  and  C_16 
REMARK    3  A    between atoms: C_13  and  O_27 
REMARK    4  A    between atoms: C_18  and  O_26 
ROOT
HETATM    1  O   UNK N   1      31.613  16.101   8.560  0.00  0.00    -0.369 OA
HETATM    2  C   UNK N   1      31.899  17.415   8.178  0.00  0.00     0.084 A 
HETATM    3  C   UNK N   1      31.529  16.370   7.176  0.00  0.00     0.159 A 
HETATM    4  C   UNK N   1      35.379  13.474   4.263  0.00  0.00     0.143 C 
HETATM    5  C   UNK N   1      34.041  13.994   3.726  0.00  0.00     0.040 C 
HETATM    6  C   UNK N   1      35.529  12.887   5.665  0.00  0.00     0.081 C 
HETATM    7  N   UNK N   1      30.790  14.811   4.823  0.00  0.00    -0.353 N 
HETATM    8  C   UNK N   1      30.661  14.247   3.594  0.00  0.00     0.220 C 
HETATM    9  C   UNK N   1      29.907  15.866   5.299  0.00  0.00     0.115 C 
HETATM   10  C   UNK N   1      32.922  12.926   3.895  0.00  0.00     0.142 C 
HETATM   11  C   UNK N   1      30.085  16.138   6.790  0.00  0.00     0.064 C 
HETATM   12  C   UNK N   1      31.633  13.211   3.098  0.00  0.00     0.135 C 
HETATM   13  C   UNK N   1      35.676  13.910   6.801  0.00  0.00     0.132 C 
HETATM   14  O   UNK N   1      36.346  13.438   3.511  0.00  0.00    -0.297 OA
HETATM   15  O   UNK N   1      29.735  14.568   2.866  0.00  0.00    -0.274 OA
HETATM   16  C   UNK N   1      34.340  14.444   7.306  0.00  0.00     0.011 C 
HETATM   17  C   UNK N   1      33.368  17.749   8.493  0.00  0.00     0.040 C 
HETATM   18  C   UNK N   1      30.826  18.351   8.707  0.00  0.00     0.049 C 
HETATM   19  C   UNK N   1      33.678  15.273   4.446  0.00  0.00     0.026 C 
HETATM   20  C   UNK N   1      34.187  14.356   2.245  0.00  0.00     0.026 C 
HETATM   21  C   UNK N   1      36.705  11.923   5.734  0.00  0.00     0.020 C 
HETATM   22  C   UNK N   1      34.417  16.891   7.778  0.00  0.00     0.004 C 
HETATM   23  C   UNK N   1      34.510  15.499   8.392  0.00  0.00     0.007 C 
HETATM   24  C   UNK N   1      33.499  13.309   7.861  0.00  0.00     0.012 C 
HETATM   25  H   UNK N   1      31.510  14.495   5.414  0.00  0.00     0.163 HD
ENDROOT
BRANCH   9  26
HETATM   26  C   UNK N   1      30.001  17.114   4.446  0.00  0.00    -0.059 C 
HETATM   27  C   UNK N   1      28.924  17.584   3.797  0.00  0.00     0.034 C 
HETATM   28  C   UNK N   1      31.328  17.747   4.188  0.00  0.00     0.045 C 
BRANCH  27  29
HETATM   29  C   UNK N   1      27.553  17.096   4.044  0.00  0.00     0.039 A 
HETATM   30  N   UNK N   1      26.982  16.112   3.266  0.00  0.00    -0.354 N 
HETATM   31  C   UNK N   1      25.721  15.823   3.666  0.00  0.00     0.047 A 
ATOM     32  HN  UNK N   1      27.453  15.656   2.484  1.00  0.00     0.166 HD
HETATM   33  C   UNK N   1      24.864  14.773   3.059  0.00  0.00     0.076 C 
HETATM   34  S   UNK N   1      25.311  16.784   4.937  0.00  0.00    -0.087 SA
HETATM   35  C   UNK N   1      26.732  17.620   5.065  0.00  0.00     0.081 A 
ENDBRANCH  27  29
ENDBRANCH   9  26
BRANCH  10  36
HETATM   36  O   UNK N   1      33.395  11.683   3.464  0.00  0.00    -0.394 OA
HETATM   37  H   UNK N   1      33.274  10.838   3.927  0.00  0.00     0.210 HD
ENDBRANCH  10  36
BRANCH  13  38
HETATM   38  O   UNK N   1      36.551  14.938   6.438  0.00  0.00    -0.394 OA
HETATM   39  H   UNK N   1      37.238  15.404   5.937  0.00  0.00     0.210 HD
ENDBRANCH  13  38
TORSDOF 4
ENDMDL
MODEL 8
REMARK VINA RESULT:      -6.7      7.051     12.289
REMARK  4 active torsions:
REMARK  status: ('A' for Active; 'I' for Inactive)
REMARK    1  A    between atoms: C_11  and  C_17 
REMARK    2  A    between atoms: C_12  and  C_16 
REMARK    3  A    between atoms: C_13  and  O_27 
REMARK    4  A    between atoms: C_18  and  O_26 
ROOT
HETATM    1  O   UNK N   1      34.607  13.766  12.793  0.00  0.00    -0.369 OA
HETATM    2  C   UNK N   1      35.863  14.378  12.718  0.00  0.00     0.084 A 
HETATM    3  C   UNK N   1      35.593  13.058  12.071  0.00  0.00     0.159 A 
HETATM    4  C   UNK N   1      36.856   8.161  14.545  0.00  0.00     0.143 C 
HETATM    5  C   UNK N   1      37.010   8.489  13.056  0.00  0.00     0.040 C 
HETATM    6  C   UNK N   1      35.665   8.641  15.372  0.00  0.00     0.081 C 
HETATM    7  N   UNK N   1      35.632  10.563  10.559  0.00  0.00    -0.353 N 
HETATM    8  C   UNK N   1      35.928   9.377   9.966  0.00  0.00     0.220 C 
HETATM    9  C   UNK N   1      35.729  11.836   9.858  0.00  0.00     0.115 C 
HETATM   10  C   UNK N   1      35.724   8.107  12.268  0.00  0.00     0.142 C 
HETATM   11  C   UNK N   1      35.092  12.977  10.646  0.00  0.00     0.064 C 
HETATM   12  C   UNK N   1      35.891   8.083  10.734  0.00  0.00     0.135 C 
HETATM   13  C   UNK N   1      35.751  10.087  15.884  0.00  0.00     0.132 C 
HETATM   14  O   UNK N   1      37.665   7.408  15.073  0.00  0.00    -0.297 OA
HETATM   15  O   UNK N   1      36.221   9.339   8.782  0.00  0.00    -0.274 OA
HETATM   16  C   UNK N   1      35.290  11.115  14.858  0.00  0.00     0.011 C 
HETATM   17  C   UNK N   1      36.487  14.477  14.121  0.00  0.00     0.040 C 
HETATM   18  C   UNK N   1      35.770  15.646  11.887  0.00  0.00     0.049 C 
HETATM   19  C   UNK N   1      37.322   9.959  12.898  0.00  0.00     0.026 C 
HETATM   20  C   UNK N   1      38.210   7.727  12.484  0.00  0.00     0.026 C 
HETATM   21  C   UNK N   1      35.419   7.726  16.564  0.00  0.00     0.020 C 
HETATM   22  C   UNK N   1      36.736  13.147  14.839  0.00  0.00     0.004 C 
HETATM   23  C   UNK N   1      35.437  12.545  15.363  0.00  0.00     0.007 C 
HETATM   24  C   UNK N   1      33.835  10.878  14.495  0.00  0.00     0.012 C 
HETATM   25  H   UNK N   1      35.342  10.562  11.499  0.00  0.00     0.163 HD
ENDROOT
BRANCH   9  26
HETATM   26  C   UNK N   1      37.145  12.132   9.411  0.00  0.00    -0.059 C 
HETATM   27  C   UNK N   1      37.393  12.582   8.171  0.00  0.00     0.034 C 
HETATM   28  C   UNK N   1      38.299  11.777  10.290  0.00  0.00     0.045 C 
BRANCH  27  29
HETATM   29  C   UNK N   1      36.336  13.049   7.253  0.00  0.00     0.039 A 
HETATM   30  N   UNK N   1      35.866  14.344   7.286  0.00  0.00    -0.354 N 
HETATM   31  C   UNK N   1      34.897  14.551   6.363  0.00  0.00     0.047 A 
ATOM     32  HN  UNK N   1      36.205  15.059   7.929  1.00  0.00     0.166 HD
HETATM   33  C   UNK N   1      34.229  15.855   6.120  0.00  0.00     0.076 C 
HETATM   34  S   UNK N   1      34.610  13.155   5.540  0.00  0.00    -0.087 SA
HETATM   35  C   UNK N   1      35.722  12.201   6.307  0.00  0.00     0.081 A 
ENDBRANCH  27  29
ENDBRANCH   9  26
BRANCH  10  36
HETATM   36  O   UNK N   1      35.307   6.828  12.646  0.00  0.00    -0.394 OA
HETATM   37  H   UNK N   1      35.880   6.120  12.982  0.00  0.00     0.210 HD
ENDBRANCH  10  36
BRANCH  13  38
HETATM   38  O   UNK N   1      37.029  10.368  16.374  0.00  0.00    -0.394 OA
HETATM   39  H   UNK N   1      37.753  10.877  16.771  0.00  0.00     0.210 HD
ENDBRANCH  13  38
TORSDOF 4
ENDMDL
MODEL 9
REMARK VINA RESULT:      -6.6      3.991      8.759
REMARK  4 active torsions:
REMARK  status: ('A' for Active; 'I' for Inactive)
REMARK    1  A    between atoms: C_11  and  C_17 
REMARK    2  A    between atoms: C_12  and  C_16 
REMARK    3  A    between atoms: C_13  and  O_27 
REMARK    4  A    between atoms: C_18  and  O_26 
ROOT
HETATM    1  O   UNK N   1      25.368  18.156   5.337  0.00  0.00    -0.369 OA
HETATM    2  C   UNK N   1      25.195  18.677   4.051  0.00  0.00     0.084 A 
HETATM    3  C   UNK N   1      25.536  17.240   4.275  0.00  0.00     0.159 A 
HETATM    4  C   UNK N   1      30.816  15.306   4.021  0.00  0.00     0.143 C 
HETATM    5  C   UNK N   1      29.564  14.588   3.504  0.00  0.00     0.040 C 
HETATM    6  C   UNK N   1      30.828  16.101   5.324  0.00  0.00     0.081 C 
HETATM    7  N   UNK N   1      26.094  14.381   4.099  0.00  0.00    -0.353 N 
HETATM    8  C   UNK N   1      26.513  13.130   3.777  0.00  0.00     0.220 C 
HETATM    9  C   UNK N   1      24.776  14.885   3.740  0.00  0.00     0.115 C 
HETATM   10  C   UNK N   1      28.958  13.670   4.604  0.00  0.00     0.142 C 
HETATM   11  C   UNK N   1      24.450  16.200   4.443  0.00  0.00     0.064 C 
HETATM   12  C   UNK N   1      27.907  12.661   4.095  0.00  0.00     0.135 C 
HETATM   13  C   UNK N   1      30.266  17.527   5.238  0.00  0.00     0.132 C 
HETATM   14  O   UNK N   1      31.873  15.160   3.418  0.00  0.00    -0.297 OA
HETATM   15  O   UNK N   1      25.752  12.352   3.225  0.00  0.00    -0.274 OA
HETATM   16  C   UNK N   1      28.748  17.584   5.366  0.00  0.00     0.011 C 
HETATM   17  C   UNK N   1      26.280  19.729   3.757  0.00  0.00     0.040 C 
HETATM   18  C   UNK N   1      23.743  19.075   3.846  0.00  0.00     0.049 C 
HETATM   19  C   UNK N   1      28.555  15.615   3.044  0.00  0.00     0.026 C 
HETATM   20  C   UNK N   1      29.923  13.750   2.274  0.00  0.00     0.026 C 
HETATM   21  C   UNK N   1      32.232  16.174   5.911  0.00  0.00     0.020 C 
HETATM   22  C   UNK N   1      27.727  19.224   3.790  0.00  0.00     0.004 C 
HETATM   23  C   UNK N   1      28.206  19.001   5.219  0.00  0.00     0.007 C 
HETATM   24  C   UNK N   1      28.315  17.037   6.714  0.00  0.00     0.012 C 
HETATM   25  H   UNK N   1      26.706  14.971   4.596  0.00  0.00     0.163 HD
ENDROOT
BRANCH   9  26
HETATM   26  C   UNK N   1      24.579  14.941   2.240  0.00  0.00    -0.059 C 
HETATM   27  C   UNK N   1      23.483  14.414   1.671  0.00  0.00     0.034 C 
HETATM   28  C   UNK N   1      25.675  15.441   1.358  0.00  0.00     0.045 C 
BRANCH  27  29
HETATM   29  C   UNK N   1      22.303  13.976   2.442  0.00  0.00     0.039 A 
HETATM   30  N   UNK N   1      21.384  14.876   2.937  0.00  0.00    -0.354 N 
HETATM   31  C   UNK N   1      20.388  14.257   3.615  0.00  0.00     0.047 A 
ATOM     32  HN  UNK N   1      21.447  15.886   2.809  1.00  0.00     0.166 HD
HETATM   33  C   UNK N   1      19.224  14.951   4.222  0.00  0.00     0.076 C 
HETATM   34  S   UNK N   1      20.652  12.633   3.624  0.00  0.00    -0.087 SA
HETATM   35  C   UNK N   1      22.053  12.621   2.746  0.00  0.00     0.081 A 
ENDBRANCH  27  29
ENDBRANCH   9  26
BRANCH  10  36
HETATM   36  O   UNK N   1      29.976  12.922   5.201  0.00  0.00    -0.394 OA
HETATM   37  H   UNK N   1      30.215  12.937   6.142  0.00  0.00     0.210 HD
ENDBRANCH  10  36
BRANCH  13  38
HETATM   38  O   UNK N   1      30.722  18.174   4.086  0.00  0.00    -0.394 OA
HETATM   39  H   UNK N   1      30.740  18.809   3.353  0.00  0.00     0.210 HD
ENDBRANCH  13  38
TORSDOF 4
ENDMDL
