MODEL 1
REMARK VINA RESULT:      -6.3      0.000      0.000
REMARK  6 active torsions:
REMARK  status: ('A' for Active; 'I' for Inactive)
REMARK    1  A    between atoms: O_2  and  C_9 
REMARK    2  A    between atoms: O_2  and  C_12 
REMARK    3  A    between atoms: O_3  and  C_23 
REMARK    4  A    between atoms: C_8  and  C_9 
REMARK    5  A    between atoms: C_13  and  C_18 
REMARK    6  A    between atoms: C_20  and  C_23 
ROOT
HETATM    1  N   UNK N   1      21.070  20.853   0.188  0.00  0.00    -0.191 NA
HETATM    2  C   UNK N   1      21.941  19.411   3.358  0.00  0.00     0.089 C 
HETATM    3  C   UNK N   1      20.154  17.436   3.297  0.00  0.00    -0.001 C 
HETATM    4  C   UNK N   1      21.030  19.352   2.291  0.00  0.00     0.078 C 
HETATM    5  C   UNK N   1      21.727  18.649   4.520  0.00  0.00     0.039 C 
HETATM    6  C   UNK N   1      20.109  18.361   2.280  0.00  0.00     0.039 C 
HETATM    7  C   UNK N   1      20.794  17.661   4.494  0.00  0.00     0.017 C 
HETATM    8  C   UNK N   1      21.079  20.201   1.142  0.00  0.00     0.102 C 
ENDROOT
BRANCH   2   9
HETATM    9  O   UNK N   1      23.030  20.166   3.257  0.00  0.00    -0.349 OA
BRANCH   9  10
HETATM   10  C   UNK N   1      24.127  19.938   4.033  0.00  0.00     0.179 C 
BRANCH  10  11
HETATM   11  C   UNK N   1      25.209  19.519   3.073  0.00  0.00     0.002 C 
HETATM   12  C   UNK N   1      26.299  20.552   3.091  0.00  0.00     0.011 C 
HETATM   13  C   UNK N   1      25.769  18.173   3.514  0.00  0.00     0.011 C 
ENDBRANCH  10  11
ENDBRANCH   9  10
ENDBRANCH   2   9
BRANCH   3  14
HETATM   14  C   UNK N   1      20.280  16.113   2.840  0.00  0.00     0.085 C 
HETATM   15  S   UNK N   1      21.702  15.361   2.679  0.00  0.00    -0.063 SA
HETATM   16  C   UNK N   1      21.201  14.309   1.570  0.00  0.00     0.102 C 
HETATM   17  C   UNK N   1      19.801  14.451   1.452  0.00  0.00     0.030 C 
HETATM   18  N   UNK N   1      19.296  15.468   2.190  0.00  0.00    -0.352 N 
HETATM   19  C   UNK N   1      18.948  13.805   0.432  0.00  0.00     0.070 C 
ATOM     20  HN  UNK N   1      18.306  15.711   2.245  1.00  0.00     0.166 HD
BRANCH  16  21
HETATM   21  C   UNK N   1      22.157  13.673   0.704  0.00  0.00     0.185 C 
HETATM   22  O   UNK N   1      23.173  14.255   0.382  0.00  0.00    -0.646 OA
BRANCH  21  23
HETATM   23  O   UNK N   1      22.030  12.352   0.460  0.00  0.00    -0.772 OA
HETATM   24  H   UNK N   1      22.128  12.011  -0.407  0.00  0.00     0.167 HD
ENDBRANCH  21  23
ENDBRANCH  16  21
ENDBRANCH   3  14
TORSDOF 6
ENDMDL
MODEL 2
REMARK VINA RESULT:      -6.1     17.833     20.234
REMARK  6 active torsions:
REMARK  status: ('A' for Active; 'I' for Inactive)
REMARK    1  A    between atoms: O_2  and  C_9 
REMARK    2  A    between atoms: O_2  and  C_12 
REMARK    3  A    between atoms: O_3  and  C_23 
REMARK    4  A    between atoms: C_8  and  C_9 
REMARK    5  A    between atoms: C_13  and  C_18 
REMARK    6  A    between atoms: C_20  and  C_23 
ROOT
HETATM    1  N   UNK N   1      35.270  14.286  18.876  0.00  0.00    -0.191 NA
HETATM    2  C   UNK N   1      35.124  11.165  17.108  0.00  0.00     0.089 C 
HETATM    3  C   UNK N   1      34.827  12.206  14.674  0.00  0.00    -0.001 C 
HETATM    4  C   UNK N   1      34.992  12.557  16.976  0.00  0.00     0.078 C 
HETATM    5  C   UNK N   1      34.797  10.314  16.038  0.00  0.00     0.039 C 
HETATM    6  C   UNK N   1      34.816  13.076  15.739  0.00  0.00     0.039 C 
HETATM    7  C   UNK N   1      34.618  10.852  14.803  0.00  0.00     0.017 C 
HETATM    8  C   UNK N   1      35.149  13.487  18.050  0.00  0.00     0.102 C 
ENDROOT
BRANCH   2   9
HETATM    9  O   UNK N   1      35.593  10.649  18.240  0.00  0.00    -0.349 OA
BRANCH   9  10
HETATM   10  C   UNK N   1      35.556   9.308  18.479  0.00  0.00     0.179 C 
BRANCH  10  11
HETATM   11  C   UNK N   1      34.726   9.154  19.726  0.00  0.00     0.002 C 
HETATM   12  C   UNK N   1      34.717  10.462  20.466  0.00  0.00     0.011 C 
HETATM   13  C   UNK N   1      33.303   8.779  19.331  0.00  0.00     0.011 C 
ENDBRANCH  10  11
ENDBRANCH   9  10
ENDBRANCH   2   9
BRANCH   3  14
HETATM   14  C   UNK N   1      35.789  12.529  13.702  0.00  0.00     0.085 C 
HETATM   15  S   UNK N   1      36.049  14.037  13.178  0.00  0.00    -0.063 SA
HETATM   16  C   UNK N   1      36.663  13.607  11.755  0.00  0.00     0.102 C 
HETATM   17  C   UNK N   1      36.828  12.205  11.770  0.00  0.00     0.030 C 
HETATM   18  N   UNK N   1      36.341  11.614  12.887  0.00  0.00    -0.352 N 
HETATM   19  C   UNK N   1      37.204  11.364  10.613  0.00  0.00     0.070 C 
ATOM     20  HN  UNK N   1      36.386  10.613  13.082  1.00  0.00     0.166 HD
BRANCH  16  21
HETATM   21  C   UNK N   1      36.654  14.540  10.660  0.00  0.00     0.185 C 
HETATM   22  O   UNK N   1      35.601  14.956  10.220  0.00  0.00    -0.646 OA
BRANCH  21  23
HETATM   23  O   UNK N   1      37.816  15.125  10.299  0.00  0.00    -0.772 OA
HETATM   24  H   UNK N   1      38.636  14.700  10.452  0.00  0.00     0.167 HD
ENDBRANCH  21  23
ENDBRANCH  16  21
ENDBRANCH   3  14
TORSDOF 6
ENDMDL
MODEL 3
REMARK VINA RESULT:      -6.1     10.497     13.380
REMARK  6 active torsions:
REMARK  status: ('A' for Active; 'I' for Inactive)
REMARK    1  A    between atoms: O_2  and  C_9 
REMARK    2  A    between atoms: O_2  and  C_12 
REMARK    3  A    between atoms: O_3  and  C_23 
REMARK    4  A    between atoms: C_8  and  C_9 
REMARK    5  A    between atoms: C_13  and  C_18 
REMARK    6  A    between atoms: C_20  and  C_23 
ROOT
HETATM    1  N   UNK N   1      33.241  12.227   8.859  0.00  0.00    -0.191 NA
HETATM    2  C   UNK N   1      34.063  15.643   9.595  0.00  0.00     0.089 C 
HETATM    3  C   UNK N   1      32.764  16.720   7.534  0.00  0.00    -0.001 C 
HETATM    4  C   UNK N   1      33.456  14.793   8.656  0.00  0.00     0.078 C 
HETATM    5  C   UNK N   1      34.258  17.004   9.303  0.00  0.00     0.039 C 
HETATM    6  C   UNK N   1      32.820  15.348   7.598  0.00  0.00     0.039 C 
HETATM    7  C   UNK N   1      33.616  17.544   8.233  0.00  0.00     0.017 C 
HETATM    8  C   UNK N   1      33.357  13.375   8.797  0.00  0.00     0.102 C 
ENDROOT
BRANCH   2   9
HETATM    9  O   UNK N   1      34.425  15.165  10.781  0.00  0.00    -0.349 OA
BRANCH   9  10
HETATM   10  C   UNK N   1      35.598  15.537  11.369  0.00  0.00     0.179 C 
BRANCH  10  11
HETATM   11  C   UNK N   1      36.209  14.256  11.872  0.00  0.00     0.002 C 
HETATM   12  C   UNK N   1      35.108  13.347  12.342  0.00  0.00     0.011 C 
HETATM   13  C   UNK N   1      36.973  13.590  10.735  0.00  0.00     0.011 C 
ENDBRANCH  10  11
ENDBRANCH   9  10
ENDBRANCH   2   9
BRANCH   3  14
HETATM   14  C   UNK N   1      31.454  17.220   7.448  0.00  0.00     0.085 C 
HETATM   15  S   UNK N   1      30.697  17.940   8.682  0.00  0.00    -0.063 SA
HETATM   16  C   UNK N   1      29.208  17.620   8.163  0.00  0.00     0.102 C 
HETATM   17  C   UNK N   1      29.319  17.071   6.867  0.00  0.00     0.030 C 
HETATM   18  N   UNK N   1      30.599  16.866   6.473  0.00  0.00    -0.352 N 
HETATM   19  C   UNK N   1      28.217  16.476   6.080  0.00  0.00     0.070 C 
ATOM     20  HN  UNK N   1      30.875  16.493   5.564  1.00  0.00     0.166 HD
BRANCH  16  21
HETATM   21  C   UNK N   1      28.111  17.619   9.093  0.00  0.00     0.185 C 
HETATM   22  O   UNK N   1      28.052  16.778   9.968  0.00  0.00    -0.646 OA
BRANCH  21  23
HETATM   23  O   UNK N   1      27.294  18.692   9.132  0.00  0.00    -0.772 OA
HETATM   24  H   UNK N   1      26.366  18.593   9.065  0.00  0.00     0.167 HD
ENDBRANCH  21  23
ENDBRANCH  16  21
ENDBRANCH   3  14
TORSDOF 6
ENDMDL
MODEL 4
REMARK VINA RESULT:      -6.0     13.219     16.066
REMARK  6 active torsions:
REMARK  status: ('A' for Active; 'I' for Inactive)
REMARK    1  A    between atoms: O_2  and  C_9 
REMARK    2  A    between atoms: O_2  and  C_12 
REMARK    3  A    between atoms: O_3  and  C_23 
REMARK    4  A    between atoms: C_8  and  C_9 
REMARK    5  A    between atoms: C_13  and  C_18 
REMARK    6  A    between atoms: C_20  and  C_23 
ROOT
HETATM    1  N   UNK N   1      34.913  10.406  11.324  0.00  0.00    -0.191 NA
HETATM    2  C   UNK N   1      35.150  13.871  12.230  0.00  0.00     0.089 C 
HETATM    3  C   UNK N   1      35.153  14.837   9.747  0.00  0.00    -0.001 C 
HETATM    4  C   UNK N   1      35.160  12.972  11.151  0.00  0.00     0.078 C 
HETATM    5  C   UNK N   1      35.449  15.230  12.027  0.00  0.00     0.039 C 
HETATM    6  C   UNK N   1      35.188  13.470   9.893  0.00  0.00     0.039 C 
HETATM    7  C   UNK N   1      35.478  15.713  10.757  0.00  0.00     0.017 C 
HETATM    8  C   UNK N   1      35.024  11.555  11.282  0.00  0.00     0.102 C 
ENDROOT
BRANCH   2   9
HETATM    9  O   UNK N   1      34.822  13.443  13.445  0.00  0.00    -0.349 OA
BRANCH   9  10
HETATM   10  C   UNK N   1      35.686  13.552  14.493  0.00  0.00     0.179 C 
BRANCH  10  11
HETATM   11  C   UNK N   1      35.271  12.474  15.458  0.00  0.00     0.002 C 
HETATM   12  C   UNK N   1      34.869  13.115  16.756  0.00  0.00     0.011 C 
HETATM   13  C   UNK N   1      34.088  11.713  14.874  0.00  0.00     0.011 C 
ENDBRANCH  10  11
ENDBRANCH   9  10
ENDBRANCH   2   9
BRANCH   3  14
HETATM   14  C   UNK N   1      34.088  15.283   8.946  0.00  0.00     0.085 C 
HETATM   15  S   UNK N   1      34.099  15.202   7.331  0.00  0.00    -0.063 SA
HETATM   16  C   UNK N   1      33.046  16.397   7.105  0.00  0.00     0.102 C 
HETATM   17  C   UNK N   1      32.535  16.757   8.371  0.00  0.00     0.030 C 
HETATM   18  N   UNK N   1      33.126  16.105   9.399  0.00  0.00    -0.352 N 
HETATM   19  C   UNK N   1      31.668  17.921   8.656  0.00  0.00     0.070 C 
ATOM     20  HN  UNK N   1      32.877  16.222  10.383  1.00  0.00     0.166 HD
BRANCH  16  21
HETATM   21  C   UNK N   1      33.010  17.090   5.845  0.00  0.00     0.185 C 
HETATM   22  O   UNK N   1      32.006  17.067   5.162  0.00  0.00    -0.646 OA
BRANCH  21  23
HETATM   23  O   UNK N   1      34.004  17.955   5.554  0.00  0.00    -0.772 OA
HETATM   24  H   UNK N   1      34.523  18.338   6.234  0.00  0.00     0.167 HD
ENDBRANCH  21  23
ENDBRANCH  16  21
ENDBRANCH   3  14
TORSDOF 6
ENDMDL
MODEL 5
REMARK VINA RESULT:      -6.0     10.312     13.209
REMARK  6 active torsions:
REMARK  status: ('A' for Active; 'I' for Inactive)
REMARK    1  A    between atoms: O_2  and  C_9 
REMARK    2  A    between atoms: O_2  and  C_12 
REMARK    3  A    between atoms: O_3  and  C_23 
REMARK    4  A    between atoms: C_8  and  C_9 
REMARK    5  A    between atoms: C_13  and  C_18 
REMARK    6  A    between atoms: C_20  and  C_23 
ROOT
HETATM    1  N   UNK N   1      29.087  17.741   9.580  0.00  0.00    -0.191 NA
HETATM    2  C   UNK N   1      31.107  17.102   6.682  0.00  0.00     0.089 C 
HETATM    3  C   UNK N   1      33.446  17.720   7.797  0.00  0.00    -0.001 C 
HETATM    4  C   UNK N   1      31.123  17.599   7.995  0.00  0.00     0.078 C 
HETATM    5  C   UNK N   1      32.243  17.219   5.863  0.00  0.00     0.039 C 
HETATM    6  C   UNK N   1      32.313  17.935   8.546  0.00  0.00     0.039 C 
HETATM    7  C   UNK N   1      33.430  17.563   6.430  0.00  0.00     0.017 C 
HETATM    8  C   UNK N   1      29.976  17.667   8.846  0.00  0.00     0.102 C 
ENDROOT
BRANCH   2   9
HETATM    9  O   UNK N   1      30.023  16.487   6.221  0.00  0.00    -0.349 OA
BRANCH   9  10
HETATM   10  C   UNK N   1      29.424  16.877   5.061  0.00  0.00     0.179 C 
BRANCH  10  11
HETATM   11  C   UNK N   1      28.410  17.912   5.470  0.00  0.00     0.002 C 
HETATM   12  C   UNK N   1      27.829  18.535   4.233  0.00  0.00     0.011 C 
HETATM   13  C   UNK N   1      27.305  17.236   6.271  0.00  0.00     0.011 C 
ENDBRANCH  10  11
ENDBRANCH   9  10
ENDBRANCH   2   9
BRANCH   3  14
HETATM   14  C   UNK N   1      34.390  16.901   8.439  0.00  0.00     0.085 C 
HETATM   15  S   UNK N   1      34.682  15.372   8.001  0.00  0.00    -0.063 SA
HETATM   16  C   UNK N   1      35.243  14.901   9.433  0.00  0.00     0.102 C 
HETATM   17  C   UNK N   1      35.364  16.052  10.241  0.00  0.00     0.030 C 
HETATM   18  N   UNK N   1      34.891  17.177   9.656  0.00  0.00    -0.352 N 
HETATM   19  C   UNK N   1      35.681  16.067  11.686  0.00  0.00     0.070 C 
ATOM     20  HN  UNK N   1      34.910  18.106  10.080  1.00  0.00     0.166 HD
BRANCH  16  21
HETATM   21  C   UNK N   1      35.232  13.505   9.781  0.00  0.00     0.185 C 
HETATM   22  O   UNK N   1      36.238  12.836   9.654  0.00  0.00    -0.646 OA
BRANCH  21  23
HETATM   23  O   UNK N   1      34.179  13.018  10.471  0.00  0.00    -0.772 OA
HETATM   24  H   UNK N   1      34.155  13.062  11.406  0.00  0.00     0.167 HD
ENDBRANCH  21  23
ENDBRANCH  16  21
ENDBRANCH   3  14
TORSDOF 6
ENDMDL
MODEL 6
REMARK VINA RESULT:      -6.0     11.730     13.250
REMARK  6 active torsions:
REMARK  status: ('A' for Active; 'I' for Inactive)
REMARK    1  A    between atoms: O_2  and  C_9 
REMARK    2  A    between atoms: O_2  and  C_12 
REMARK    3  A    between atoms: O_3  and  C_23 
REMARK    4  A    between atoms: C_8  and  C_9 
REMARK    5  A    between atoms: C_13  and  C_18 
REMARK    6  A    between atoms: C_20  and  C_23 
ROOT
HETATM    1  N   UNK N   1      28.515  28.490  -7.884  0.00  0.00    -0.191 NA
HETATM    2  C   UNK N   1      26.045  27.009  -5.741  0.00  0.00     0.089 C 
HETATM    3  C   UNK N   1      26.833  24.485  -6.065  0.00  0.00    -0.001 C 
HETATM    4  C   UNK N   1      27.080  26.732  -6.648  0.00  0.00     0.078 C 
HETATM    5  C   UNK N   1      25.232  25.973  -5.250  0.00  0.00     0.039 C 
HETATM    6  C   UNK N   1      27.458  25.444  -6.826  0.00  0.00     0.039 C 
HETATM    7  C   UNK N   1      25.622  24.685  -5.442  0.00  0.00     0.017 C 
HETATM    8  C   UNK N   1      27.854  27.729  -7.318  0.00  0.00     0.102 C 
ENDROOT
BRANCH   2   9
HETATM    9  O   UNK N   1      25.853  28.254  -5.316  0.00  0.00    -0.349 OA
BRANCH   9  10
HETATM   10  C   UNK N   1      25.686  28.536  -3.994  0.00  0.00     0.179 C 
BRANCH  10  11
HETATM   11  C   UNK N   1      26.882  29.366  -3.614  0.00  0.00     0.002 C 
HETATM   12  C   UNK N   1      28.043  28.449  -3.348  0.00  0.00     0.011 C 
HETATM   13  C   UNK N   1      27.222  30.303  -4.765  0.00  0.00     0.011 C 
ENDBRANCH  10  11
ENDBRANCH   9  10
ENDBRANCH   2   9
BRANCH   3  14
HETATM   14  C   UNK N   1      27.725  23.709  -5.307  0.00  0.00     0.085 C 
HETATM   15  S   UNK N   1      28.076  24.018  -3.758  0.00  0.00    -0.063 SA
HETATM   16  C   UNK N   1      29.510  23.290  -3.772  0.00  0.00     0.102 C 
HETATM   17  C   UNK N   1      29.637  22.624  -5.010  0.00  0.00     0.030 C 
HETATM   18  N   UNK N   1      28.609  22.861  -5.860  0.00  0.00    -0.352 N 
HETATM   19  C   UNK N   1      30.860  21.969  -5.520  0.00  0.00     0.070 C 
ATOM     20  HN  UNK N   1      28.519  22.453  -6.792  1.00  0.00     0.166 HD
BRANCH  16  21
HETATM   21  C   UNK N   1      30.499  23.640  -2.788  0.00  0.00     0.185 C 
HETATM   22  O   UNK N   1      31.056  24.719  -2.837  0.00  0.00    -0.646 OA
BRANCH  21  23
HETATM   23  O   UNK N   1      30.618  22.869  -1.687  0.00  0.00    -0.772 OA
HETATM   24  H   UNK N   1      29.870  22.454  -1.307  0.00  0.00     0.167 HD
ENDBRANCH  21  23
ENDBRANCH  16  21
ENDBRANCH   3  14
TORSDOF 6
ENDMDL
MODEL 7
REMARK VINA RESULT:      -6.0      4.822      7.551
REMARK  6 active torsions:
REMARK  status: ('A' for Active; 'I' for Inactive)
REMARK    1  A    between atoms: O_2  and  C_9 
REMARK    2  A    between atoms: O_2  and  C_12 
REMARK    3  A    between atoms: O_3  and  C_23 
REMARK    4  A    between atoms: C_8  and  C_9 
REMARK    5  A    between atoms: C_13  and  C_18 
REMARK    6  A    between atoms: C_20  and  C_23 
ROOT
HETATM    1  N   UNK N   1      19.675  14.424   5.909  0.00  0.00    -0.191 NA
HETATM    2  C   UNK N   1      23.074  14.597   7.050  0.00  0.00     0.089 C 
HETATM    3  C   UNK N   1      23.981  16.139   5.076  0.00  0.00    -0.001 C 
HETATM    4  C   UNK N   1      22.205  14.938   6.001  0.00  0.00     0.078 C 
HETATM    5  C   UNK N   1      24.460  14.791   6.919  0.00  0.00     0.039 C 
HETATM    6  C   UNK N   1      22.680  15.700   4.989  0.00  0.00     0.039 C 
HETATM    7  C   UNK N   1      24.921  15.555   5.893  0.00  0.00     0.017 C 
HETATM    8  C   UNK N   1      20.808  14.635   5.980  0.00  0.00     0.102 C 
ENDROOT
BRANCH   2   9
HETATM    9  O   UNK N   1      22.581  14.119   8.188  0.00  0.00    -0.349 OA
BRANCH   9  10
HETATM   10  C   UNK N   1      22.834  12.843   8.592  0.00  0.00     0.179 C 
BRANCH  10  11
HETATM   11  C   UNK N   1      23.263  12.962  10.030  0.00  0.00     0.002 C 
HETATM   12  C   UNK N   1      22.522  11.938  10.842  0.00  0.00     0.011 C 
HETATM   13  C   UNK N   1      24.762  12.705  10.124  0.00  0.00     0.011 C 
ENDBRANCH  10  11
ENDBRANCH   9  10
ENDBRANCH   2   9
BRANCH   3  14
HETATM   14  C   UNK N   1      24.103  17.536   4.999  0.00  0.00     0.085 C 
HETATM   15  S   UNK N   1      23.112  18.467   4.123  0.00  0.00    -0.063 SA
HETATM   16  C   UNK N   1      24.153  19.679   3.938  0.00  0.00     0.102 C 
HETATM   17  C   UNK N   1      25.272  19.404   4.755  0.00  0.00     0.030 C 
HETATM   18  N   UNK N   1      25.218  18.194   5.359  0.00  0.00    -0.352 N 
HETATM   19  C   UNK N   1      26.542  20.163   4.768  0.00  0.00     0.070 C 
ATOM     20  HN  UNK N   1      25.927  17.831   5.998  1.00  0.00     0.166 HD
BRANCH  16  21
HETATM   21  C   UNK N   1      23.989  20.604   2.849  0.00  0.00     0.185 C 
HETATM   22  O   UNK N   1      23.123  21.454   2.895  0.00  0.00    -0.646 OA
BRANCH  21  23
HETATM   23  O   UNK N   1      24.951  20.670   1.906  0.00  0.00    -0.772 OA
HETATM   24  H   UNK N   1      25.259  19.896   1.478  0.00  0.00     0.167 HD
ENDBRANCH  21  23
ENDBRANCH  16  21
ENDBRANCH   3  14
TORSDOF 6
ENDMDL
MODEL 8
REMARK VINA RESULT:      -5.9      5.151      7.994
REMARK  6 active torsions:
REMARK  status: ('A' for Active; 'I' for Inactive)
REMARK    1  A    between atoms: O_2  and  C_9 
REMARK    2  A    between atoms: O_2  and  C_12 
REMARK    3  A    between atoms: O_3  and  C_23 
REMARK    4  A    between atoms: C_8  and  C_9 
REMARK    5  A    between atoms: C_13  and  C_18 
REMARK    6  A    between atoms: C_20  and  C_23 
ROOT
HETATM    1  N   UNK N   1      25.189  20.957   2.184  0.00  0.00    -0.191 NA
HETATM    2  C   UNK N   1      24.490  18.145   4.303  0.00  0.00     0.089 C 
HETATM    3  C   UNK N   1      27.025  17.450   4.735  0.00  0.00    -0.001 C 
HETATM    4  C   UNK N   1      25.509  18.843   3.634  0.00  0.00     0.078 C 
HETATM    5  C   UNK N   1      24.763  16.919   4.934  0.00  0.00     0.039 C 
HETATM    6  C   UNK N   1      26.793  18.468   3.840  0.00  0.00     0.039 C 
HETATM    7  C   UNK N   1      26.058  16.554   5.128  0.00  0.00     0.017 C 
HETATM    8  C   UNK N   1      25.297  20.009   2.836  0.00  0.00     0.102 C 
ENDROOT
BRANCH   2   9
HETATM    9  O   UNK N   1      23.267  18.662   4.368  0.00  0.00    -0.349 OA
BRANCH   9  10
HETATM   10  C   UNK N   1      22.195  18.020   3.825  0.00  0.00     0.179 C 
BRANCH  10  11
HETATM   11  C   UNK N   1      21.133  19.078   3.685  0.00  0.00     0.002 C 
HETATM   12  C   UNK N   1      21.665  20.187   2.823  0.00  0.00     0.011 C 
HETATM   13  C   UNK N   1      19.903  18.463   3.028  0.00  0.00     0.011 C 
ENDBRANCH  10  11
ENDBRANCH   9  10
ENDBRANCH   2   9
BRANCH   3  14
HETATM   14  C   UNK N   1      27.901  17.812   5.773  0.00  0.00     0.085 C 
HETATM   15  S   UNK N   1      29.492  17.530   5.730  0.00  0.00    -0.063 SA
HETATM   16  C   UNK N   1      29.697  17.530   7.326  0.00  0.00     0.102 C 
HETATM   17  C   UNK N   1      28.480  17.945   7.909  0.00  0.00     0.030 C 
HETATM   18  N   UNK N   1      27.479  18.114   7.013  0.00  0.00    -0.352 N 
HETATM   19  C   UNK N   1      28.162  17.928   9.354  0.00  0.00     0.070 C 
ATOM     20  HN  UNK N   1      26.536  18.427   7.247  1.00  0.00     0.166 HD
BRANCH  16  21
HETATM   21  C   UNK N   1      30.838  16.870   7.901  0.00  0.00     0.185 C 
HETATM   22  O   UNK N   1      31.285  15.863   7.389  0.00  0.00    -0.646 OA
BRANCH  21  23
HETATM   23  O   UNK N   1      31.543  17.511   8.857  0.00  0.00    -0.772 OA
HETATM   24  H   UNK N   1      31.146  18.178   9.381  0.00  0.00     0.167 HD
ENDBRANCH  21  23
ENDBRANCH  16  21
ENDBRANCH   3  14
TORSDOF 6
ENDMDL
MODEL 9
REMARK VINA RESULT:      -5.9      4.065      6.544
REMARK  6 active torsions:
REMARK  status: ('A' for Active; 'I' for Inactive)
REMARK    1  A    between atoms: O_2  and  C_9 
REMARK    2  A    between atoms: O_2  and  C_12 
REMARK    3  A    between atoms: O_3  and  C_23 
REMARK    4  A    between atoms: C_8  and  C_9 
REMARK    5  A    between atoms: C_13  and  C_18 
REMARK    6  A    between atoms: C_20  and  C_23 
ROOT
HETATM    1  N   UNK N   1      19.362  15.888   8.602  0.00  0.00    -0.191 NA
HETATM    2  C   UNK N   1      21.918  15.286   6.154  0.00  0.00     0.089 C 
HETATM    3  C   UNK N   1      20.821  16.732   4.204  0.00  0.00    -0.001 C 
HETATM    4  C   UNK N   1      20.656  15.865   6.365  0.00  0.00     0.078 C 
HETATM    5  C   UNK N   1      22.453  15.200   4.857  0.00  0.00     0.039 C 
HETATM    6  C   UNK N   1      20.094  16.577   5.361  0.00  0.00     0.039 C 
HETATM    7  C   UNK N   1      21.874  15.916   3.858  0.00  0.00     0.017 C 
HETATM    8  C   UNK N   1      19.965  15.857   7.616  0.00  0.00     0.102 C 
ENDROOT
BRANCH   2   9
HETATM    9  O   UNK N   1      22.626  14.847   7.189  0.00  0.00    -0.349 OA
BRANCH   9  10
HETATM   10  C   UNK N   1      23.642  13.953   7.028  0.00  0.00     0.179 C 
BRANCH  10  11
HETATM   11  C   UNK N   1      23.657  13.141   8.296  0.00  0.00     0.002 C 
HETATM   12  C   UNK N   1      22.543  13.614   9.186  0.00  0.00     0.011 C 
HETATM   13  C   UNK N   1      23.448  11.673   7.949  0.00  0.00     0.011 C 
ENDBRANCH  10  11
ENDBRANCH   9  10
ENDBRANCH   2   9
BRANCH   3  14
HETATM   14  C   UNK N   1      21.021  18.077   3.850  0.00  0.00     0.085 C 
HETATM   15  S   UNK N   1      20.036  18.888   2.856  0.00  0.00    -0.063 SA
HETATM   16  C   UNK N   1      21.135  19.967   2.389  0.00  0.00     0.102 C 
HETATM   17  C   UNK N   1      22.282  19.777   3.190  0.00  0.00     0.030 C 
HETATM   18  N   UNK N   1      22.193  18.712   4.021  0.00  0.00    -0.352 N 
HETATM   19  C   UNK N   1      23.593  20.434   2.995  0.00  0.00     0.070 C 
ATOM     20  HN  UNK N   1      22.916  18.430   4.685  1.00  0.00     0.166 HD
BRANCH  16  21
HETATM   21  C   UNK N   1      20.961  20.675   1.149  0.00  0.00     0.185 C 
HETATM   22  O   UNK N   1      20.861  20.063   0.105  0.00  0.00    -0.646 OA
BRANCH  21  23
HETATM   23  O   UNK N   1      20.668  21.992   1.192  0.00  0.00    -0.772 OA
HETATM   24  H   UNK N   1      20.273  22.372   1.951  0.00  0.00     0.167 HD
ENDBRANCH  21  23
ENDBRANCH  16  21
ENDBRANCH   3  14
TORSDOF 6
ENDMDL
