MODEL 1
REMARK VINA RESULT:      -5.8      0.000      0.000
REMARK  3 active torsions:
REMARK  status: ('A' for Active; 'I' for Inactive)
REMARK    1  A    between atoms: O_3  and  C_7 
REMARK    2  A    between atoms: O_3  and  C_12 
REMARK    3  A    between atoms: C_7  and  C_8 
ROOT
HETATM    1  O   UNK N   1      34.805  13.186  14.810  0.00  0.00    -0.335 OA
ENDROOT
BRANCH   1   2
HETATM    2  C   UNK N   1      35.949  13.680  14.214  0.00  0.00     0.191 C 
HETATM    3  C   UNK N   1      36.975  12.570  14.021  0.00  0.00     0.048 C 
BRANCH   2   4
HETATM    4  C   UNK N   1      35.618  14.282  12.883  0.00  0.00     0.102 A 
HETATM    5  N   UNK N   1      34.626  13.776  12.050  0.00  0.00    -0.376 N 
HETATM    6  C   UNK N   1      34.557  14.595  10.869  0.00  0.00     0.140 A 
HETATM    7  H   UNK N   1      34.064  12.989  12.236  0.00  0.00     0.160 HD
HETATM    8  C   UNK N   1      35.658  15.658  11.117  0.00  0.00     0.140 A 
HETATM    9  N   UNK N   1      36.200  15.305  12.411  0.00  0.00    -0.376 N 
ATOM     10  HN  UNK N   1      36.950  15.811  12.881  1.00  0.00     0.160 HD
ENDBRANCH   2   4
ENDBRANCH   1   2
BRANCH   1  11
HETATM   11  C   UNK N   1      34.851  12.223  15.760  0.00  0.00     0.113 A 
HETATM   12  C   UNK N   1      34.502  10.901  15.431  0.00  0.00     0.069 A 
HETATM   13 Cl   UNK N   1      34.008  10.479  13.800  0.00  0.00    -0.081 Cl
HETATM   14  C   UNK N   1      34.551   9.900  16.405  0.00  0.00     0.027 A 
HETATM   15  C   UNK N   1      34.938  10.208  17.711  0.00  0.00     0.003 A 
HETATM   16  C   UNK N   1      35.273  11.520  18.049  0.00  0.00     0.027 A 
HETATM   17  C   UNK N   1      35.234  12.529  17.081  0.00  0.00     0.069 A 
HETATM   18 Cl   UNK N   1      35.644  14.171  17.550  0.00  0.00    -0.081 Cl
ENDBRANCH   1  11
TORSDOF 3
ENDMDL
MODEL 2
REMARK VINA RESULT:      -5.8      0.189      2.302
REMARK  3 active torsions:
REMARK  status: ('A' for Active; 'I' for Inactive)
REMARK    1  A    between atoms: O_3  and  C_7 
REMARK    2  A    between atoms: O_3  and  C_12 
REMARK    3  A    between atoms: C_7  and  C_8 
ROOT
HETATM    1  O   UNK N   1      34.814  13.184  14.989  0.00  0.00    -0.335 OA
ENDROOT
BRANCH   1   2
HETATM    2  C   UNK N   1      35.960  13.669  14.390  0.00  0.00     0.191 C 
HETATM    3  C   UNK N   1      37.009  12.571  14.272  0.00  0.00     0.048 C 
BRANCH   2   4
HETATM    4  C   UNK N   1      35.643  14.196  13.024  0.00  0.00     0.102 A 
HETATM    5  N   UNK N   1      34.688  13.621  12.194  0.00  0.00    -0.376 N 
HETATM    6  C   UNK N   1      34.623  14.381  10.974  0.00  0.00     0.140 A 
HETATM    7  H   UNK N   1      34.145  12.827  12.406  0.00  0.00     0.160 HD
HETATM    8  C   UNK N   1      35.685  15.488  11.196  0.00  0.00     0.140 A 
HETATM    9  N   UNK N   1      36.206  15.214  12.516  0.00  0.00    -0.376 N 
ATOM     10  HN  UNK N   1      36.929  15.765  12.979  1.00  0.00     0.160 HD
ENDBRANCH   2   4
ENDBRANCH   1   2
BRANCH   1  11
HETATM   11  C   UNK N   1      34.854  12.208  15.926  0.00  0.00     0.113 A 
HETATM   12  C   UNK N   1      35.207  12.525  17.250  0.00  0.00     0.069 A 
HETATM   13 Cl   UNK N   1      35.594  14.176  17.707  0.00  0.00    -0.081 Cl
HETATM   14  C   UNK N   1      35.247  11.524  18.224  0.00  0.00     0.027 A 
HETATM   15  C   UNK N   1      34.947  10.203  17.887  0.00  0.00     0.003 A 
HETATM   16  C   UNK N   1      34.609   9.877  16.573  0.00  0.00     0.027 A 
HETATM   17  C   UNK N   1      34.559  10.872  15.590  0.00  0.00     0.069 A 
HETATM   18 Cl   UNK N   1      34.148  10.418  13.944  0.00  0.00    -0.081 Cl
ENDBRANCH   1  11
TORSDOF 3
ENDMDL
MODEL 3
REMARK VINA RESULT:      -5.5      6.177      9.668
REMARK  3 active torsions:
REMARK  status: ('A' for Active; 'I' for Inactive)
REMARK    1  A    between atoms: O_3  and  C_7 
REMARK    2  A    between atoms: O_3  and  C_12 
REMARK    3  A    between atoms: C_7  and  C_8 
ROOT
HETATM    1  O   UNK N   1      31.526  16.571   8.699  0.00  0.00    -0.335 OA
ENDROOT
BRANCH   1   2
HETATM    2  C   UNK N   1      32.853  16.787   8.382  0.00  0.00     0.191 C 
HETATM    3  C   UNK N   1      33.096  18.257   8.064  0.00  0.00     0.048 C 
BRANCH   2   4
HETATM    4  C   UNK N   1      33.729  16.380   9.527  0.00  0.00     0.102 A 
HETATM    5  N   UNK N   1      33.570  15.181  10.212  0.00  0.00    -0.376 N 
HETATM    6  C   UNK N   1      34.581  15.098  11.233  0.00  0.00     0.140 A 
HETATM    7  H   UNK N   1      32.881  14.502  10.030  0.00  0.00     0.160 HD
HETATM    8  C   UNK N   1      35.361  16.426  11.059  0.00  0.00     0.140 A 
HETATM    9  N   UNK N   1      34.694  17.084   9.958  0.00  0.00    -0.376 N 
ATOM     10  HN  UNK N   1      34.961  17.991   9.577  1.00  0.00     0.160 HD
ENDBRANCH   2   4
ENDBRANCH   1   2
BRANCH   1  11
HETATM   11  C   UNK N   1      30.522  16.951   7.874  0.00  0.00     0.113 A 
HETATM   12  C   UNK N   1      29.664  17.998   8.255  0.00  0.00     0.069 A 
HETATM   13 Cl   UNK N   1      29.879  18.824   9.790  0.00  0.00    -0.081 Cl
HETATM   14  C   UNK N   1      28.628  18.399   7.408  0.00  0.00     0.027 A 
HETATM   15  C   UNK N   1      28.433  17.757   6.184  0.00  0.00     0.003 A 
HETATM   16  C   UNK N   1      29.271  16.708   5.803  0.00  0.00     0.027 A 
HETATM   17  C   UNK N   1      30.316  16.302   6.641  0.00  0.00     0.069 A 
HETATM   18 Cl   UNK N   1      31.337  14.965   6.135  0.00  0.00    -0.081 Cl
ENDBRANCH   1  11
TORSDOF 3
ENDMDL
MODEL 4
REMARK VINA RESULT:      -5.5      6.192      9.490
REMARK  3 active torsions:
REMARK  status: ('A' for Active; 'I' for Inactive)
REMARK    1  A    between atoms: O_3  and  C_7 
REMARK    2  A    between atoms: O_3  and  C_12 
REMARK    3  A    between atoms: C_7  and  C_8 
ROOT
HETATM    1  O   UNK N   1      31.481  16.488   8.672  0.00  0.00    -0.335 OA
ENDROOT
BRANCH   1   2
HETATM    2  C   UNK N   1      32.805  16.734   8.366  0.00  0.00     0.191 C 
HETATM    3  C   UNK N   1      33.025  18.216   8.090  0.00  0.00     0.048 C 
BRANCH   2   4
HETATM    4  C   UNK N   1      33.683  16.310   9.504  0.00  0.00     0.102 A 
HETATM    5  N   UNK N   1      34.716  17.098   9.997  0.00  0.00    -0.376 N 
HETATM    6  C   UNK N   1      35.340  16.405  11.093  0.00  0.00     0.140 A 
HETATM    7  H   UNK N   1      34.977  17.984   9.655  0.00  0.00     0.160 HD
HETATM    8  C   UNK N   1      34.532  15.084  11.174  0.00  0.00     0.140 A 
HETATM    9  N   UNK N   1      33.551  15.207  10.119  0.00  0.00    -0.376 N 
ATOM     10  HN  UNK N   1      32.847  14.504   9.897  1.00  0.00     0.160 HD
ENDBRANCH   2   4
ENDBRANCH   1   2
BRANCH   1  11
HETATM   11  C   UNK N   1      30.472  16.913   7.876  0.00  0.00     0.113 A 
HETATM   12  C   UNK N   1      30.263  16.301   6.627  0.00  0.00     0.069 A 
HETATM   13 Cl   UNK N   1      31.292  14.986   6.085  0.00  0.00    -0.081 Cl
HETATM   14  C   UNK N   1      29.221  16.732   5.801  0.00  0.00     0.027 A 
HETATM   15  C   UNK N   1      28.389  17.777   6.206  0.00  0.00     0.003 A 
HETATM   16  C   UNK N   1      28.598  18.399   7.438  0.00  0.00     0.027 A 
HETATM   17  C   UNK N   1      29.633  17.973   8.276  0.00  0.00     0.069 A 
HETATM   18 Cl   UNK N   1      29.876  18.794   9.809  0.00  0.00    -0.081 Cl
ENDBRANCH   1  11
TORSDOF 3
ENDMDL
MODEL 5
REMARK VINA RESULT:      -5.4      1.470      2.946
REMARK  3 active torsions:
REMARK  status: ('A' for Active; 'I' for Inactive)
REMARK    1  A    between atoms: O_3  and  C_7 
REMARK    2  A    between atoms: O_3  and  C_12 
REMARK    3  A    between atoms: C_7  and  C_8 
ROOT
HETATM    1  O   UNK N   1      35.233  12.318  15.952  0.00  0.00    -0.335 OA
ENDROOT
BRANCH   1   2
HETATM    2  C   UNK N   1      36.377  12.777  15.328  0.00  0.00     0.191 C 
HETATM    3  C   UNK N   1      37.299  11.616  14.976  0.00  0.00     0.048 C 
BRANCH   2   4
HETATM    4  C   UNK N   1      36.019  13.518  14.076  0.00  0.00     0.102 A 
HETATM    5  N   UNK N   1      36.637  14.704  13.697  0.00  0.00    -0.376 N 
HETATM    6  C   UNK N   1      36.073  15.135  12.445  0.00  0.00     0.140 A 
HETATM    7  H   UNK N   1      37.342  15.172  14.200  0.00  0.00     0.160 HD
HETATM    8  C   UNK N   1      35.024  14.035  12.139  0.00  0.00     0.140 A 
HETATM    9  N   UNK N   1      35.138  13.122  13.254  0.00  0.00    -0.376 N 
ATOM     10  HN  UNK N   1      34.584  12.273  13.365  1.00  0.00     0.160 HD
ENDBRANCH   2   4
ENDBRANCH   1   2
BRANCH   1  11
HETATM   11  C   UNK N   1      35.224  11.963  17.258  0.00  0.00     0.113 A 
HETATM   12  C   UNK N   1      35.329  12.953  18.251  0.00  0.00     0.069 A 
HETATM   13 Cl   UNK N   1      35.470  14.649  17.819  0.00  0.00    -0.081 Cl
HETATM   14  C   UNK N   1      35.316  12.596  19.601  0.00  0.00     0.027 A 
HETATM   15  C   UNK N   1      35.208  11.255  19.973  0.00  0.00     0.003 A 
HETATM   16  C   UNK N   1      35.116  10.264  18.994  0.00  0.00     0.027 A 
HETATM   17  C   UNK N   1      35.122  10.610  17.638  0.00  0.00     0.069 A 
HETATM   18 Cl   UNK N   1      35.024   9.333  16.437  0.00  0.00    -0.081 Cl
ENDBRANCH   1  11
TORSDOF 3
ENDMDL
MODEL 6
REMARK VINA RESULT:      -5.2      6.832     10.439
REMARK  3 active torsions:
REMARK  status: ('A' for Active; 'I' for Inactive)
REMARK    1  A    between atoms: O_3  and  C_7 
REMARK    2  A    between atoms: O_3  and  C_12 
REMARK    3  A    between atoms: C_7  and  C_8 
ROOT
HETATM    1  O   UNK N   1      32.076  16.430   7.118  0.00  0.00    -0.335 OA
ENDROOT
BRANCH   1   2
HETATM    2  C   UNK N   1      32.535  17.424   7.960  0.00  0.00     0.191 C 
HETATM    3  C   UNK N   1      31.373  18.091   8.686  0.00  0.00     0.048 C 
BRANCH   2   4
HETATM    4  C   UNK N   1      33.480  16.848   8.969  0.00  0.00     0.102 A 
HETATM    5  N   UNK N   1      34.667  17.473   9.338  0.00  0.00    -0.376 N 
HETATM    6  C   UNK N   1      35.320  16.666  10.334  0.00  0.00     0.140 A 
HETATM    7  H   UNK N   1      35.004  18.325   8.978  0.00  0.00     0.160 HD
HETATM    8  C   UNK N   1      34.352  15.466  10.500  0.00  0.00     0.140 A 
HETATM    9  N   UNK N   1      33.274  15.755   9.581  0.00  0.00    -0.376 N 
ATOM     10  HN  UNK N   1      32.457  15.161   9.441  1.00  0.00     0.160 HD
ENDBRANCH   2   4
ENDBRANCH   1   2
BRANCH   1  11
HETATM   11  C   UNK N   1      32.146  16.545   5.771  0.00  0.00     0.113 A 
HETATM   12  C   UNK N   1      31.021  16.979   5.048  0.00  0.00     0.069 A 
HETATM   13 Cl   UNK N   1      29.522  17.378   5.871  0.00  0.00    -0.081 Cl
HETATM   14  C   UNK N   1      31.085  17.105   3.658  0.00  0.00     0.027 A 
HETATM   15  C   UNK N   1      32.263  16.791   2.978  0.00  0.00     0.003 A 
HETATM   16  C   UNK N   1      33.382  16.347   3.686  0.00  0.00     0.027 A 
HETATM   17  C   UNK N   1      33.331  16.224   5.079  0.00  0.00     0.069 A 
HETATM   18 Cl   UNK N   1      34.752  15.643   5.931  0.00  0.00    -0.081 Cl
ENDBRANCH   1  11
TORSDOF 3
ENDMDL
MODEL 7
REMARK VINA RESULT:      -5.1     16.241     18.501
REMARK  3 active torsions:
REMARK  status: ('A' for Active; 'I' for Inactive)
REMARK    1  A    between atoms: O_3  and  C_7 
REMARK    2  A    between atoms: O_3  and  C_12 
REMARK    3  A    between atoms: C_7  and  C_8 
ROOT
HETATM    1  O   UNK N   1      43.310  23.393   2.259  0.00  0.00    -0.335 OA
ENDROOT
BRANCH   1   2
HETATM    2  C   UNK N   1      44.412  23.194   1.451  0.00  0.00     0.191 C 
HETATM    3  C   UNK N   1      43.993  23.086  -0.010  0.00  0.00     0.048 C 
BRANCH   2   4
HETATM    4  C   UNK N   1      45.376  24.330   1.604  0.00  0.00     0.102 A 
HETATM    5  N   UNK N   1      46.501  24.481   0.801  0.00  0.00    -0.376 N 
HETATM    6  C   UNK N   1      47.192  25.679   1.200  0.00  0.00     0.140 A 
HETATM    7  H   UNK N   1      46.780  23.871   0.080  0.00  0.00     0.160 HD
HETATM    8  C   UNK N   1      46.316  26.215   2.362  0.00  0.00     0.140 A 
HETATM    9  N   UNK N   1      45.241  25.254   2.463  0.00  0.00    -0.376 N 
ATOM     10  HN  UNK N   1      44.476  25.310   3.135  1.00  0.00     0.160 HD
ENDBRANCH   2   4
ENDBRANCH   1   2
BRANCH   1  11
HETATM   11  C   UNK N   1      42.389  22.423   2.466  0.00  0.00     0.113 A 
HETATM   12  C   UNK N   1      42.730  21.287   3.221  0.00  0.00     0.069 A 
HETATM   13 Cl   UNK N   1      44.337  21.109   3.905  0.00  0.00    -0.081 Cl
HETATM   14  C   UNK N   1      41.784  20.283   3.443  0.00  0.00     0.027 A 
HETATM   15  C   UNK N   1      40.499  20.396   2.908  0.00  0.00     0.003 A 
HETATM   16  C   UNK N   1      40.156  21.515   2.146  0.00  0.00     0.027 A 
HETATM   17  C   UNK N   1      41.093  22.530   1.923  0.00  0.00     0.069 A 
HETATM   18 Cl   UNK N   1      40.630  23.911   0.943  0.00  0.00    -0.081 Cl
ENDBRANCH   1  11
TORSDOF 3
ENDMDL
MODEL 8
REMARK VINA RESULT:      -5.1     16.298     18.514
REMARK  3 active torsions:
REMARK  status: ('A' for Active; 'I' for Inactive)
REMARK    1  A    between atoms: O_3  and  C_7 
REMARK    2  A    between atoms: O_3  and  C_12 
REMARK    3  A    between atoms: C_7  and  C_8 
ROOT
HETATM    1  O   UNK N   1      43.268  23.492   2.190  0.00  0.00    -0.335 OA
ENDROOT
BRANCH   1   2
HETATM    2  C   UNK N   1      44.364  23.341   1.363  0.00  0.00     0.191 C 
HETATM    3  C   UNK N   1      43.937  23.331  -0.099  0.00  0.00     0.048 C 
BRANCH   2   4
HETATM    4  C   UNK N   1      45.334  24.461   1.584  0.00  0.00     0.102 A 
HETATM    5  N   UNK N   1      46.612  24.474   1.038  0.00  0.00    -0.376 N 
HETATM    6  C   UNK N   1      47.266  25.695   1.429  0.00  0.00     0.140 A 
HETATM    7  H   UNK N   1      47.005  23.767   0.476  0.00  0.00     0.160 HD
HETATM    8  C   UNK N   1      46.193  26.403   2.295  0.00  0.00     0.140 A 
HETATM    9  N   UNK N   1      45.069  25.494   2.273  0.00  0.00    -0.376 N 
ATOM     10  HN  UNK N   1      44.182  25.658   2.748  1.00  0.00     0.160 HD
ENDBRANCH   2   4
ENDBRANCH   1   2
BRANCH   1  11
HETATM   11  C   UNK N   1      42.413  22.472   2.438  0.00  0.00     0.113 A 
HETATM   12  C   UNK N   1      41.110  22.510   1.910  0.00  0.00     0.069 A 
HETATM   13 Cl   UNK N   1      40.576  23.863   0.927  0.00  0.00    -0.081 Cl
HETATM   14  C   UNK N   1      40.223  21.459   2.159  0.00  0.00     0.027 A 
HETATM   15  C   UNK N   1      40.621  20.372   2.940  0.00  0.00     0.003 A 
HETATM   16  C   UNK N   1      41.908  20.334   3.479  0.00  0.00     0.027 A 
HETATM   17  C   UNK N   1      42.807  21.376   3.231  0.00  0.00     0.069 A 
HETATM   18 Cl   UNK N   1      44.411  21.300   3.944  0.00  0.00    -0.081 Cl
ENDBRANCH   1  11
TORSDOF 3
ENDMDL
MODEL 9
REMARK VINA RESULT:      -5.0      6.363      9.928
REMARK  3 active torsions:
REMARK  status: ('A' for Active; 'I' for Inactive)
REMARK    1  A    between atoms: O_3  and  C_7 
REMARK    2  A    between atoms: O_3  and  C_12 
REMARK    3  A    between atoms: C_7  and  C_8 
ROOT
HETATM    1  O   UNK N   1      33.154  16.209   7.402  0.00  0.00    -0.335 OA
ENDROOT
BRANCH   1   2
HETATM    2  C   UNK N   1      34.221  16.886   7.960  0.00  0.00     0.191 C 
HETATM    3  C   UNK N   1      33.922  18.376   8.053  0.00  0.00     0.048 C 
BRANCH   2   4
HETATM    4  C   UNK N   1      34.507  16.355   9.332  0.00  0.00     0.102 A 
HETATM    5  N   UNK N   1      34.013  15.139   9.791  0.00  0.00    -0.376 N 
HETATM    6  C   UNK N   1      34.490  14.926  11.131  0.00  0.00     0.140 A 
HETATM    7  H   UNK N   1      33.434  14.525   9.283  0.00  0.00     0.160 HD
HETATM    8  C   UNK N   1      35.334  16.197  11.406  0.00  0.00     0.140 A 
HETATM    9  N   UNK N   1      35.231  16.959  10.182  0.00  0.00    -0.376 N 
ATOM     10  HN  UNK N   1      35.679  17.861  10.021  1.00  0.00     0.160 HD
ENDBRANCH   2   4
ENDBRANCH   1   2
BRANCH   1  11
HETATM   11  C   UNK N   1      32.748  16.437   6.131  0.00  0.00     0.113 A 
HETATM   12  C   UNK N   1      33.576  16.067   5.057  0.00  0.00     0.069 A 
HETATM   13 Cl   UNK N   1      35.134  15.308   5.341  0.00  0.00    -0.081 Cl
HETATM   14  C   UNK N   1      33.163  16.295   3.742  0.00  0.00     0.027 A 
HETATM   15  C   UNK N   1      31.930  16.900   3.487  0.00  0.00     0.003 A 
HETATM   16  C   UNK N   1      31.107  17.282   4.548  0.00  0.00     0.027 A 
HETATM   17  C   UNK N   1      31.508  17.053   5.869  0.00  0.00     0.069 A 
HETATM   18 Cl   UNK N   1      30.453  17.566   7.176  0.00  0.00    -0.081 Cl
ENDBRANCH   1  11
TORSDOF 3
ENDMDL
