MODEL 1
REMARK VINA RESULT:      -6.6      0.000      0.000
REMARK  11 active torsions:
REMARK  status: ('A' for Active; 'I' for Inactive)
REMARK    1  A    between atoms: C_1  and  O_4 
REMARK    2  A    between atoms: C_2  and  C_5 
REMARK    3  A    between atoms: O_4  and  C_7 
REMARK    4  A    between atoms: C_7  and  C_11 
REMARK    5  A    between atoms: C_8  and  N_12 
REMARK    6  A    between atoms: C_11  and  C_13 
REMARK    7  A    between atoms: C_11  and  O_14 
REMARK       I    between atoms: N_12  and  C_15 
REMARK    8  A    between atoms: C_13  and  N_16 
REMARK       I    between atoms: C_15  and  N_17 
REMARK    9  A    between atoms: N_16  and  C_19 
REMARK   10  A    between atoms: N_17  and  C_20 
REMARK   11  A    between atoms: N_17  and  C_23 
ROOT
HETATM    1  C   UNK N   1      27.991  19.459   6.690  0.00  0.00     0.082 A 
HETATM    2  C   UNK N   1      28.190  18.726   5.490  0.00  0.00     0.045 A 
HETATM    3  C   UNK N   1      27.092  20.533   6.705  0.00  0.00     0.040 A 
HETATM    4  C   UNK N   1      26.377  20.884   5.562  0.00  0.00     0.032 A 
HETATM    5  C   UNK N   1      26.580  20.187   4.375  0.00  0.00     0.037 A 
HETATM    6  C   UNK N   1      27.466  19.103   4.350  0.00  0.00     0.047 A 
ENDROOT
BRANCH   1   7
HETATM    7  O   UNK N   1      28.633  19.158   7.839  0.00  0.00    -0.348 OA
BRANCH   7   8
HETATM    8  C   UNK N   1      28.143  18.244   8.755  0.00  0.00     0.209 C 
BRANCH   8   9
HETATM    9  C   UNK N   1      29.230  17.723   9.701  0.00  0.00     0.159 C 
BRANCH   9  10
HETATM   10  C   UNK N   1      30.314  16.968   8.931  0.00  0.00     0.148 C 
BRANCH  10  11
HETATM   11  N   UNK N   1      31.614  17.646   8.963  0.00  0.00    -0.411 N 
HETATM   12  H   UNK N   1      31.755  18.537   9.440  0.00  0.00     0.154 HD
BRANCH  11  13
HETATM   13  C   UNK N   1      32.697  16.946   8.257  0.00  0.00     0.014 C 
HETATM   14  C   UNK N   1      33.358  17.930   7.316  0.00  0.00     0.037 C 
HETATM   15  C   UNK N   1      33.772  16.411   9.197  0.00  0.00     0.037 C 
HETATM   16  C   UNK N   1      32.133  15.817   7.415  0.00  0.00     0.037 C 
ENDBRANCH  11  13
ENDBRANCH  10  11
ENDBRANCH   9  10
BRANCH   9  17
HETATM   17  O   UNK N   1      29.797  18.792  10.396  0.00  0.00    -0.392 OA
HETATM   18  H   UNK N   1      29.517  19.674  10.687  0.00  0.00     0.210 HD
ENDBRANCH   9  17
ENDBRANCH   8   9
ENDBRANCH   7   8
ENDBRANCH   1   7
BRANCH   2  19
HETATM   19  C   UNK N   1      29.154  17.594   5.371  0.00  0.00     0.158 C 
HETATM   20  C   UNK N   1      28.706  16.187   5.612  0.00  0.00     0.097 C 
HETATM   21  O   UNK N   1      30.314  17.788   5.046  0.00  0.00    -0.293 OA
ENDBRANCH   2  19
BRANCH   5  22
HETATM   22  N   UNK N   1      25.820  20.516   3.226  0.00  0.00    -0.309 N 
HETATM   23  C   UNK N   1      24.480  20.309   3.042  0.00  0.00     0.322 C 
HETATM   24  N   UNK N   1      23.754  19.377   3.752  0.00  0.00    -0.335 N 
HETATM   25  O   UNK N   1      23.921  20.960   2.172  0.00  0.00    -0.247 OA
HETATM   26  H   UNK N   1      26.307  20.937   2.481  0.00  0.00     0.170 HD
BRANCH  24  27
HETATM   27  C   UNK N   1      22.337  19.239   3.478  0.00  0.00     0.123 C 
HETATM   28  C   UNK N   1      21.583  18.844   4.736  0.00  0.00     0.026 C 
ENDBRANCH  24  27
BRANCH  24  29
HETATM   29  C   UNK N   1      24.384  18.379   4.599  0.00  0.00     0.123 C 
HETATM   30  C   UNK N   1      24.578  17.050   3.885  0.00  0.00     0.026 C 
ENDBRANCH  24  29
ENDBRANCH   5  22
TORSDOF 11
ENDMDL
MODEL 2
REMARK VINA RESULT:      -6.5      2.352      8.499
REMARK  11 active torsions:
REMARK  status: ('A' for Active; 'I' for Inactive)
REMARK    1  A    between atoms: C_1  and  O_4 
REMARK    2  A    between atoms: C_2  and  C_5 
REMARK    3  A    between atoms: O_4  and  C_7 
REMARK    4  A    between atoms: C_7  and  C_11 
REMARK    5  A    between atoms: C_8  and  N_12 
REMARK    6  A    between atoms: C_11  and  C_13 
REMARK    7  A    between atoms: C_11  and  O_14 
REMARK       I    between atoms: N_12  and  C_15 
REMARK    8  A    between atoms: C_13  and  N_16 
REMARK       I    between atoms: C_15  and  N_17 
REMARK    9  A    between atoms: N_16  and  C_19 
REMARK   10  A    between atoms: N_17  and  C_20 
REMARK   11  A    between atoms: N_17  and  C_23 
ROOT
HETATM    1  C   UNK N   1      30.260  17.306   6.589  0.00  0.00     0.082 A 
HETATM    2  C   UNK N   1      30.063  17.782   7.913  0.00  0.00     0.045 A 
HETATM    3  C   UNK N   1      31.560  17.071   6.123  0.00  0.00     0.040 A 
HETATM    4  C   UNK N   1      32.664  17.283   6.945  0.00  0.00     0.032 A 
HETATM    5  C   UNK N   1      32.485  17.770   8.236  0.00  0.00     0.037 A 
HETATM    6  C   UNK N   1      31.190  17.996   8.719  0.00  0.00     0.047 A 
ENDROOT
BRANCH   1   7
HETATM    7  O   UNK N   1      29.234  17.056   5.748  0.00  0.00    -0.348 OA
BRANCH   7   8
HETATM    8  C   UNK N   1      28.465  15.909   5.821  0.00  0.00     0.209 C 
BRANCH   8   9
HETATM    9  C   UNK N   1      26.965  16.213   5.898  0.00  0.00     0.159 C 
BRANCH   9  10
HETATM   10  C   UNK N   1      26.603  17.422   5.037  0.00  0.00     0.148 C 
BRANCH  10  11
HETATM   11  N   UNK N   1      26.374  18.637   5.826  0.00  0.00    -0.411 N 
HETATM   12  H   UNK N   1      26.102  18.608   6.809  0.00  0.00     0.154 HD
BRANCH  11  13
HETATM   13  C   UNK N   1      26.565  19.898   5.095  0.00  0.00     0.014 C 
HETATM   14  C   UNK N   1      25.464  20.015   4.062  0.00  0.00     0.037 C 
HETATM   15  C   UNK N   1      26.488  21.126   5.995  0.00  0.00     0.037 C 
HETATM   16  C   UNK N   1      27.887  19.880   4.351  0.00  0.00     0.037 C 
ENDBRANCH  11  13
ENDBRANCH  10  11
ENDBRANCH   9  10
BRANCH   9  17
HETATM   17  O   UNK N   1      26.240  15.096   5.479  0.00  0.00    -0.392 OA
HETATM   18  H   UNK N   1      26.429  14.168   5.272  0.00  0.00     0.210 HD
ENDBRANCH   9  17
ENDBRANCH   8   9
ENDBRANCH   7   8
ENDBRANCH   1   7
BRANCH   2  19
HETATM   19  C   UNK N   1      28.720  18.095   8.480  0.00  0.00     0.158 C 
HETATM   20  C   UNK N   1      28.084  17.177   9.476  0.00  0.00     0.097 C 
HETATM   21  O   UNK N   1      28.129  19.116   8.170  0.00  0.00    -0.293 OA
ENDBRANCH   2  19
BRANCH   5  22
HETATM   22  N   UNK N   1      33.605  17.943   9.086  0.00  0.00    -0.309 N 
HETATM   23  C   UNK N   1      34.446  16.966   9.542  0.00  0.00     0.322 C 
HETATM   24  N   UNK N   1      34.097  15.634   9.602  0.00  0.00    -0.335 N 
HETATM   25  O   UNK N   1      35.544  17.311   9.954  0.00  0.00    -0.247 OA
HETATM   26  H   UNK N   1      33.798  18.862   9.380  0.00  0.00     0.170 HD
BRANCH  24  27
HETATM   27  C   UNK N   1      35.067  14.679  10.103  0.00  0.00     0.123 C 
HETATM   28  C   UNK N   1      34.766  14.315  11.547  0.00  0.00     0.026 C 
ENDBRANCH  24  27
BRANCH  24  29
HETATM   29  C   UNK N   1      32.734  15.175   9.397  0.00  0.00     0.123 C 
HETATM   30  C   UNK N   1      32.660  13.964   8.480  0.00  0.00     0.026 C 
ENDBRANCH  24  29
ENDBRANCH   5  22
TORSDOF 11
ENDMDL
MODEL 3
REMARK VINA RESULT:      -6.4      2.873      8.937
REMARK  11 active torsions:
REMARK  status: ('A' for Active; 'I' for Inactive)
REMARK    1  A    between atoms: C_1  and  O_4 
REMARK    2  A    between atoms: C_2  and  C_5 
REMARK    3  A    between atoms: O_4  and  C_7 
REMARK    4  A    between atoms: C_7  and  C_11 
REMARK    5  A    between atoms: C_8  and  N_12 
REMARK    6  A    between atoms: C_11  and  C_13 
REMARK    7  A    between atoms: C_11  and  O_14 
REMARK       I    between atoms: N_12  and  C_15 
REMARK    8  A    between atoms: C_13  and  N_16 
REMARK       I    between atoms: C_15  and  N_17 
REMARK    9  A    between atoms: N_16  and  C_19 
REMARK   10  A    between atoms: N_17  and  C_20 
REMARK   11  A    between atoms: N_17  and  C_23 
ROOT
HETATM    1  C   UNK N   1      31.277  17.221   6.353  0.00  0.00     0.082 A 
HETATM    2  C   UNK N   1      32.649  17.093   6.009  0.00  0.00     0.045 A 
HETATM    3  C   UNK N   1      30.915  17.452   7.687  0.00  0.00     0.040 A 
HETATM    4  C   UNK N   1      31.884  17.572   8.681  0.00  0.00     0.032 A 
HETATM    5  C   UNK N   1      33.230  17.426   8.360  0.00  0.00     0.037 A 
HETATM    6  C   UNK N   1      33.605  17.209   7.027  0.00  0.00     0.047 A 
ENDROOT
BRANCH   1   7
HETATM    7  O   UNK N   1      30.288  17.140   5.437  0.00  0.00    -0.348 OA
BRANCH   7   8
HETATM    8  C   UNK N   1      29.877  15.941   4.883  0.00  0.00     0.209 C 
BRANCH   8   9
HETATM    9  C   UNK N   1      29.270  16.120   3.486  0.00  0.00     0.159 C 
BRANCH   9  10
HETATM   10  C   UNK N   1      27.974  16.928   3.549  0.00  0.00     0.148 C 
BRANCH  10  11
HETATM   11  N   UNK N   1      28.205  18.368   3.694  0.00  0.00    -0.411 N 
HETATM   12  H   UNK N   1      29.035  18.830   3.322  0.00  0.00     0.154 HD
BRANCH  11  13
HETATM   13  C   UNK N   1      27.152  19.097   4.417  0.00  0.00     0.014 C 
HETATM   14  C   UNK N   1      27.711  19.527   5.756  0.00  0.00     0.037 C 
HETATM   15  C   UNK N   1      26.685  20.351   3.685  0.00  0.00     0.037 C 
HETATM   16  C   UNK N   1      25.971  18.183   4.688  0.00  0.00     0.037 C 
ENDBRANCH  11  13
ENDBRANCH  10  11
ENDBRANCH   9  10
BRANCH   9  17
HETATM   17  O   UNK N   1      30.190  16.760   2.655  0.00  0.00    -0.392 OA
HETATM   18  H   UNK N   1      30.159  17.310   1.857  0.00  0.00     0.210 HD
ENDBRANCH   9  17
ENDBRANCH   8   9
ENDBRANCH   7   8
ENDBRANCH   1   7
BRANCH   2  19
HETATM   19  C   UNK N   1      33.124  16.809   4.624  0.00  0.00     0.158 C 
HETATM   20  C   UNK N   1      33.820  15.522   4.310  0.00  0.00     0.097 C 
HETATM   21  O   UNK N   1      32.928  17.601   3.718  0.00  0.00    -0.293 OA
ENDBRANCH   2  19
BRANCH   5  22
HETATM   22  N   UNK N   1      34.216  17.592   9.362  0.00  0.00    -0.309 N 
HETATM   23  C   UNK N   1      34.983  16.611   9.928  0.00  0.00     0.322 C 
HETATM   24  N   UNK N   1      34.629  15.279   9.929  0.00  0.00    -0.335 N 
HETATM   25  O   UNK N   1      36.010  16.952  10.495  0.00  0.00    -0.247 OA
HETATM   26  H   UNK N   1      34.365  18.510   9.686  0.00  0.00     0.170 HD
BRANCH  24  27
HETATM   27  C   UNK N   1      35.517  14.320  10.558  0.00  0.00     0.123 C 
HETATM   28  C   UNK N   1      34.969  13.885  11.906  0.00  0.00     0.026 C 
ENDBRANCH  24  27
BRANCH  24  29
HETATM   29  C   UNK N   1      33.309  14.824   9.527  0.00  0.00     0.123 C 
HETATM   30  C   UNK N   1      33.368  13.745   8.456  0.00  0.00     0.026 C 
ENDBRANCH  24  29
ENDBRANCH   5  22
TORSDOF 11
ENDMDL
MODEL 4
REMARK VINA RESULT:      -6.4      2.405      4.073
REMARK  11 active torsions:
REMARK  status: ('A' for Active; 'I' for Inactive)
REMARK    1  A    between atoms: C_1  and  O_4 
REMARK    2  A    between atoms: C_2  and  C_5 
REMARK    3  A    between atoms: O_4  and  C_7 
REMARK    4  A    between atoms: C_7  and  C_11 
REMARK    5  A    between atoms: C_8  and  N_12 
REMARK    6  A    between atoms: C_11  and  C_13 
REMARK    7  A    between atoms: C_11  and  O_14 
REMARK       I    between atoms: N_12  and  C_15 
REMARK    8  A    between atoms: C_13  and  N_16 
REMARK       I    between atoms: C_15  and  N_17 
REMARK    9  A    between atoms: N_16  and  C_19 
REMARK   10  A    between atoms: N_17  and  C_20 
REMARK   11  A    between atoms: N_17  and  C_23 
ROOT
HETATM    1  C   UNK N   1      30.682  17.261   7.742  0.00  0.00     0.082 A 
HETATM    2  C   UNK N   1      30.509  16.962   6.364  0.00  0.00     0.045 A 
HETATM    3  C   UNK N   1      29.558  17.483   8.549  0.00  0.00     0.040 A 
HETATM    4  C   UNK N   1      28.271  17.399   8.024  0.00  0.00     0.032 A 
HETATM    5  C   UNK N   1      28.090  17.128   6.671  0.00  0.00     0.037 A 
HETATM    6  C   UNK N   1      29.204  16.891   5.856  0.00  0.00     0.047 A 
ENDROOT
BRANCH   1   7
HETATM    7  O   UNK N   1      31.899  17.335   8.322  0.00  0.00    -0.348 OA
BRANCH   7   8
HETATM    8  C   UNK N   1      32.653  18.494   8.337  0.00  0.00     0.209 C 
BRANCH   8   9
HETATM    9  C   UNK N   1      34.147  18.223   8.126  0.00  0.00     0.159 C 
BRANCH   9  10
HETATM   10  C   UNK N   1      34.593  16.974   8.885  0.00  0.00     0.148 C 
BRANCH  10  11
HETATM   11  N   UNK N   1      34.384  15.738   8.124  0.00  0.00    -0.411 N 
HETATM   12  H   UNK N   1      34.460  15.701   7.107  0.00  0.00     0.154 HD
BRANCH  11  13
HETATM   13  C   UNK N   1      34.055  14.557   8.936  0.00  0.00     0.014 C 
HETATM   14  C   UNK N   1      33.985  14.987  10.386  0.00  0.00     0.037 C 
HETATM   15  C   UNK N   1      32.711  13.938   8.571  0.00  0.00     0.037 C 
HETATM   16  C   UNK N   1      35.155  13.517   8.821  0.00  0.00     0.037 C 
ENDBRANCH  11  13
ENDBRANCH  10  11
ENDBRANCH   9  10
BRANCH   9  17
HETATM   17  O   UNK N   1      34.406  18.070   6.763  0.00  0.00    -0.392 OA
HETATM   18  H   UNK N   1      34.416  17.341   6.123  0.00  0.00     0.210 HD
ENDBRANCH   9  17
ENDBRANCH   8   9
ENDBRANCH   7   8
ENDBRANCH   1   7
BRANCH   2  19
HETATM   19  C   UNK N   1      31.646  16.749   5.423  0.00  0.00     0.158 C 
HETATM   20  C   UNK N   1      31.802  17.618   4.214  0.00  0.00     0.097 C 
HETATM   21  O   UNK N   1      32.483  15.888   5.633  0.00  0.00    -0.293 OA
ENDBRANCH   2  19
BRANCH   5  22
HETATM   22  N   UNK N   1      26.780  16.999   6.147  0.00  0.00    -0.309 N 
HETATM   23  C   UNK N   1      26.118  17.904   5.364  0.00  0.00     0.322 C 
HETATM   24  N   UNK N   1      26.441  19.243   5.318  0.00  0.00    -0.335 N 
HETATM   25  O   UNK N   1      25.168  17.499   4.711  0.00  0.00    -0.247 OA
HETATM   26  H   UNK N   1      26.296  16.172   6.370  0.00  0.00     0.170 HD
BRANCH  24  27
HETATM   27  C   UNK N   1      25.673  20.117   4.451  0.00  0.00     0.123 C 
HETATM   28  C   UNK N   1      26.458  20.454   3.196  0.00  0.00     0.026 C 
ENDBRANCH  24  27
BRANCH  24  29
HETATM   29  C   UNK N   1      27.363  19.856   6.257  0.00  0.00     0.123 C 
HETATM   30  C   UNK N   1      26.787  21.104   6.908  0.00  0.00     0.026 C 
ENDBRANCH  24  29
ENDBRANCH   5  22
TORSDOF 11
ENDMDL
MODEL 5
REMARK VINA RESULT:      -6.2     10.501     14.508
REMARK  11 active torsions:
REMARK  status: ('A' for Active; 'I' for Inactive)
REMARK    1  A    between atoms: C_1  and  O_4 
REMARK    2  A    between atoms: C_2  and  C_5 
REMARK    3  A    between atoms: O_4  and  C_7 
REMARK    4  A    between atoms: C_7  and  C_11 
REMARK    5  A    between atoms: C_8  and  N_12 
REMARK    6  A    between atoms: C_11  and  C_13 
REMARK    7  A    between atoms: C_11  and  O_14 
REMARK       I    between atoms: N_12  and  C_15 
REMARK    8  A    between atoms: C_13  and  N_16 
REMARK       I    between atoms: C_15  and  N_17 
REMARK    9  A    between atoms: N_16  and  C_19 
REMARK   10  A    between atoms: N_17  and  C_20 
REMARK   11  A    between atoms: N_17  and  C_23 
ROOT
HETATM    1  C   UNK N   1      29.542  22.404  -4.864  0.00  0.00     0.082 A 
HETATM    2  C   UNK N   1      30.093  22.126  -3.584  0.00  0.00     0.045 A 
HETATM    3  C   UNK N   1      29.965  21.666  -5.976  0.00  0.00     0.040 A 
HETATM    4  C   UNK N   1      30.910  20.651  -5.845  0.00  0.00     0.032 A 
HETATM    5  C   UNK N   1      31.473  20.384  -4.601  0.00  0.00     0.037 A 
HETATM    6  C   UNK N   1      31.048  21.105  -3.478  0.00  0.00     0.047 A 
ENDROOT
BRANCH   1   7
HETATM    7  O   UNK N   1      28.605  23.357  -5.059  0.00  0.00    -0.348 OA
BRANCH   7   8
HETATM    8  C   UNK N   1      27.673  23.295  -6.078  0.00  0.00     0.209 C 
BRANCH   8   9
HETATM    9  C   UNK N   1      26.234  23.425  -5.565  0.00  0.00     0.159 C 
BRANCH   9  10
HETATM   10  C   UNK N   1      26.011  24.777  -4.889  0.00  0.00     0.148 C 
BRANCH  10  11
HETATM   11  N   UNK N   1      26.900  25.825  -5.400  0.00  0.00    -0.411 N 
HETATM   12  H   UNK N   1      27.911  25.801  -5.262  0.00  0.00     0.154 HD
BRANCH  11  13
HETATM   13  C   UNK N   1      26.227  26.911  -6.127  0.00  0.00     0.014 C 
HETATM   14  C   UNK N   1      26.203  26.550  -7.597  0.00  0.00     0.037 C 
HETATM   15  C   UNK N   1      24.785  27.124  -5.679  0.00  0.00     0.037 C 
HETATM   16  C   UNK N   1      27.011  28.203  -5.987  0.00  0.00     0.037 C 
ENDBRANCH  11  13
ENDBRANCH  10  11
ENDBRANCH   9  10
BRANCH   9  17
HETATM   17  O   UNK N   1      25.343  23.271  -6.628  0.00  0.00    -0.392 OA
HETATM   18  H   UNK N   1      25.403  23.155  -7.589  0.00  0.00     0.210 HD
ENDBRANCH   9  17
ENDBRANCH   8   9
ENDBRANCH   7   8
ENDBRANCH   1   7
BRANCH   2  19
HETATM   19  C   UNK N   1      29.731  22.884  -2.353  0.00  0.00     0.158 C 
HETATM   20  C   UNK N   1      28.305  23.249  -2.079  0.00  0.00     0.097 C 
HETATM   21  O   UNK N   1      30.579  23.195  -1.533  0.00  0.00    -0.293 OA
ENDBRANCH   2  19
BRANCH   5  22
HETATM   22  N   UNK N   1      32.400  19.322  -4.460  0.00  0.00    -0.309 N 
HETATM   23  C   UNK N   1      33.762  19.429  -4.383  0.00  0.00     0.322 C 
HETATM   24  N   UNK N   1      34.464  20.518  -4.852  0.00  0.00    -0.335 N 
HETATM   25  O   UNK N   1      34.377  18.485  -3.909  0.00  0.00    -0.247 OA
HETATM   26  H   UNK N   1      32.026  18.413  -4.414  0.00  0.00     0.170 HD
BRANCH  24  27
HETATM   27  C   UNK N   1      35.909  20.528  -4.719  0.00  0.00     0.123 C 
HETATM   28  C   UNK N   1      36.574  20.282  -6.062  0.00  0.00     0.026 C 
ENDBRANCH  24  27
BRANCH  24  29
HETATM   29  C   UNK N   1      33.849  21.548  -5.670  0.00  0.00     0.123 C 
HETATM   30  C   UNK N   1      34.067  22.944  -5.107  0.00  0.00     0.026 C 
ENDBRANCH  24  29
ENDBRANCH   5  22
TORSDOF 11
ENDMDL
MODEL 6
REMARK VINA RESULT:      -6.0      4.967      6.655
REMARK  11 active torsions:
REMARK  status: ('A' for Active; 'I' for Inactive)
REMARK    1  A    between atoms: C_1  and  O_4 
REMARK    2  A    between atoms: C_2  and  C_5 
REMARK    3  A    between atoms: O_4  and  C_7 
REMARK    4  A    between atoms: C_7  and  C_11 
REMARK    5  A    between atoms: C_8  and  N_12 
REMARK    6  A    between atoms: C_11  and  C_13 
REMARK    7  A    between atoms: C_11  and  O_14 
REMARK       I    between atoms: N_12  and  C_15 
REMARK    8  A    between atoms: C_13  and  N_16 
REMARK       I    between atoms: C_15  and  N_17 
REMARK    9  A    between atoms: N_16  and  C_19 
REMARK   10  A    between atoms: N_17  and  C_20 
REMARK   11  A    between atoms: N_17  and  C_23 
ROOT
HETATM    1  C   UNK N   1      33.089  17.346   7.878  0.00  0.00     0.082 A 
HETATM    2  C   UNK N   1      31.677  17.366   7.724  0.00  0.00     0.045 A 
HETATM    3  C   UNK N   1      33.910  17.290   6.744  0.00  0.00     0.040 A 
HETATM    4  C   UNK N   1      33.361  17.270   5.463  0.00  0.00     0.032 A 
HETATM    5  C   UNK N   1      31.979  17.266   5.300  0.00  0.00     0.037 A 
HETATM    6  C   UNK N   1      31.148  17.336   6.426  0.00  0.00     0.047 A 
ENDROOT
BRANCH   1   7
HETATM    7  O   UNK N   1      33.688  17.388   9.087  0.00  0.00    -0.348 OA
BRANCH   7   8
HETATM    8  C   UNK N   1      34.541  16.396   9.537  0.00  0.00     0.209 C 
BRANCH   8   9
HETATM    9  C   UNK N   1      33.820  15.062   9.761  0.00  0.00     0.159 C 
BRANCH   9  10
HETATM   10  C   UNK N   1      34.807  13.961  10.146  0.00  0.00     0.148 C 
BRANCH  10  11
HETATM   11  N   UNK N   1      34.488  13.329  11.430  0.00  0.00    -0.411 N 
HETATM   12  H   UNK N   1      33.566  12.941  11.635  0.00  0.00     0.154 HD
BRANCH  11  13
HETATM   13  C   UNK N   1      35.593  13.297  12.399  0.00  0.00     0.014 C 
HETATM   14  C   UNK N   1      35.978  14.725  12.721  0.00  0.00     0.037 C 
HETATM   15  C   UNK N   1      35.218  12.611  13.708  0.00  0.00     0.037 C 
HETATM   16  C   UNK N   1      36.808  12.624  11.789  0.00  0.00     0.037 C 
ENDBRANCH  11  13
ENDBRANCH  10  11
ENDBRANCH   9  10
BRANCH   9  17
HETATM   17  O   UNK N   1      32.860  15.212  10.764  0.00  0.00    -0.392 OA
HETATM   18  H   UNK N   1      32.729  14.892  11.670  0.00  0.00     0.210 HD
ENDBRANCH   9  17
ENDBRANCH   8   9
ENDBRANCH   7   8
ENDBRANCH   1   7
BRANCH   2  19
HETATM   19  C   UNK N   1      30.728  17.386   8.873  0.00  0.00     0.158 C 
HETATM   20  C   UNK N   1      30.043  18.657   9.269  0.00  0.00     0.097 C 
HETATM   21  O   UNK N   1      30.467  16.368   9.492  0.00  0.00    -0.293 OA
ENDBRANCH   2  19
BRANCH   5  22
HETATM   22  N   UNK N   1      31.423  17.290   3.998  0.00  0.00    -0.309 N 
HETATM   23  C   UNK N   1      30.710  16.292   3.394  0.00  0.00     0.322 C 
HETATM   24  N   UNK N   1      30.785  14.969   3.776  0.00  0.00    -0.335 N 
HETATM   25  O   UNK N   1      30.007  16.595   2.441  0.00  0.00    -0.247 OA
HETATM   26  H   UNK N   1      31.564  18.110   3.473  0.00  0.00     0.170 HD
BRANCH  24  27
HETATM   27  C   UNK N   1      29.985  13.990   3.066  0.00  0.00     0.123 C 
HETATM   28  C   UNK N   1      29.011  13.307   4.010  0.00  0.00     0.026 C 
ENDBRANCH  24  27
BRANCH  24  29
HETATM   29  C   UNK N   1      31.791  14.483   4.704  0.00  0.00     0.123 C 
HETATM   30  C   UNK N   1      32.977  13.847   3.994  0.00  0.00     0.026 C 
ENDBRANCH  24  29
ENDBRANCH   5  22
TORSDOF 11
ENDMDL
MODEL 7
REMARK VINA RESULT:      -6.0      2.426      3.919
REMARK  11 active torsions:
REMARK  status: ('A' for Active; 'I' for Inactive)
REMARK    1  A    between atoms: C_1  and  O_4 
REMARK    2  A    between atoms: C_2  and  C_5 
REMARK    3  A    between atoms: O_4  and  C_7 
REMARK    4  A    between atoms: C_7  and  C_11 
REMARK    5  A    between atoms: C_8  and  N_12 
REMARK    6  A    between atoms: C_11  and  C_13 
REMARK    7  A    between atoms: C_11  and  O_14 
REMARK       I    between atoms: N_12  and  C_15 
REMARK    8  A    between atoms: C_13  and  N_16 
REMARK       I    between atoms: C_15  and  N_17 
REMARK    9  A    between atoms: N_16  and  C_19 
REMARK   10  A    between atoms: N_17  and  C_20 
REMARK   11  A    between atoms: N_17  and  C_23 
ROOT
HETATM    1  C   UNK N   1      30.093  16.852   6.989  0.00  0.00     0.082 A 
HETATM    2  C   UNK N   1      29.134  17.788   7.461  0.00  0.00     0.045 A 
HETATM    3  C   UNK N   1      30.360  16.765   5.617  0.00  0.00     0.040 A 
HETATM    4  C   UNK N   1      29.709  17.595   4.707  0.00  0.00     0.032 A 
HETATM    5  C   UNK N   1      28.752  18.501   5.155  0.00  0.00     0.037 A 
HETATM    6  C   UNK N   1      28.486  18.607   6.526  0.00  0.00     0.047 A 
ENDROOT
BRANCH   1   7
HETATM    7  O   UNK N   1      30.777  16.033   7.817  0.00  0.00    -0.348 OA
BRANCH   7   8
HETATM    8  C   UNK N   1      32.116  16.214   8.111  0.00  0.00     0.209 C 
BRANCH   8   9
HETATM    9  C   UNK N   1      32.610  15.257   9.203  0.00  0.00     0.159 C 
BRANCH   9  10
HETATM   10  C   UNK N   1      33.998  15.659   9.700  0.00  0.00     0.148 C 
BRANCH  10  11
HETATM   11  N   UNK N   1      34.234  15.287  11.099  0.00  0.00    -0.411 N 
HETATM   12  H   UNK N   1      33.598  15.552  11.851  0.00  0.00     0.154 HD
BRANCH  11  13
HETATM   13  C   UNK N   1      35.455  14.502  11.335  0.00  0.00     0.014 C 
HETATM   14  C   UNK N   1      35.104  13.035  11.206  0.00  0.00     0.037 C 
HETATM   15  C   UNK N   1      36.561  14.803  10.330  0.00  0.00     0.037 C 
HETATM   16  C   UNK N   1      35.960  14.727  12.748  0.00  0.00     0.037 C 
ENDBRANCH  11  13
ENDBRANCH  10  11
ENDBRANCH   9  10
BRANCH   9  17
HETATM   17  O   UNK N   1      31.706  15.255  10.267  0.00  0.00    -0.392 OA
HETATM   18  H   UNK N   1      31.366  14.608  10.904  0.00  0.00     0.210 HD
ENDBRANCH   9  17
ENDBRANCH   8   9
ENDBRANCH   7   8
ENDBRANCH   1   7
BRANCH   2  19
HETATM   19  C   UNK N   1      28.758  17.923   8.898  0.00  0.00     0.158 C 
HETATM   20  C   UNK N   1      29.657  18.645   9.852  0.00  0.00     0.097 C 
HETATM   21  O   UNK N   1      27.703  17.478   9.316  0.00  0.00    -0.293 OA
ENDBRANCH   2  19
BRANCH   5  22
HETATM   22  N   UNK N   1      28.124  19.375   4.235  0.00  0.00    -0.309 N 
HETATM   23  C   UNK N   1      26.793  19.418   3.924  0.00  0.00     0.322 C 
HETATM   24  N   UNK N   1      25.934  18.359   4.124  0.00  0.00    -0.335 N 
HETATM   25  O   UNK N   1      26.366  20.439   3.404  0.00  0.00    -0.247 OA
HETATM   26  H   UNK N   1      28.706  20.019   3.770  0.00  0.00     0.170 HD
BRANCH  24  27
HETATM   27  C   UNK N   1      24.538  18.512   3.760  0.00  0.00     0.123 C 
HETATM   28  C   UNK N   1      23.638  18.229   4.950  0.00  0.00     0.026 C 
ENDBRANCH  24  27
BRANCH  24  29
HETATM   29  C   UNK N   1      26.404  17.030   4.475  0.00  0.00     0.123 C 
HETATM   30  C   UNK N   1      26.562  16.131   3.258  0.00  0.00     0.026 C 
ENDBRANCH  24  29
ENDBRANCH   5  22
TORSDOF 11
ENDMDL
MODEL 8
REMARK VINA RESULT:      -6.0      4.726      7.710
REMARK  11 active torsions:
REMARK  status: ('A' for Active; 'I' for Inactive)
REMARK    1  A    between atoms: C_1  and  O_4 
REMARK    2  A    between atoms: C_2  and  C_5 
REMARK    3  A    between atoms: O_4  and  C_7 
REMARK    4  A    between atoms: C_7  and  C_11 
REMARK    5  A    between atoms: C_8  and  N_12 
REMARK    6  A    between atoms: C_11  and  C_13 
REMARK    7  A    between atoms: C_11  and  O_14 
REMARK       I    between atoms: N_12  and  C_15 
REMARK    8  A    between atoms: C_13  and  N_16 
REMARK       I    between atoms: C_15  and  N_17 
REMARK    9  A    between atoms: N_16  and  C_19 
REMARK   10  A    between atoms: N_17  and  C_20 
REMARK   11  A    between atoms: N_17  and  C_23 
ROOT
HETATM    1  C   UNK N   1      34.952  15.931   7.470  0.00  0.00     0.082 A 
HETATM    2  C   UNK N   1      34.266  17.118   7.100  0.00  0.00     0.045 A 
HETATM    3  C   UNK N   1      35.069  14.882   6.548  0.00  0.00     0.040 A 
HETATM    4  C   UNK N   1      34.536  14.993   5.266  0.00  0.00     0.032 A 
HETATM    5  C   UNK N   1      33.842  16.143   4.900  0.00  0.00     0.037 A 
HETATM    6  C   UNK N   1      33.730  17.203   5.808  0.00  0.00     0.047 A 
ENDROOT
BRANCH   1   7
HETATM    7  O   UNK N   1      35.514  15.766   8.686  0.00  0.00    -0.348 OA
BRANCH   7   8
HETATM    8  C   UNK N   1      34.835  15.216   9.758  0.00  0.00     0.209 C 
BRANCH   8   9
HETATM    9  C   UNK N   1      35.448  15.611  11.106  0.00  0.00     0.159 C 
BRANCH   9  10
HETATM   10  C   UNK N   1      35.465  14.427  12.072  0.00  0.00     0.148 C 
BRANCH  10  11
HETATM   11  N   UNK N   1      36.563  14.496  13.041  0.00  0.00    -0.411 N 
HETATM   12  H   UNK N   1      37.343  15.147  12.941  0.00  0.00     0.154 HD
BRANCH  11  13
HETATM   13  C   UNK N   1      36.457  13.558  14.168  0.00  0.00     0.014 C 
HETATM   14  C   UNK N   1      37.010  14.240  15.402  0.00  0.00     0.037 C 
HETATM   15  C   UNK N   1      35.019  13.150  14.471  0.00  0.00     0.037 C 
HETATM   16  C   UNK N   1      37.303  12.326  13.910  0.00  0.00     0.037 C 
ENDBRANCH  11  13
ENDBRANCH  10  11
ENDBRANCH   9  10
BRANCH   9  17
HETATM   17  O   UNK N   1      36.747  16.083  10.908  0.00  0.00    -0.392 OA
HETATM   18  H   UNK N   1      37.212  16.930  10.991  0.00  0.00     0.210 HD
ENDBRANCH   9  17
ENDBRANCH   8   9
ENDBRANCH   7   8
ENDBRANCH   1   7
BRANCH   2  19
HETATM   19  C   UNK N   1      34.059  18.268   8.027  0.00  0.00     0.158 C 
HETATM   20  C   UNK N   1      32.707  18.540   8.608  0.00  0.00     0.097 C 
HETATM   21  O   UNK N   1      34.989  18.987   8.353  0.00  0.00    -0.293 OA
ENDBRANCH   2  19
BRANCH   5  22
HETATM   22  N   UNK N   1      33.338  16.272   3.582  0.00  0.00    -0.309 N 
HETATM   23  C   UNK N   1      32.033  16.463   3.219  0.00  0.00     0.322 C 
HETATM   24  N   UNK N   1      30.967  16.134   4.028  0.00  0.00    -0.335 N 
HETATM   25  O   UNK N   1      31.816  16.909   2.102  0.00  0.00    -0.247 OA
HETATM   26  H   UNK N   1      33.996  16.219   2.852  0.00  0.00     0.170 HD
BRANCH  24  27
HETATM   27  C   UNK N   1      29.622  16.379   3.545  0.00  0.00     0.123 C 
HETATM   28  C   UNK N   1      28.962  17.495   4.336  0.00  0.00     0.026 C 
ENDBRANCH  24  27
BRANCH  24  29
HETATM   29  C   UNK N   1      31.122  15.353   5.243  0.00  0.00     0.123 C 
HETATM   30  C   UNK N   1      30.763  13.889   5.042  0.00  0.00     0.026 C 
ENDBRANCH  24  29
ENDBRANCH   5  22
TORSDOF 11
ENDMDL
MODEL 9
REMARK VINA RESULT:      -5.7      4.124     10.110
REMARK  11 active torsions:
REMARK  status: ('A' for Active; 'I' for Inactive)
REMARK    1  A    between atoms: C_1  and  O_4 
REMARK    2  A    between atoms: C_2  and  C_5 
REMARK    3  A    between atoms: O_4  and  C_7 
REMARK    4  A    between atoms: C_7  and  C_11 
REMARK    5  A    between atoms: C_8  and  N_12 
REMARK    6  A    between atoms: C_11  and  C_13 
REMARK    7  A    between atoms: C_11  and  O_14 
REMARK       I    between atoms: N_12  and  C_15 
REMARK    8  A    between atoms: C_13  and  N_16 
REMARK       I    between atoms: C_15  and  N_17 
REMARK    9  A    between atoms: N_16  and  C_19 
REMARK   10  A    between atoms: N_17  and  C_20 
REMARK   11  A    between atoms: N_17  and  C_23 
ROOT
HETATM    1  C   UNK N   1      32.761  15.278   7.503  0.00  0.00     0.082 A 
HETATM    2  C   UNK N   1      34.014  15.942   7.582  0.00  0.00     0.045 A 
HETATM    3  C   UNK N   1      32.667  13.930   7.873  0.00  0.00     0.040 A 
HETATM    4  C   UNK N   1      33.782  13.234   8.333  0.00  0.00     0.032 A 
HETATM    5  C   UNK N   1      35.020  13.868   8.393  0.00  0.00     0.037 A 
HETATM    6  C   UNK N   1      35.124  15.219   8.039  0.00  0.00     0.047 A 
ENDROOT
BRANCH   1   7
HETATM    7  O   UNK N   1      31.635  15.898   7.090  0.00  0.00    -0.348 OA
BRANCH   7   8
HETATM    8  C   UNK N   1      30.937  15.511   5.961  0.00  0.00     0.209 C 
BRANCH   8   9
HETATM    9  C   UNK N   1      30.484  16.706   5.114  0.00  0.00     0.159 C 
BRANCH   9  10
HETATM   10  C   UNK N   1      29.364  17.480   5.808  0.00  0.00     0.148 C 
BRANCH  10  11
HETATM   11  N   UNK N   1      29.037  16.945   7.134  0.00  0.00    -0.411 N 
HETATM   12  H   UNK N   1      28.943  15.945   7.313  0.00  0.00     0.154 HD
BRANCH  11  13
HETATM   13  C   UNK N   1      28.856  17.958   8.185  0.00  0.00     0.014 C 
HETATM   14  C   UNK N   1      28.168  19.157   7.569  0.00  0.00     0.037 C 
HETATM   15  C   UNK N   1      27.990  17.469   9.340  0.00  0.00     0.037 C 
HETATM   16  C   UNK N   1      30.203  18.423   8.705  0.00  0.00     0.037 C 
ENDBRANCH  11  13
ENDBRANCH  10  11
ENDBRANCH   9  10
BRANCH   9  17
HETATM   17  O   UNK N   1      31.571  17.551   4.879  0.00  0.00    -0.392 OA
HETATM   18  H   UNK N   1      32.338  17.871   5.378  0.00  0.00     0.210 HD
ENDBRANCH   9  17
ENDBRANCH   8   9
ENDBRANCH   7   8
ENDBRANCH   1   7
BRANCH   2  19
HETATM   19  C   UNK N   1      34.216  17.362   7.173  0.00  0.00     0.158 C 
HETATM   20  C   UNK N   1      34.450  18.422   8.204  0.00  0.00     0.097 C 
HETATM   21  O   UNK N   1      34.225  17.682   5.996  0.00  0.00    -0.293 OA
ENDBRANCH   2  19
BRANCH   5  22
HETATM   22  N   UNK N   1      36.144  13.173   8.902  0.00  0.00    -0.309 N 
HETATM   23  C   UNK N   1      36.342  12.769  10.194  0.00  0.00     0.322 C 
HETATM   24  N   UNK N   1      35.698  13.337  11.271  0.00  0.00    -0.335 N 
HETATM   25  O   UNK N   1      37.165  11.888  10.391  0.00  0.00    -0.247 OA
HETATM   26  H   UNK N   1      36.858  12.958   8.259  0.00  0.00     0.170 HD
BRANCH  24  27
HETATM   27  C   UNK N   1      35.981  12.832  12.601  0.00  0.00     0.123 C 
HETATM   28  C   UNK N   1      34.765  12.130  13.179  0.00  0.00     0.026 C 
ENDBRANCH  24  27
BRANCH  24  29
HETATM   29  C   UNK N   1      34.921  14.560  11.159  0.00  0.00     0.123 C 
HETATM   30  C   UNK N   1      35.700  15.786  11.611  0.00  0.00     0.026 C 
ENDBRANCH  24  29
ENDBRANCH   5  22
TORSDOF 11
ENDMDL
