REMARK  9 active torsions:
REMARK  status: ('A' for Active; 'I' for Inactive)
REMARK    1  A    between atoms: O_2  and  C_19 
REMARK    2  A    between atoms: O_2  and  C_26 
REMARK    3  A    between atoms: O_3  and  C_27 
REMARK    4  A    between atoms: C_4  and  C_6 
REMARK    5  A    between atoms: C_4  and  C_8 
REMARK    6  A    between atoms: C_5  and  C_7 
REMARK    7  A    between atoms: C_5  and  C_9 
REMARK    8  A    between atoms: C_6  and  C_12 
REMARK    9  A    between atoms: C_26  and  C_27 
ROOT
HETATM    1  C   UNK N   1       3.393   2.750  -0.204  0.00  0.00    -0.035 C 
HETATM    2  C   UNK N   1       4.623   2.090  -0.185  0.00  0.00    -0.009 C 
ENDROOT
BRANCH   2   3
HETATM    3  C   UNK N   1       4.692   0.585  -0.098  0.00  0.00    -0.024 A 
HETATM    4  C   UNK N   1       5.618  -0.135  -0.871  0.00  0.00     0.015 A 
HETATM    5  C   UNK N   1       5.650  -1.532  -0.829  0.00  0.00     0.037 A 
HETATM    6  C   UNK N   1       4.766  -2.234  -0.004  0.00  0.00     0.068 A 
HETATM    7  C   UNK N   1       3.876  -1.522   0.813  0.00  0.00     0.037 A 
HETATM    8  C   UNK N   1       3.849  -0.127   0.774  0.00  0.00     0.015 A 
BRANCH   6   9
HETATM    9  O   UNK N   1       4.783  -3.589  -0.021  0.00  0.00    -0.349 OA
BRANCH   9  10
HETATM   10  C   UNK N   1       3.876  -4.362   0.670  0.00  0.00     0.201 C 
BRANCH  10  11
HETATM   11  C   UNK N   1       3.629  -5.650  -0.089  0.00  0.00     0.190 C 
BRANCH  11  12
HETATM   12  O   UNK N   1       2.612  -6.371   0.535  0.00  0.00    -0.399 OA
HETATM   13  H   UNK N   1       1.824  -6.009   0.968  0.00  0.00     0.209 HD
ENDBRANCH  11  12
ENDBRANCH  10  11
ENDBRANCH   9  10
ENDBRANCH   6   9
ENDBRANCH   2   3
BRANCH   2  14
HETATM   14  C   UNK N   1       5.957   2.835  -0.207  0.00  0.00    -0.025 A 
HETATM   15  C   UNK N   1       6.054   4.219  -0.452  0.00  0.00     0.012 A 
HETATM   16  C   UNK N   1       7.288   4.874  -0.456  0.00  0.00     0.001 A 
HETATM   17  C   UNK N   1       8.459   4.158  -0.212  0.00  0.00     0.000 A 
HETATM   18  C   UNK N   1       8.393   2.788   0.036  0.00  0.00     0.001 A 
HETATM   19  C   UNK N   1       7.156   2.136   0.038  0.00  0.00     0.012 A 
ENDBRANCH   2  14
BRANCH   1  20
HETATM   20  C   UNK N   1       3.335   4.261  -0.176  0.00  0.00     0.055 C 
BRANCH  20  21
HETATM   21  C   UNK N   1       2.737   4.796   1.112  0.00  0.00     0.119 C 
HETATM   22 Cl   UNK N   1       1.844   6.291   0.751  0.00  0.00    -0.130 Cl
ENDBRANCH  20  21
ENDBRANCH   1  20
BRANCH   1  23
HETATM   23  C   UNK N   1       2.048   2.061  -0.339  0.00  0.00    -0.029 A 
HETATM   24  C   UNK N   1       1.909   0.797  -0.942  0.00  0.00     0.012 A 
HETATM   25  C   UNK N   1       0.656   0.198  -1.094  0.00  0.00     0.001 A 
HETATM   26  C   UNK N   1      -0.490   0.867  -0.668  0.00  0.00     0.000 A 
HETATM   27  C   UNK N   1      -0.383   2.140  -0.108  0.00  0.00     0.001 A 
HETATM   28  C   UNK N   1       0.872   2.735   0.042  0.00  0.00     0.012 A 
ENDBRANCH   1  23
TORSDOF 9
