MODEL 1
REMARK VINA RESULT:      -8.0      0.000      0.000
REMARK  3 active torsions:
REMARK  status: ('A' for Active; 'I' for Inactive)
REMARK    1  A    between atoms: S_1  and  O_3 
REMARK    2  A    between atoms: S_1  and  O_4 
REMARK    3  A    between atoms: O_3  and  C_24 
ROOT
HETATM    1  O   UNK N   1      36.083  11.341  17.749  0.00  0.00    -0.297 OA
HETATM    2  C   UNK N   1      35.161  11.400  14.402  0.00  0.00     0.006 C 
HETATM    3  C   UNK N   1      35.428  12.226  15.639  0.00  0.00     0.021 C 
HETATM    4  C   UNK N   1      34.675  12.175  13.177  0.00  0.00    -0.000 C 
HETATM    5  C   UNK N   1      35.264  13.613  13.213  0.00  0.00     0.024 C 
HETATM    6  C   UNK N   1      36.642  13.116  15.340  0.00  0.00     0.018 C 
HETATM    7  C   UNK N   1      34.540  10.082  14.819  0.00  0.00     0.013 C 
HETATM    8  C   UNK N   1      36.643  13.692  13.903  0.00  0.00     0.011 C 
HETATM    9  C   UNK N   1      35.109  11.430  11.924  0.00  0.00     0.010 C 
HETATM   10  C   UNK N   1      35.668  11.140  16.619  0.00  0.00     0.135 C 
HETATM   11  C   UNK N   1      35.250   9.786  16.145  0.00  0.00     0.079 C 
HETATM   12  C   UNK N   1      34.229  13.058  16.086  0.00  0.00     0.024 C 
HETATM   13  C   UNK N   1      35.282  14.304  11.875  0.00  0.00    -0.047 A 
HETATM   14  C   UNK N   1      34.628  12.157  10.673  0.00  0.00     0.039 C 
HETATM   15  C   UNK N   1      34.982  13.617  10.677  0.00  0.00    -0.049 A 
HETATM   16  C   UNK N   1      35.601  15.664  11.827  0.00  0.00     0.011 A 
HETATM   17  C   UNK N   1      34.998  14.308   9.460  0.00  0.00     0.045 A 
HETATM   18  C   UNK N   1      35.613  16.344  10.612  0.00  0.00     0.039 A 
HETATM   19  C   UNK N   1      35.307  15.671   9.420  0.00  0.00     0.091 A 
ENDROOT
BRANCH  19  20
HETATM   20  O   UNK N   1      35.284  16.321   8.234  0.00  0.00    -0.221 OA
BRANCH  20  21
HETATM   21  S   UNK N   1      34.442  17.783   8.001  0.00  0.00     0.245 S 
HETATM   22  O   UNK N   1      34.102  17.950   6.512  0.00  0.00    -0.579 OA
HETATM   23  O   UNK N   1      33.084  17.689   8.710  0.00  0.00    -0.579 OA
BRANCH  21  24
HETATM   24  O   UNK N   1      35.276  19.173   8.567  0.00  0.00    -0.273 OA
HETATM   25  H   UNK N   1      35.321  19.889   9.221  0.00  0.00     0.234 HD
ENDBRANCH  21  24
ENDBRANCH  20  21
ENDBRANCH  19  20
TORSDOF 3
ENDMDL
MODEL 2
REMARK VINA RESULT:      -7.5      4.395      8.944
REMARK  3 active torsions:
REMARK  status: ('A' for Active; 'I' for Inactive)
REMARK    1  A    between atoms: S_1  and  O_3 
REMARK    2  A    between atoms: S_1  and  O_4 
REMARK    3  A    between atoms: O_3  and  C_24 
ROOT
HETATM    1  O   UNK N   1      33.281  15.062   2.298  0.00  0.00    -0.297 OA
HETATM    2  C   UNK N   1      33.430  16.621   5.396  0.00  0.00     0.006 C 
HETATM    3  C   UNK N   1      33.470  15.303   4.658  0.00  0.00     0.021 C 
HETATM    4  C   UNK N   1      33.492  16.530   6.921  0.00  0.00    -0.000 C 
HETATM    5  C   UNK N   1      34.310  15.272   7.328  0.00  0.00     0.024 C 
HETATM    6  C   UNK N   1      34.866  14.702   4.871  0.00  0.00     0.018 C 
HETATM    7  C   UNK N   1      32.469  17.551   4.684  0.00  0.00     0.013 C 
HETATM    8  C   UNK N   1      35.408  14.901   6.308  0.00  0.00     0.011 C 
HETATM    9  C   UNK N   1      34.128  17.802   7.461  0.00  0.00     0.010 C 
HETATM   10  C   UNK N   1      33.192  15.778   3.282  0.00  0.00     0.135 C 
HETATM   11  C   UNK N   1      32.680  17.181   3.212  0.00  0.00     0.079 C 
HETATM   12  C   UNK N   1      32.377  14.329   5.090  0.00  0.00     0.024 C 
HETATM   13  C   UNK N   1      34.861  15.323   8.728  0.00  0.00    -0.047 A 
HETATM   14  C   UNK N   1      34.192  17.767   8.984  0.00  0.00     0.039 C 
HETATM   15  C   UNK N   1      34.805  16.500   9.509  0.00  0.00    -0.049 A 
HETATM   16  C   UNK N   1      35.437  14.168   9.265  0.00  0.00     0.011 A 
HETATM   17  C   UNK N   1      35.317  16.491  10.812  0.00  0.00     0.045 A 
HETATM   18  C   UNK N   1      35.942  14.168  10.562  0.00  0.00     0.039 A 
HETATM   19  C   UNK N   1      35.882  15.329  11.347  0.00  0.00     0.091 A 
ENDROOT
BRANCH  19  20
HETATM   20  O   UNK N   1      36.341  15.340  12.619  0.00  0.00    -0.221 OA
BRANCH  20  21
HETATM   21  S   UNK N   1      36.298  13.967  13.626  0.00  0.00     0.245 S 
HETATM   22  O   UNK N   1      36.618  14.377  15.071  0.00  0.00    -0.579 OA
HETATM   23  O   UNK N   1      34.859  13.434  13.673  0.00  0.00    -0.579 OA
BRANCH  21  24
HETATM   24  O   UNK N   1      37.350  12.701  13.134  0.00  0.00    -0.273 OA
HETATM   25  H   UNK N   1      37.560  12.025  12.469  0.00  0.00     0.234 HD
ENDBRANCH  21  24
ENDBRANCH  20  21
ENDBRANCH  19  20
TORSDOF 3
ENDMDL
MODEL 3
REMARK VINA RESULT:      -7.5     18.296     20.515
REMARK  3 active torsions:
REMARK  status: ('A' for Active; 'I' for Inactive)
REMARK    1  A    between atoms: S_1  and  O_3 
REMARK    2  A    between atoms: S_1  and  O_4 
REMARK    3  A    between atoms: O_3  and  C_24 
ROOT
HETATM    1  O   UNK N   1      34.116  18.911  -6.344  0.00  0.00    -0.297 OA
HETATM    2  C   UNK N   1      32.383  21.046  -4.225  0.00  0.00     0.006 C 
HETATM    3  C   UNK N   1      32.650  20.657  -5.660  0.00  0.00     0.021 C 
HETATM    4  C   UNK N   1      31.464  22.252  -4.024  0.00  0.00    -0.000 C 
HETATM    5  C   UNK N   1      30.452  22.328  -5.201  0.00  0.00     0.024 C 
HETATM    6  C   UNK N   1      31.331  20.135  -6.246  0.00  0.00     0.018 C 
HETATM    7  C   UNK N   1      33.656  20.861  -3.423  0.00  0.00     0.013 C 
HETATM    8  C   UNK N   1      30.093  20.947  -5.789  0.00  0.00     0.011 C 
HETATM    9  C   UNK N   1      30.750  22.103  -2.689  0.00  0.00     0.010 C 
HETATM   10  C   UNK N   1      33.697  19.629  -5.450  0.00  0.00     0.135 C 
HETATM   11  C   UNK N   1      34.280  19.622  -4.074  0.00  0.00     0.079 C 
HETATM   12  C   UNK N   1      33.218  21.795  -6.504  0.00  0.00     0.024 C 
HETATM   13  C   UNK N   1      29.215  23.130  -4.897  0.00  0.00    -0.047 A 
HETATM   14  C   UNK N   1      29.835  23.296  -2.433  0.00  0.00     0.039 C 
HETATM   15  C   UNK N   1      28.923  23.587  -3.592  0.00  0.00    -0.049 A 
HETATM   16  C   UNK N   1      28.337  23.431  -5.943  0.00  0.00     0.011 A 
HETATM   17  C   UNK N   1      27.768  24.342  -3.364  0.00  0.00     0.045 A 
HETATM   18  C   UNK N   1      27.191  24.185  -5.708  0.00  0.00     0.039 A 
HETATM   19  C   UNK N   1      26.900  24.650  -4.417  0.00  0.00     0.091 A 
ENDROOT
BRANCH  19  20
HETATM   20  O   UNK N   1      25.806  25.408  -4.175  0.00  0.00    -0.221 OA
BRANCH  20  21
HETATM   21  S   UNK N   1      25.729  27.064  -4.564  0.00  0.00     0.245 S 
HETATM   22  O   UNK N   1      27.063  27.513  -5.179  0.00  0.00    -0.579 OA
HETATM   23  O   UNK N   1      24.691  27.261  -5.678  0.00  0.00    -0.579 OA
BRANCH  21  24
HETATM   24  O   UNK N   1      25.329  28.080  -3.238  0.00  0.00    -0.273 OA
HETATM   25  H   UNK N   1      25.529  28.887  -2.737  0.00  0.00     0.234 HD
ENDBRANCH  21  24
ENDBRANCH  20  21
ENDBRANCH  19  20
TORSDOF 3
ENDMDL
MODEL 4
REMARK VINA RESULT:      -7.4      2.490      4.498
REMARK  3 active torsions:
REMARK  status: ('A' for Active; 'I' for Inactive)
REMARK    1  A    between atoms: S_1  and  O_3 
REMARK    2  A    between atoms: S_1  and  O_4 
REMARK    3  A    between atoms: O_3  and  C_24 
ROOT
HETATM    1  O   UNK N   1      34.592   8.233  20.074  0.00  0.00    -0.297 OA
HETATM    2  C   UNK N   1      35.313  11.229  18.475  0.00  0.00     0.006 C 
HETATM    3  C   UNK N   1      35.400   9.722  18.403  0.00  0.00     0.021 C 
HETATM    4  C   UNK N   1      35.969  11.989  17.322  0.00  0.00    -0.000 C 
HETATM    5  C   UNK N   1      35.897  11.125  16.032  0.00  0.00     0.024 C 
HETATM    6  C   UNK N   1      34.540   9.272  17.214  0.00  0.00     0.018 C 
HETATM    7  C   UNK N   1      35.477  11.659  19.919  0.00  0.00     0.013 C 
HETATM    8  C   UNK N   1      34.660  10.202  15.981  0.00  0.00     0.011 C 
HETATM    9  C   UNK N   1      35.248  13.316  17.139  0.00  0.00     0.010 C 
HETATM   10  C   UNK N   1      34.859   9.375  19.739  0.00  0.00     0.135 C 
HETATM   11  C   UNK N   1      34.776  10.531  20.683  0.00  0.00     0.079 C 
HETATM   12  C   UNK N   1      36.829   9.199  18.281  0.00  0.00     0.024 C 
HETATM   13  C   UNK N   1      36.044  11.911  14.756  0.00  0.00    -0.047 A 
HETATM   14  C   UNK N   1      35.882  14.121  16.010  0.00  0.00     0.039 C 
HETATM   15  C   UNK N   1      36.037  13.324  14.746  0.00  0.00    -0.049 A 
HETATM   16  C   UNK N   1      36.196  11.215  13.553  0.00  0.00     0.011 A 
HETATM   17  C   UNK N   1      36.192  14.009  13.535  0.00  0.00     0.045 A 
HETATM   18  C   UNK N   1      36.352  11.904  12.354  0.00  0.00     0.039 A 
HETATM   19  C   UNK N   1      36.356  13.306  12.337  0.00  0.00     0.091 A 
ENDROOT
BRANCH  19  20
HETATM   20  O   UNK N   1      36.535  13.993  11.185  0.00  0.00    -0.221 OA
BRANCH  20  21
HETATM   21  S   UNK N   1      35.412  15.137  10.610  0.00  0.00     0.245 S 
HETATM   22  O   UNK N   1      35.966  16.554  10.818  0.00  0.00    -0.579 OA
HETATM   23  O   UNK N   1      35.283  14.979   9.088  0.00  0.00    -0.579 OA
BRANCH  21  24
HETATM   24  O   UNK N   1      33.854  15.011  11.322  0.00  0.00    -0.273 OA
HETATM   25  H   UNK N   1      33.065  15.473  11.648  0.00  0.00     0.234 HD
ENDBRANCH  21  24
ENDBRANCH  20  21
ENDBRANCH  19  20
TORSDOF 3
ENDMDL
MODEL 5
REMARK VINA RESULT:      -7.4     18.196     21.467
REMARK  3 active torsions:
REMARK  status: ('A' for Active; 'I' for Inactive)
REMARK    1  A    between atoms: S_1  and  O_3 
REMARK    2  A    between atoms: S_1  and  O_4 
REMARK    3  A    between atoms: O_3  and  C_24 
ROOT
HETATM    1  O   UNK N   1      25.217  27.978  -3.526  0.00  0.00    -0.297 OA
HETATM    2  C   UNK N   1      26.754  25.507  -5.418  0.00  0.00     0.006 C 
HETATM    3  C   UNK N   1      26.840  26.364  -4.177  0.00  0.00     0.021 C 
HETATM    4  C   UNK N   1      27.952  24.592  -5.678  0.00  0.00    -0.000 C 
HETATM    5  C   UNK N   1      28.591  24.184  -4.321  0.00  0.00     0.024 C 
HETATM    6  C   UNK N   1      26.774  25.424  -2.966  0.00  0.00     0.018 C 
HETATM    7  C   UNK N   1      26.101  26.311  -6.524  0.00  0.00     0.013 C 
HETATM    8  C   UNK N   1      27.572  24.111  -3.163  0.00  0.00     0.011 C 
HETATM    9  C   UNK N   1      27.476  23.373  -6.454  0.00  0.00     0.010 C 
HETATM   10  C   UNK N   1      25.645  27.218  -4.379  0.00  0.00     0.135 C 
HETATM   11  C   UNK N   1      25.074  27.153  -5.759  0.00  0.00     0.079 C 
HETATM   12  C   UNK N   1      28.089  27.242  -4.128  0.00  0.00     0.024 C 
HETATM   13  C   UNK N   1      29.432  22.938  -4.387  0.00  0.00    -0.047 A 
HETATM   14  C   UNK N   1      28.643  22.439  -6.756  0.00  0.00     0.039 C 
HETATM   15  C   UNK N   1      29.457  22.115  -5.536  0.00  0.00    -0.049 A 
HETATM   16  C   UNK N   1      30.212  22.596  -3.278  0.00  0.00     0.011 A 
HETATM   17  C   UNK N   1      30.268  20.975  -5.553  0.00  0.00     0.045 A 
HETATM   18  C   UNK N   1      31.017  21.460  -3.306  0.00  0.00     0.039 A 
HETATM   19  C   UNK N   1      31.055  20.644  -4.445  0.00  0.00     0.091 A 
ENDROOT
BRANCH  19  20
HETATM   20  O   UNK N   1      31.853  19.553  -4.500  0.00  0.00    -0.221 OA
BRANCH  20  21
HETATM   21  S   UNK N   1      33.503  19.639  -4.914  0.00  0.00     0.245 S 
HETATM   22  O   UNK N   1      34.267  18.498  -4.227  0.00  0.00    -0.579 OA
HETATM   23  O   UNK N   1      33.649  19.367  -6.418  0.00  0.00    -0.579 OA
BRANCH  21  24
HETATM   24  O   UNK N   1      34.243  21.143  -4.540  0.00  0.00    -0.273 OA
HETATM   25  H   UNK N   1      35.021  21.606  -4.188  0.00  0.00     0.234 HD
ENDBRANCH  21  24
ENDBRANCH  20  21
ENDBRANCH  19  20
TORSDOF 3
ENDMDL
MODEL 6
REMARK VINA RESULT:      -7.3      4.762      9.420
REMARK  3 active torsions:
REMARK  status: ('A' for Active; 'I' for Inactive)
REMARK    1  A    between atoms: S_1  and  O_3 
REMARK    2  A    between atoms: S_1  and  O_4 
REMARK    3  A    between atoms: O_3  and  C_24 
ROOT
HETATM    1  O   UNK N   1      36.873  11.832  10.920  0.00  0.00    -0.297 OA
HETATM    2  C   UNK N   1      35.952  12.914  14.087  0.00  0.00     0.006 C 
HETATM    3  C   UNK N   1      36.028  11.737  13.142  0.00  0.00     0.021 C 
HETATM    4  C   UNK N   1      35.299  12.637  15.442  0.00  0.00    -0.000 C 
HETATM    5  C   UNK N   1      35.547  11.155  15.838  0.00  0.00     0.024 C 
HETATM    6  C   UNK N   1      37.008  10.725  13.752  0.00  0.00     0.018 C 
HETATM    7  C   UNK N   1      35.647  14.164  13.287  0.00  0.00     0.013 C 
HETATM    8  C   UNK N   1      36.874  10.589  15.289  0.00  0.00     0.011 C 
HETATM    9  C   UNK N   1      35.888  13.591  16.471  0.00  0.00     0.010 C 
HETATM   10  C   UNK N   1      36.512  12.426  11.922  0.00  0.00     0.135 C 
HETATM   11  C   UNK N   1      36.410  13.916  11.981  0.00  0.00     0.079 C 
HETATM   12  C   UNK N   1      34.673  11.094  12.860  0.00  0.00     0.024 C 
HETATM   13  C   UNK N   1      35.404  10.880  17.311  0.00  0.00    -0.047 A 
HETATM   14  C   UNK N   1      35.250  13.366  17.838  0.00  0.00     0.039 C 
HETATM   15  C   UNK N   1      35.264  11.923  18.254  0.00  0.00    -0.049 A 
HETATM   16  C   UNK N   1      35.406   9.552  17.749  0.00  0.00     0.011 A 
HETATM   17  C   UNK N   1      35.120  11.614  19.612  0.00  0.00     0.045 A 
HETATM   18  C   UNK N   1      35.260   9.254  19.101  0.00  0.00     0.039 A 
HETATM   19  C   UNK N   1      35.111  10.283  20.042  0.00  0.00     0.091 A 
ENDROOT
BRANCH  19  20
HETATM   20  O   UNK N   1      34.938  10.012  21.356  0.00  0.00    -0.221 OA
BRANCH  20  21
HETATM   21  S   UNK N   1      33.410  10.030  22.107  0.00  0.00     0.245 S 
HETATM   22  O   UNK N   1      32.364   9.418  21.163  0.00  0.00    -0.579 OA
HETATM   23  O   UNK N   1      33.446   9.092  23.321  0.00  0.00    -0.579 OA
BRANCH  21  24
HETATM   24  O   UNK N   1      32.895  11.588  22.615  0.00  0.00    -0.273 OA
HETATM   25  H   UNK N   1      32.339  12.363  22.436  0.00  0.00     0.234 HD
ENDBRANCH  21  24
ENDBRANCH  20  21
ENDBRANCH  19  20
TORSDOF 3
ENDMDL
MODEL 7
REMARK VINA RESULT:      -7.3      5.029      7.446
REMARK  3 active torsions:
REMARK  status: ('A' for Active; 'I' for Inactive)
REMARK    1  A    between atoms: S_1  and  O_3 
REMARK    2  A    between atoms: S_1  and  O_4 
REMARK    3  A    between atoms: O_3  and  C_24 
ROOT
HETATM    1  O   UNK N   1      36.892  15.232  10.196  0.00  0.00    -0.297 OA
HETATM    2  C   UNK N   1      34.143  14.988   8.089  0.00  0.00     0.006 C 
HETATM    3  C   UNK N   1      34.660  15.500   9.414  0.00  0.00     0.021 C 
HETATM    4  C   UNK N   1      32.652  15.207   7.829  0.00  0.00    -0.000 C 
HETATM    5  C   UNK N   1      32.187  16.496   8.562  0.00  0.00     0.024 C 
HETATM    6  C   UNK N   1      34.579  17.032   9.374  0.00  0.00     0.018 C 
HETATM    7  C   UNK N   1      34.833  13.677   7.769  0.00  0.00     0.013 C 
HETATM    8  C   UNK N   1      33.296  17.562   8.687  0.00  0.00     0.011 C 
HETATM    9  C   UNK N   1      32.429  15.312   6.328  0.00  0.00     0.010 C 
HETATM   10  C   UNK N   1      36.033  14.940   9.380  0.00  0.00     0.135 C 
HETATM   11  C   UNK N   1      36.242  13.899   8.329  0.00  0.00     0.079 C 
HETATM   12  C   UNK N   1      33.911  14.937  10.619  0.00  0.00     0.024 C 
HETATM   13  C   UNK N   1      30.918  17.091   8.012  0.00  0.00    -0.047 A 
HETATM   14  C   UNK N   1      30.950  15.510   6.017  0.00  0.00     0.039 C 
HETATM   15  C   UNK N   1      30.334  16.626   6.812  0.00  0.00    -0.049 A 
HETATM   16  C   UNK N   1      30.303  18.130   8.719  0.00  0.00     0.011 A 
HETATM   17  C   UNK N   1      29.145  17.202   6.352  0.00  0.00     0.045 A 
HETATM   18  C   UNK N   1      29.119  18.696   8.254  0.00  0.00     0.039 A 
HETATM   19  C   UNK N   1      28.529  18.233   7.069  0.00  0.00     0.091 A 
ENDROOT
BRANCH  19  20
HETATM   20  O   UNK N   1      27.364  18.751   6.618  0.00  0.00    -0.221 OA
BRANCH  20  21
HETATM   21  S   UNK N   1      27.298  20.056   5.525  0.00  0.00     0.245 S 
HETATM   22  O   UNK N   1      25.834  20.364   5.178  0.00  0.00    -0.579 OA
HETATM   23  O   UNK N   1      27.813  21.318   6.232  0.00  0.00    -0.579 OA
BRANCH  21  24
HETATM   24  O   UNK N   1      28.199  19.812   4.084  0.00  0.00    -0.273 OA
HETATM   25  H   UNK N   1      29.017  19.988   3.591  0.00  0.00     0.234 HD
ENDBRANCH  21  24
ENDBRANCH  20  21
ENDBRANCH  19  20
TORSDOF 3
ENDMDL
MODEL 8
REMARK VINA RESULT:      -6.9      8.009     11.335
REMARK  3 active torsions:
REMARK  status: ('A' for Active; 'I' for Inactive)
REMARK    1  A    between atoms: S_1  and  O_3 
REMARK    2  A    between atoms: S_1  and  O_4 
REMARK    3  A    between atoms: O_3  and  C_24 
ROOT
HETATM    1  O   UNK N   1      23.462  15.520   3.575  0.00  0.00    -0.297 OA
HETATM    2  C   UNK N   1      26.923  15.784   3.651  0.00  0.00     0.006 C 
HETATM    3  C   UNK N   1      25.619  16.287   4.225  0.00  0.00     0.021 C 
HETATM    4  C   UNK N   1      28.186  16.477   4.163  0.00  0.00    -0.000 C 
HETATM    5  C   UNK N   1      27.950  16.964   5.620  0.00  0.00     0.024 C 
HETATM    6  C   UNK N   1      25.596  15.904   5.711  0.00  0.00     0.018 C 
HETATM    7  C   UNK N   1      26.720  15.463   2.184  0.00  0.00     0.013 C 
HETATM    8  C   UNK N   1      26.968  16.073   6.410  0.00  0.00     0.011 C 
HETATM    9  C   UNK N   1      29.346  15.496   4.088  0.00  0.00     0.010 C 
HETATM   10  C   UNK N   1      24.665  15.545   3.368  0.00  0.00     0.135 C 
HETATM   11  C   UNK N   1      25.286  14.923   2.159  0.00  0.00     0.079 C 
HETATM   12  C   UNK N   1      25.410  17.788   4.038  0.00  0.00     0.024 C 
HETATM   13  C   UNK N   1      29.215  17.207   6.400  0.00  0.00    -0.047 A 
HETATM   14  C   UNK N   1      30.636  16.151   4.570  0.00  0.00     0.039 C 
HETATM   15  C   UNK N   1      30.482  16.823   5.905  0.00  0.00    -0.049 A 
HETATM   16  C   UNK N   1      29.124  17.835   7.646  0.00  0.00     0.011 A 
HETATM   17  C   UNK N   1      31.629  17.086   6.662  0.00  0.00     0.045 A 
HETATM   18  C   UNK N   1      30.271  18.093   8.391  0.00  0.00     0.039 A 
HETATM   19  C   UNK N   1      31.533  17.724   7.902  0.00  0.00     0.091 A 
ENDROOT
BRANCH  19  20
HETATM   20  O   UNK N   1      32.661  17.993   8.599  0.00  0.00    -0.221 OA
BRANCH  20  21
HETATM   21  S   UNK N   1      34.211  17.942   7.896  0.00  0.00     0.245 S 
HETATM   22  O   UNK N   1      35.060  19.103   8.435  0.00  0.00    -0.579 OA
HETATM   23  O   UNK N   1      34.928  16.671   8.373  0.00  0.00    -0.579 OA
BRANCH  21  24
HETATM   24  O   UNK N   1      34.206  17.974   6.179  0.00  0.00    -0.273 OA
HETATM   25  H   UNK N   1      33.799  17.656   5.357  0.00  0.00     0.234 HD
ENDBRANCH  21  24
ENDBRANCH  20  21
ENDBRANCH  19  20
TORSDOF 3
ENDMDL
MODEL 9
REMARK VINA RESULT:      -6.7      4.866      9.597
REMARK  3 active torsions:
REMARK  status: ('A' for Active; 'I' for Inactive)
REMARK    1  A    between atoms: S_1  and  O_3 
REMARK    2  A    between atoms: S_1  and  O_4 
REMARK    3  A    between atoms: O_3  and  C_24 
ROOT
HETATM    1  O   UNK N   1      36.998  11.686  10.866  0.00  0.00    -0.297 OA
HETATM    2  C   UNK N   1      36.053  12.894  13.980  0.00  0.00     0.006 C 
HETATM    3  C   UNK N   1      36.128  11.682  13.081  0.00  0.00     0.021 C 
HETATM    4  C   UNK N   1      35.384  12.674  15.337  0.00  0.00    -0.000 C 
HETATM    5  C   UNK N   1      35.613  11.205  15.791  0.00  0.00     0.024 C 
HETATM    6  C   UNK N   1      37.092  10.684  13.738  0.00  0.00     0.018 C 
HETATM    7  C   UNK N   1      35.769  14.116  13.131  0.00  0.00     0.013 C 
HETATM    8  C   UNK N   1      36.940  10.607  15.278  0.00  0.00     0.011 C 
HETATM    9  C   UNK N   1      35.970  13.660  16.337  0.00  0.00     0.010 C 
HETATM   10  C   UNK N   1      36.631  12.320  11.841  0.00  0.00     0.135 C 
HETATM   11  C   UNK N   1      36.543  13.813  11.844  0.00  0.00     0.079 C 
HETATM   12  C   UNK N   1      34.770  11.041  12.808  0.00  0.00     0.024 C 
HETATM   13  C   UNK N   1      35.452  10.987  17.272  0.00  0.00    -0.047 A 
HETATM   14  C   UNK N   1      35.317  13.493  17.704  0.00  0.00     0.039 C 
HETATM   15  C   UNK N   1      35.312  12.065  18.174  0.00  0.00    -0.049 A 
HETATM   16  C   UNK N   1      35.437   9.676  17.758  0.00  0.00     0.011 A 
HETATM   17  C   UNK N   1      35.150  11.809  19.540  0.00  0.00     0.045 A 
HETATM   18  C   UNK N   1      35.273   9.431  19.119  0.00  0.00     0.039 A 
HETATM   19  C   UNK N   1      35.124  10.495  20.019  0.00  0.00     0.091 A 
ENDROOT
BRANCH  19  20
HETATM   20  O   UNK N   1      34.935  10.275  21.340  0.00  0.00    -0.221 OA
BRANCH  20  21
HETATM   21  S   UNK N   1      36.154   9.652  22.354  0.00  0.00     0.245 S 
HETATM   22  O   UNK N   1      36.221   8.125  22.201  0.00  0.00    -0.579 OA
HETATM   23  O   UNK N   1      37.515  10.162  21.861  0.00  0.00    -0.579 OA
BRANCH  21  24
HETATM   24  O   UNK N   1      35.967  10.062  24.011  0.00  0.00    -0.273 OA
HETATM   25  H   UNK N   1      35.902   9.750  24.928  0.00  0.00     0.234 HD
ENDBRANCH  21  24
ENDBRANCH  20  21
ENDBRANCH  19  20
TORSDOF 3
ENDMDL
