REMARK  6 active torsions:
REMARK  status: ('A' for Active; 'I' for Inactive)
REMARK    1  A    between atoms: O_1  and  C_7 
REMARK    2  A    between atoms: O_1  and  C_12 
REMARK    3  A    between atoms: O_2  and  C_13 
REMARK    4  A    between atoms: C_12  and  C_13 
REMARK    5  A    between atoms: C_13  and  C_14 
REMARK    6  A    between atoms: C_13  and  C_15 
ROOT
HETATM    1  C   UNK N   1       3.795   1.202  -0.510  0.00  0.00     0.201 C 
ENDROOT
BRANCH   1   2
HETATM    2  O   UNK N   1       3.919   0.786  -1.844  0.00  0.00    -0.371 OA
HETATM    3  H   UNK N   1       3.713   0.569  -2.766  0.00  0.00     0.212 HD
ENDBRANCH   1   2
BRANCH   1   4
HETATM    4  C   UNK N   1       4.406   0.118   0.363  0.00  0.00     0.303 C 
HETATM    5  O   UNK N   1       4.483   0.262   1.578  0.00  0.00    -0.261 OA
BRANCH   4   6
HETATM    6  O   UNK N   1       4.874  -1.010  -0.227  0.00  0.00    -0.311 OA
BRANCH   6   7
HETATM    7  C   UNK N   1       5.701  -1.927   0.377  0.00  0.00     0.158 C 
HETATM    8  C   UNK N   1       5.704  -3.194  -0.482  0.00  0.00     0.268 C 
HETATM    9  N   UNK N   1       6.621  -4.234   0.010  0.00  0.00    -0.072 N 
HETATM   10  C   UNK N   1       7.756  -3.735   0.800  0.00  0.00     0.236 C 
HETATM   11  C   UNK N   1       5.876  -5.172   0.831  0.00  0.00     0.272 C 
HETATM   12  C   UNK N   1       7.130  -4.957  -1.143  0.00  0.00     0.272 C 
HETATM   13  C   UNK N   1       8.233  -2.368   0.317  0.00  0.00     0.030 C 
HETATM   14  C   UNK N   1       7.117  -1.331   0.457  0.00  0.00     0.036 C 
ENDBRANCH   6   7
ENDBRANCH   4   6
ENDBRANCH   1   4
BRANCH   1  15
HETATM   15  C   UNK N   1       2.314   1.423  -0.249  0.00  0.00    -0.009 A 
HETATM   16  C   UNK N   1       1.616   0.698   0.734  0.00  0.00     0.011 A 
HETATM   17  C   UNK N   1       0.246   0.901   0.924  0.00  0.00     0.001 A 
HETATM   18  C   UNK N   1      -0.442   1.824   0.133  0.00  0.00     0.000 A 
HETATM   19  C   UNK N   1       0.240   2.548  -0.848  0.00  0.00     0.001 A 
HETATM   20  C   UNK N   1       1.610   2.348  -1.038  0.00  0.00     0.011 A 
ENDBRANCH   1  15
BRANCH   1  21
HETATM   21  C   UNK N   1       4.566   2.499  -0.309  0.00  0.00    -0.009 A 
HETATM   22  C   UNK N   1       4.536   3.160   0.932  0.00  0.00     0.011 A 
HETATM   23  C   UNK N   1       5.241   4.353   1.117  0.00  0.00     0.001 A 
HETATM   24  C   UNK N   1       5.989   4.893   0.068  0.00  0.00     0.000 A 
HETATM   25  C   UNK N   1       6.028   4.244  -1.168  0.00  0.00     0.001 A 
HETATM   26  C   UNK N   1       5.318   3.056  -1.357  0.00  0.00     0.011 A 
ENDBRANCH   1  21
TORSDOF 6
