MODEL 1
REMARK VINA RESULT:      -7.7      0.000      0.000
REMARK  8 active torsions:
REMARK  status: ('A' for Active; 'I' for Inactive)
REMARK    1  A    between atoms: O_3  and  C_19 
REMARK    2  A    between atoms: O_3  and  C_24 
REMARK    3  A    between atoms: O_4  and  C_25 
REMARK    4  A    between atoms: N_6  and  C_14 
REMARK    5  A    between atoms: C_9  and  C_15 
REMARK    6  A    between atoms: C_14  and  C_16 
REMARK    7  A    between atoms: C_16  and  C_19 
REMARK    8  A    between atoms: C_29  and  C_30 
ROOT
HETATM    1  N   UNK N   1      30.755  17.358   5.596  0.00  0.00     0.088 N 
HETATM    2  C   UNK N   1      32.768  16.875   7.567  0.00  0.00     0.042 C 
HETATM    3  C   UNK N   1      31.406  17.393   7.980  0.00  0.00     0.041 C 
HETATM    4  C   UNK N   1      33.124  17.417   6.189  0.00  0.00     0.041 C 
HETATM    5  C   UNK N   1      30.423  16.863   6.942  0.00  0.00     0.273 C 
HETATM    6  C   UNK N   1      32.085  16.895   5.208  0.00  0.00     0.273 C 
ENDROOT
BRANCH   1   7
HETATM    7  C   UNK N   1      29.810  16.752   4.666  0.00  0.00     0.274 C 
BRANCH   7   8
HETATM    8  C   UNK N   1      28.676  16.049   5.406  0.00  0.00     0.057 C 
BRANCH   8   9
HETATM    9  C   UNK N   1      27.350  16.329   4.711  0.00  0.00     0.177 C 
BRANCH   9  10
HETATM   10  O   UNK N   1      26.526  17.304   5.239  0.00  0.00    -0.348 OA
BRANCH  10  11
HETATM   11  C   UNK N   1      25.496  17.998   4.696  0.00  0.00     0.102 A 
HETATM   12  C   UNK N   1      25.778  19.261   4.163  0.00  0.00     0.102 A 
HETATM   13  C   UNK N   1      24.748  20.017   3.582  0.00  0.00     0.054 A 
HETATM   14  C   UNK N   1      23.440  19.522   3.531  0.00  0.00     0.012 A 
HETATM   15  C   UNK N   1      23.161  18.261   4.074  0.00  0.00     0.018 A 
HETATM   16  C   UNK N   1      24.183  17.505   4.653  0.00  0.00     0.040 A 
BRANCH  12  17
HETATM   17  O   UNK N   1      27.050  19.725   4.221  0.00  0.00    -0.353 OA
HETATM   18  C   UNK N   1      27.479  20.655   5.141  0.00  0.00     0.210 C 
ENDBRANCH  12  17
BRANCH  14  19
HETATM   19  C   UNK N   1      22.370  20.326   2.903  0.00  0.00     0.155 C 
HETATM   20  O   UNK N   1      22.480  21.540   2.831  0.00  0.00    -0.293 OA
HETATM   21  C   UNK N   1      21.149  19.673   2.344  0.00  0.00     0.096 C 
ENDBRANCH  14  19
ENDBRANCH  10  11
ENDBRANCH   9  10
ENDBRANCH   8   9
ENDBRANCH   7   8
ENDBRANCH   1   7
BRANCH   2  22
HETATM   22  C   UNK N   1      33.860  17.105   8.553  0.00  0.00     0.050 A 
HETATM   23  N   UNK N   1      34.622  18.220   8.687  0.00  0.00    -0.264 N 
HETATM   24  O   UNK N   1      35.433  18.012   9.692  0.00  0.00    -0.237 OA
ATOM     25  HN  UNK N   1      34.572  19.061   8.113  1.00  0.00     0.194 HD
HETATM   26  C   UNK N   1      35.228  16.819  10.207  0.00  0.00     0.114 A 
HETATM   27  C   UNK N   1      34.234  16.211   9.510  0.00  0.00     0.025 A 
HETATM   28  C   UNK N   1      35.861  16.194  11.276  0.00  0.00     0.082 A 
HETATM   29  C   UNK N   1      33.781  14.931   9.811  0.00  0.00     0.019 A 
HETATM   30  C   UNK N   1      34.397  14.262  10.878  0.00  0.00     0.043 A 
HETATM   31  C   UNK N   1      35.433  14.888  11.610  0.00  0.00     0.119 A 
HETATM   32  F   UNK N   1      36.014  14.227  12.636  0.00  0.00    -0.206 F 
ENDBRANCH   2  22
TORSDOF 8
ENDMDL
MODEL 2
REMARK VINA RESULT:      -7.7      5.215      9.829
REMARK  8 active torsions:
REMARK  status: ('A' for Active; 'I' for Inactive)
REMARK    1  A    between atoms: O_3  and  C_19 
REMARK    2  A    between atoms: O_3  and  C_24 
REMARK    3  A    between atoms: O_4  and  C_25 
REMARK    4  A    between atoms: N_6  and  C_14 
REMARK    5  A    between atoms: C_9  and  C_15 
REMARK    6  A    between atoms: C_14  and  C_16 
REMARK    7  A    between atoms: C_16  and  C_19 
REMARK    8  A    between atoms: C_29  and  C_30 
ROOT
HETATM    1  N   UNK N   1      26.608  14.823   5.031  0.00  0.00     0.088 N 
HETATM    2  C   UNK N   1      24.967  13.669   7.066  0.00  0.00     0.042 C 
HETATM    3  C   UNK N   1      25.172  12.946   5.751  0.00  0.00     0.041 C 
HETATM    4  C   UNK N   1      24.995  15.174   6.831  0.00  0.00     0.041 C 
HETATM    5  C   UNK N   1      26.548  13.369   5.250  0.00  0.00     0.273 C 
HETATM    6  C   UNK N   1      26.372  15.528   6.289  0.00  0.00     0.273 C 
ENDROOT
BRANCH   1   7
HETATM    7  C   UNK N   1      27.970  15.144   4.619  0.00  0.00     0.274 C 
BRANCH   7   8
HETATM    8  C   UNK N   1      28.041  16.517   3.959  0.00  0.00     0.057 C 
BRANCH   8   9
HETATM    9  C   UNK N   1      29.088  17.376   4.658  0.00  0.00     0.177 C 
BRANCH   9  10
HETATM   10  O   UNK N   1      29.643  16.908   5.832  0.00  0.00    -0.348 OA
BRANCH  10  11
HETATM   11  C   UNK N   1      30.822  17.186   6.441  0.00  0.00     0.102 A 
HETATM   12  C   UNK N   1      30.782  17.545   7.793  0.00  0.00     0.102 A 
HETATM   13  C   UNK N   1      31.976  17.835   8.471  0.00  0.00     0.054 A 
HETATM   14  C   UNK N   1      33.208  17.772   7.809  0.00  0.00     0.012 A 
HETATM   15  C   UNK N   1      33.241  17.420   6.454  0.00  0.00     0.018 A 
HETATM   16  C   UNK N   1      32.056  17.130   5.775  0.00  0.00     0.040 A 
BRANCH  12  17
HETATM   17  O   UNK N   1      29.581  17.603   8.418  0.00  0.00    -0.353 OA
HETATM   18  C   UNK N   1      29.406  17.329   9.755  0.00  0.00     0.210 C 
ENDBRANCH  12  17
BRANCH  14  19
HETATM   19  C   UNK N   1      34.456  18.067   8.543  0.00  0.00     0.155 C 
HETATM   20  O   UNK N   1      35.065  19.102   8.322  0.00  0.00    -0.293 OA
HETATM   21  C   UNK N   1      34.987  17.116   9.566  0.00  0.00     0.096 C 
ENDBRANCH  14  19
ENDBRANCH  10  11
ENDBRANCH   9  10
ENDBRANCH   8   9
ENDBRANCH   7   8
ENDBRANCH   1   7
BRANCH   2  22
HETATM   22  C   UNK N   1      23.766  13.251   7.839  0.00  0.00     0.050 A 
HETATM   23  N   UNK N   1      22.485  13.185   7.394  0.00  0.00    -0.264 N 
HETATM   24  O   UNK N   1      21.756  12.739   8.385  0.00  0.00    -0.237 OA
ATOM     25  HN  UNK N   1      22.154  13.436   6.463  1.00  0.00     0.194 HD
HETATM   26  C   UNK N   1      22.507  12.517   9.443  0.00  0.00     0.114 A 
HETATM   27  C   UNK N   1      23.792  12.830   9.135  0.00  0.00     0.025 A 
HETATM   28  C   UNK N   1      22.149  12.047  10.701  0.00  0.00     0.082 A 
HETATM   29  C   UNK N   1      24.834  12.704  10.047  0.00  0.00     0.019 A 
HETATM   30  C   UNK N   1      24.515  12.238  11.331  0.00  0.00     0.043 A 
HETATM   31  C   UNK N   1      23.179  11.909  11.659  0.00  0.00     0.119 A 
HETATM   32  F   UNK N   1      22.892  11.461  12.903  0.00  0.00    -0.206 F 
ENDBRANCH   2  22
TORSDOF 8
ENDMDL
MODEL 3
REMARK VINA RESULT:      -7.6      3.551      5.946
REMARK  8 active torsions:
REMARK  status: ('A' for Active; 'I' for Inactive)
REMARK    1  A    between atoms: O_3  and  C_19 
REMARK    2  A    between atoms: O_3  and  C_24 
REMARK    3  A    between atoms: O_4  and  C_25 
REMARK    4  A    between atoms: N_6  and  C_14 
REMARK    5  A    between atoms: C_9  and  C_15 
REMARK    6  A    between atoms: C_14  and  C_16 
REMARK    7  A    between atoms: C_16  and  C_19 
REMARK    8  A    between atoms: C_29  and  C_30 
ROOT
HETATM    1  N   UNK N   1      35.223  15.092   9.473  0.00  0.00     0.088 N 
HETATM    2  C   UNK N   1      35.354  14.271  12.208  0.00  0.00     0.042 C 
HETATM    3  C   UNK N   1      35.782  15.668  11.810  0.00  0.00     0.041 C 
HETATM    4  C   UNK N   1      35.662  13.300  11.075  0.00  0.00     0.041 C 
HETATM    5  C   UNK N   1      34.957  16.026  10.579  0.00  0.00     0.273 C 
HETATM    6  C   UNK N   1      34.849  13.735   9.864  0.00  0.00     0.273 C 
ENDROOT
BRANCH   1   7
HETATM    7  C   UNK N   1      34.348  15.467   8.369  0.00  0.00     0.274 C 
BRANCH   7   8
HETATM    8  C   UNK N   1      32.878  15.330   8.754  0.00  0.00     0.057 C 
BRANCH   8   9
HETATM    9  C   UNK N   1      32.111  16.575   8.326  0.00  0.00     0.177 C 
BRANCH   9  10
HETATM   10  O   UNK N   1      30.906  16.410   7.673  0.00  0.00    -0.348 OA
BRANCH  10  11
HETATM   11  C   UNK N   1      29.940  17.300   7.333  0.00  0.00     0.102 A 
HETATM   12  C   UNK N   1      29.637  17.435   5.973  0.00  0.00     0.102 A 
HETATM   13  C   UNK N   1      28.640  18.336   5.569  0.00  0.00     0.054 A 
HETATM   14  C   UNK N   1      27.946  19.104   6.512  0.00  0.00     0.012 A 
HETATM   15  C   UNK N   1      28.259  18.971   7.871  0.00  0.00     0.018 A 
HETATM   16  C   UNK N   1      29.250  18.075   8.278  0.00  0.00     0.040 A 
BRANCH  12  17
HETATM   17  O   UNK N   1      30.319  16.685   5.074  0.00  0.00    -0.353 OA
HETATM   18  C   UNK N   1      31.329  17.180   4.281  0.00  0.00     0.210 C 
ENDBRANCH  12  17
BRANCH  14  19
HETATM   19  C   UNK N   1      26.890  20.038   6.069  0.00  0.00     0.155 C 
HETATM   20  O   UNK N   1      26.193  19.761   5.106  0.00  0.00    -0.293 OA
HETATM   21  C   UNK N   1      26.653  21.324   6.792  0.00  0.00     0.096 C 
ENDBRANCH  14  19
ENDBRANCH  10  11
ENDBRANCH   9  10
ENDBRANCH   8   9
ENDBRANCH   7   8
ENDBRANCH   1   7
BRANCH   2  22
HETATM   22  C   UNK N   1      35.889  13.790  13.511  0.00  0.00     0.050 A 
HETATM   23  N   UNK N   1      36.921  14.316  14.218  0.00  0.00    -0.264 N 
HETATM   24  O   UNK N   1      37.034  13.610  15.315  0.00  0.00    -0.237 OA
ATOM     25  HN  UNK N   1      37.500  15.110  13.946  1.00  0.00     0.194 HD
HETATM   26  C   UNK N   1      36.126  12.659  15.343  0.00  0.00     0.114 A 
HETATM   27  C   UNK N   1      35.377  12.741  14.213  0.00  0.00     0.025 A 
HETATM   28  C   UNK N   1      35.888  11.689  16.311  0.00  0.00     0.082 A 
HETATM   29  C   UNK N   1      34.328  11.869  13.944  0.00  0.00     0.019 A 
HETATM   30  C   UNK N   1      34.058  10.871  14.891  0.00  0.00     0.043 A 
HETATM   31  C   UNK N   1      34.833  10.779  16.071  0.00  0.00     0.119 A 
HETATM   32  F   UNK N   1      34.556   9.811  16.974  0.00  0.00    -0.206 F 
ENDBRANCH   2  22
TORSDOF 8
ENDMDL
MODEL 4
REMARK VINA RESULT:      -7.6     12.427     16.128
REMARK  8 active torsions:
REMARK  status: ('A' for Active; 'I' for Inactive)
REMARK    1  A    between atoms: O_3  and  C_19 
REMARK    2  A    between atoms: O_3  and  C_24 
REMARK    3  A    between atoms: O_4  and  C_25 
REMARK    4  A    between atoms: N_6  and  C_14 
REMARK    5  A    between atoms: C_9  and  C_15 
REMARK    6  A    between atoms: C_14  and  C_16 
REMARK    7  A    between atoms: C_16  and  C_19 
REMARK    8  A    between atoms: C_29  and  C_30 
ROOT
HETATM    1  N   UNK N   1      25.906  26.300  -7.613  0.00  0.00     0.088 N 
HETATM    2  C   UNK N   1      26.754  27.653  -5.243  0.00  0.00     0.042 C 
HETATM    3  C   UNK N   1      25.314  27.208  -5.392  0.00  0.00     0.041 C 
HETATM    4  C   UNK N   1      27.319  28.021  -6.609  0.00  0.00     0.041 C 
HETATM    5  C   UNK N   1      25.347  25.977  -6.290  0.00  0.00     0.273 C 
HETATM    6  C   UNK N   1      27.283  26.768  -7.472  0.00  0.00     0.273 C 
ENDROOT
BRANCH   1   7
HETATM    7  C   UNK N   1      25.960  25.058  -8.376  0.00  0.00     0.274 C 
BRANCH   7   8
HETATM    8  C   UNK N   1      25.596  23.857  -7.508  0.00  0.00     0.057 C 
BRANCH   8   9
HETATM    9  C   UNK N   1      26.588  22.726  -7.743  0.00  0.00     0.177 C 
BRANCH   9  10
HETATM   10  O   UNK N   1      27.920  22.952  -7.458  0.00  0.00    -0.348 OA
BRANCH  10  11
HETATM   11  C   UNK N   1      28.620  22.849  -6.301  0.00  0.00     0.102 A 
HETATM   12  C   UNK N   1      29.615  21.867  -6.233  0.00  0.00     0.102 A 
HETATM   13  C   UNK N   1      30.373  21.725  -5.061  0.00  0.00     0.054 A 
HETATM   14  C   UNK N   1      30.143  22.554  -3.956  0.00  0.00     0.012 A 
HETATM   15  C   UNK N   1      29.141  23.529  -4.026  0.00  0.00     0.018 A 
HETATM   16  C   UNK N   1      28.384  23.675  -5.191  0.00  0.00     0.040 A 
BRANCH  12  17
HETATM   17  O   UNK N   1      29.823  21.073  -7.311  0.00  0.00    -0.353 OA
HETATM   18  C   UNK N   1      29.779  19.698  -7.262  0.00  0.00     0.210 C 
ENDBRANCH  12  17
BRANCH  14  19
HETATM   19  C   UNK N   1      30.961  22.399  -2.734  0.00  0.00     0.155 C 
HETATM   20  O   UNK N   1      30.594  22.903  -1.685  0.00  0.00    -0.293 OA
HETATM   21  C   UNK N   1      32.237  21.623  -2.760  0.00  0.00     0.096 C 
ENDBRANCH  14  19
ENDBRANCH  10  11
ENDBRANCH   9  10
ENDBRANCH   8   9
ENDBRANCH   7   8
ENDBRANCH   1   7
BRANCH   2  22
HETATM   22  C   UNK N   1      26.985  28.729  -4.240  0.00  0.00     0.050 A 
HETATM   23  N   UNK N   1      26.099  29.672  -3.830  0.00  0.00    -0.264 N 
HETATM   24  O   UNK N   1      26.701  30.393  -2.918  0.00  0.00    -0.237 OA
ATOM     25  HN  UNK N   1      25.146  29.795  -4.168  1.00  0.00     0.194 HD
HETATM   26  C   UNK N   1      27.928  29.958  -2.726  0.00  0.00     0.114 A 
HETATM   27  C   UNK N   1      28.147  28.900  -3.548  0.00  0.00     0.025 A 
HETATM   28  C   UNK N   1      28.908  30.428  -1.859  0.00  0.00     0.082 A 
HETATM   29  C   UNK N   1      29.356  28.215  -3.583  0.00  0.00     0.019 A 
HETATM   30  C   UNK N   1      30.375  28.659  -2.729  0.00  0.00     0.043 A 
HETATM   31  C   UNK N   1      30.155  29.760  -1.868  0.00  0.00     0.119 A 
HETATM   32  F   UNK N   1      31.150  30.174  -1.051  0.00  0.00    -0.206 F 
ENDBRANCH   2  22
TORSDOF 8
ENDMDL
MODEL 5
REMARK VINA RESULT:      -7.6      4.573     12.292
REMARK  8 active torsions:
REMARK  status: ('A' for Active; 'I' for Inactive)
REMARK    1  A    between atoms: O_3  and  C_19 
REMARK    2  A    between atoms: O_3  and  C_24 
REMARK    3  A    between atoms: O_4  and  C_25 
REMARK    4  A    between atoms: N_6  and  C_14 
REMARK    5  A    between atoms: C_9  and  C_15 
REMARK    6  A    between atoms: C_14  and  C_16 
REMARK    7  A    between atoms: C_16  and  C_19 
REMARK    8  A    between atoms: C_29  and  C_30 
ROOT
HETATM    1  N   UNK N   1      34.693  14.999   9.623  0.00  0.00     0.088 N 
HETATM    2  C   UNK N   1      32.408  16.243   8.438  0.00  0.00     0.042 C 
HETATM    3  C   UNK N   1      33.552  17.088   8.959  0.00  0.00     0.041 C 
HETATM    4  C   UNK N   1      32.273  14.987   9.290  0.00  0.00     0.041 C 
HETATM    5  C   UNK N   1      34.804  16.229   8.822  0.00  0.00     0.273 C 
HETATM    6  C   UNK N   1      33.566  14.197   9.152  0.00  0.00     0.273 C 
ENDROOT
BRANCH   1   7
HETATM    7  C   UNK N   1      35.898  14.214   9.381  0.00  0.00     0.274 C 
BRANCH   7   8
HETATM    8  C   UNK N   1      36.960  14.488  10.441  0.00  0.00     0.057 C 
BRANCH   8   9
HETATM    9  C   UNK N   1      36.974  13.362  11.467  0.00  0.00     0.177 C 
BRANCH   9  10
HETATM   10  O   UNK N   1      35.886  13.227  12.307  0.00  0.00    -0.348 OA
BRANCH  10  11
HETATM   11  C   UNK N   1      35.787  13.256  13.659  0.00  0.00     0.102 A 
HETATM   12  C   UNK N   1      34.879  12.377  14.259  0.00  0.00     0.102 A 
HETATM   13  C   UNK N   1      34.744  12.363  15.656  0.00  0.00     0.054 A 
HETATM   14  C   UNK N   1      35.508  13.220  16.457  0.00  0.00     0.012 A 
HETATM   15  C   UNK N   1      36.410  14.104  15.850  0.00  0.00     0.018 A 
HETATM   16  C   UNK N   1      36.547  14.122  14.461  0.00  0.00     0.040 A 
BRANCH  12  17
HETATM   17  O   UNK N   1      34.146  11.555  13.470  0.00  0.00    -0.353 OA
HETATM   18  C   UNK N   1      34.329  10.192  13.414  0.00  0.00     0.210 C 
ENDBRANCH  12  17
BRANCH  14  19
HETATM   19  C   UNK N   1      35.363  13.182  17.927  0.00  0.00     0.155 C 
HETATM   20  O   UNK N   1      35.332  14.222  18.566  0.00  0.00    -0.293 OA
HETATM   21  C   UNK N   1      35.246  11.880  18.651  0.00  0.00     0.096 C 
ENDBRANCH  14  19
ENDBRANCH  10  11
ENDBRANCH   9  10
ENDBRANCH   8   9
ENDBRANCH   7   8
ENDBRANCH   1   7
BRANCH   2  22
HETATM   22  C   UNK N   1      31.109  16.955   8.290  0.00  0.00     0.050 A 
HETATM   23  N   UNK N   1      30.356  17.500   9.278  0.00  0.00    -0.264 N 
HETATM   24  O   UNK N   1      29.316  18.053   8.707  0.00  0.00    -0.237 OA
ATOM     25  HN  UNK N   1      30.560  17.482  10.277  1.00  0.00     0.194 HD
HETATM   26  C   UNK N   1      29.368  17.889   7.403  0.00  0.00     0.114 A 
HETATM   27  C   UNK N   1      30.494  17.195   7.098  0.00  0.00     0.025 A 
HETATM   28  C   UNK N   1      28.479  18.310   6.420  0.00  0.00     0.082 A 
HETATM   29  C   UNK N   1      30.838  16.858   5.793  0.00  0.00     0.019 A 
HETATM   30  C   UNK N   1      29.965  17.258   4.772  0.00  0.00     0.043 A 
HETATM   31  C   UNK N   1      28.790  17.982   5.080  0.00  0.00     0.119 A 
HETATM   32  F   UNK N   1      27.961  18.360   4.081  0.00  0.00    -0.206 F 
ENDBRANCH   2  22
TORSDOF 8
ENDMDL
MODEL 6
REMARK VINA RESULT:      -7.6      5.522      9.992
REMARK  8 active torsions:
REMARK  status: ('A' for Active; 'I' for Inactive)
REMARK    1  A    between atoms: O_3  and  C_19 
REMARK    2  A    between atoms: O_3  and  C_24 
REMARK    3  A    between atoms: O_4  and  C_25 
REMARK    4  A    between atoms: N_6  and  C_14 
REMARK    5  A    between atoms: C_9  and  C_15 
REMARK    6  A    between atoms: C_14  and  C_16 
REMARK    7  A    between atoms: C_16  and  C_19 
REMARK    8  A    between atoms: C_29  and  C_30 
ROOT
HETATM    1  N   UNK N   1      21.543  17.430   4.792  0.00  0.00     0.088 N 
HETATM    2  C   UNK N   1      21.466  15.893   7.200  0.00  0.00     0.042 C 
HETATM    3  C   UNK N   1      21.472  15.200   5.854  0.00  0.00     0.041 C 
HETATM    4  C   UNK N   1      20.732  17.224   7.087  0.00  0.00     0.041 C 
HETATM    5  C   UNK N   1      22.222  16.129   4.907  0.00  0.00     0.273 C 
HETATM    6  C   UNK N   1      21.499  18.087   6.096  0.00  0.00     0.273 C 
ENDROOT
BRANCH   1   7
HETATM    7  C   UNK N   1      22.360  18.271   3.925  0.00  0.00     0.274 C 
BRANCH   7   8
HETATM    8  C   UNK N   1      23.690  18.621   4.585  0.00  0.00     0.057 C 
BRANCH   8   9
HETATM    9  C   UNK N   1      24.510  19.514   3.662  0.00  0.00     0.177 C 
BRANCH   9  10
HETATM   10  O   UNK N   1      25.880  19.548   3.830  0.00  0.00    -0.348 OA
BRANCH  10  11
HETATM   11  C   UNK N   1      26.662  19.227   4.890  0.00  0.00     0.102 A 
HETATM   12  C   UNK N   1      27.196  17.933   4.930  0.00  0.00     0.102 A 
HETATM   13  C   UNK N   1      28.019  17.553   6.001  0.00  0.00     0.054 A 
HETATM   14  C   UNK N   1      28.311  18.453   7.033  0.00  0.00     0.012 A 
HETATM   15  C   UNK N   1      27.767  19.744   6.992  0.00  0.00     0.018 A 
HETATM   16  C   UNK N   1      26.948  20.127   5.928  0.00  0.00     0.040 A 
BRANCH  12  17
HETATM   17  O   UNK N   1      26.903  17.074   3.923  0.00  0.00    -0.353 OA
HETATM   18  C   UNK N   1      27.250  15.743   3.935  0.00  0.00     0.210 C 
ENDBRANCH  12  17
BRANCH  14  19
HETATM   19  C   UNK N   1      29.190  18.040   8.146  0.00  0.00     0.155 C 
HETATM   20  O   UNK N   1      30.378  17.842   7.946  0.00  0.00    -0.293 OA
HETATM   21  C   UNK N   1      28.647  17.866   9.527  0.00  0.00     0.096 C 
ENDBRANCH  14  19
ENDBRANCH  10  11
ENDBRANCH   9  10
ENDBRANCH   8   9
ENDBRANCH   7   8
ENDBRANCH   1   7
BRANCH   2  22
HETATM   22  C   UNK N   1      20.956  15.074   8.334  0.00  0.00     0.050 A 
HETATM   23  N   UNK N   1      19.724  15.134   8.900  0.00  0.00    -0.264 N 
HETATM   24  O   UNK N   1      19.687  14.222   9.838  0.00  0.00    -0.237 OA
ATOM     25  HN  UNK N   1      18.969  15.770   8.644  1.00  0.00     0.194 HD
HETATM   26  C   UNK N   1      20.835  13.581   9.899  0.00  0.00     0.114 A 
HETATM   27  C   UNK N   1      21.668  14.094   8.958  0.00  0.00     0.025 A 
HETATM   28  C   UNK N   1      21.229  12.548  10.742  0.00  0.00     0.082 A 
HETATM   29  C   UNK N   1      22.964  13.628   8.769  0.00  0.00     0.019 A 
HETATM   30  C   UNK N   1      23.405  12.590   9.602  0.00  0.00     0.043 A 
HETATM   31  C   UNK N   1      22.543  12.049  10.585  0.00  0.00     0.119 A 
HETATM   32  F   UNK N   1      22.986  11.047  11.378  0.00  0.00    -0.206 F 
ENDBRANCH   2  22
TORSDOF 8
ENDMDL
MODEL 7
REMARK VINA RESULT:      -7.5      3.467      5.886
REMARK  8 active torsions:
REMARK  status: ('A' for Active; 'I' for Inactive)
REMARK    1  A    between atoms: O_3  and  C_19 
REMARK    2  A    between atoms: O_3  and  C_24 
REMARK    3  A    between atoms: O_4  and  C_25 
REMARK    4  A    between atoms: N_6  and  C_14 
REMARK    5  A    between atoms: C_9  and  C_15 
REMARK    6  A    between atoms: C_14  and  C_16 
REMARK    7  A    between atoms: C_16  and  C_19 
REMARK    8  A    between atoms: C_29  and  C_30 
ROOT
HETATM    1  N   UNK N   1      35.450  15.031   9.175  0.00  0.00     0.088 N 
HETATM    2  C   UNK N   1      35.405  14.248  11.923  0.00  0.00     0.042 C 
HETATM    3  C   UNK N   1      35.601  15.702  11.549  0.00  0.00     0.041 C 
HETATM    4  C   UNK N   1      36.029  13.356  10.857  0.00  0.00     0.041 C 
HETATM    5  C   UNK N   1      34.878  15.894  10.221  0.00  0.00     0.273 C 
HETATM    6  C   UNK N   1      35.299  13.627   9.549  0.00  0.00     0.273 C 
ENDROOT
BRANCH   1   7
HETATM    7  C   UNK N   1      34.660  15.231   7.967  0.00  0.00     0.274 C 
BRANCH   7   8
HETATM    8  C   UNK N   1      33.181  14.955   8.218  0.00  0.00     0.057 C 
BRANCH   8   9
HETATM    9  C   UNK N   1      32.333  15.663   7.169  0.00  0.00     0.177 C 
BRANCH   9  10
HETATM   10  O   UNK N   1      31.159  16.267   7.572  0.00  0.00    -0.348 OA
BRANCH  10  11
HETATM   11  C   UNK N   1      30.251  17.008   6.891  0.00  0.00     0.102 A 
HETATM   12  C   UNK N   1      29.283  17.689   7.637  0.00  0.00     0.102 A 
HETATM   13  C   UNK N   1      28.325  18.476   6.979  0.00  0.00     0.054 A 
HETATM   14  C   UNK N   1      28.325  18.587   5.584  0.00  0.00     0.012 A 
HETATM   15  C   UNK N   1      29.292  17.896   4.841  0.00  0.00     0.018 A 
HETATM   16  C   UNK N   1      30.247  17.111   5.491  0.00  0.00     0.040 A 
BRANCH  12  17
HETATM   17  O   UNK N   1      29.296  17.571   8.987  0.00  0.00    -0.353 OA
HETATM   18  C   UNK N   1      29.714  18.572   9.834  0.00  0.00     0.210 C 
ENDBRANCH  12  17
BRANCH  14  19
HETATM   19  C   UNK N   1      27.317  19.431   4.910  0.00  0.00     0.155 C 
HETATM   20  O   UNK N   1      26.620  18.962   4.024  0.00  0.00    -0.293 OA
HETATM   21  C   UNK N   1      27.130  20.861   5.301  0.00  0.00     0.096 C 
ENDBRANCH  14  19
ENDBRANCH  10  11
ENDBRANCH   9  10
ENDBRANCH   8   9
ENDBRANCH   7   8
ENDBRANCH   1   7
BRANCH   2  22
HETATM   22  C   UNK N   1      35.861  13.877  13.291  0.00  0.00     0.050 A 
HETATM   23  N   UNK N   1      36.804  14.504  14.039  0.00  0.00    -0.264 N 
HETATM   24  O   UNK N   1      36.868  13.873  15.184  0.00  0.00    -0.237 OA
ATOM     25  HN  UNK N   1      37.358  15.313  13.762  1.00  0.00     0.194 HD
HETATM   26  C   UNK N   1      36.013  12.874  15.205  0.00  0.00     0.114 A 
HETATM   27  C   UNK N   1      35.352  12.843  14.019  0.00  0.00     0.025 A 
HETATM   28  C   UNK N   1      35.753  11.951  16.212  0.00  0.00     0.082 A 
HETATM   29  C   UNK N   1      34.376  11.897  13.728  0.00  0.00     0.019 A 
HETATM   30  C   UNK N   1      34.087  10.943  14.714  0.00  0.00     0.043 A 
HETATM   31  C   UNK N   1      34.770  10.968  15.953  0.00  0.00     0.119 A 
HETATM   32  F   UNK N   1      34.476  10.040  16.892  0.00  0.00    -0.206 F 
ENDBRANCH   2  22
TORSDOF 8
ENDMDL
MODEL 8
REMARK VINA RESULT:      -7.4      4.850      7.310
REMARK  8 active torsions:
REMARK  status: ('A' for Active; 'I' for Inactive)
REMARK    1  A    between atoms: O_3  and  C_19 
REMARK    2  A    between atoms: O_3  and  C_24 
REMARK    3  A    between atoms: O_4  and  C_25 
REMARK    4  A    between atoms: N_6  and  C_14 
REMARK    5  A    between atoms: C_9  and  C_15 
REMARK    6  A    between atoms: C_14  and  C_16 
REMARK    7  A    between atoms: C_16  and  C_19 
REMARK    8  A    between atoms: C_29  and  C_30 
ROOT
HETATM    1  N   UNK N   1      35.724  14.021   9.094  0.00  0.00     0.088 N 
HETATM    2  C   UNK N   1      35.776  13.561  11.914  0.00  0.00     0.042 C 
HETATM    3  C   UNK N   1      34.793  14.548  11.321  0.00  0.00     0.041 C 
HETATM    4  C   UNK N   1      37.056  13.556  11.088  0.00  0.00     0.041 C 
HETATM    5  C   UNK N   1      34.500  14.052   9.910  0.00  0.00     0.273 C 
HETATM    6  C   UNK N   1      36.693  13.099   9.682  0.00  0.00     0.273 C 
ENDROOT
BRANCH   1   7
HETATM    7  C   UNK N   1      35.363  13.475   7.791  0.00  0.00     0.274 C 
BRANCH   7   8
HETATM    8  C   UNK N   1      34.203  14.246   7.168  0.00  0.00     0.057 C 
BRANCH   8   9
HETATM    9  C   UNK N   1      34.737  15.401   6.329  0.00  0.00     0.177 C 
BRANCH   9  10
HETATM   10  O   UNK N   1      33.918  16.493   6.121  0.00  0.00    -0.348 OA
BRANCH  10  11
HETATM   11  C   UNK N   1      32.894  16.999   6.852  0.00  0.00     0.102 A 
HETATM   12  C   UNK N   1      31.593  16.648   6.471  0.00  0.00     0.102 A 
HETATM   13  C   UNK N   1      30.499  17.139   7.200  0.00  0.00     0.054 A 
HETATM   14  C   UNK N   1      30.693  17.977   8.304  0.00  0.00     0.012 A 
HETATM   15  C   UNK N   1      31.996  18.331   8.676  0.00  0.00     0.018 A 
HETATM   16  C   UNK N   1      33.089  17.845   7.955  0.00  0.00     0.040 A 
BRANCH  12  17
HETATM   17  O   UNK N   1      31.424  15.837   5.399  0.00  0.00    -0.353 OA
HETATM   18  C   UNK N   1      30.920  14.559   5.485  0.00  0.00     0.210 C 
ENDBRANCH  12  17
BRANCH  14  19
HETATM   19  C   UNK N   1      29.529  18.473   9.068  0.00  0.00     0.155 C 
HETATM   20  O   UNK N   1      29.637  18.712  10.261  0.00  0.00    -0.293 OA
HETATM   21  C   UNK N   1      28.212  18.695   8.399  0.00  0.00     0.096 C 
ENDBRANCH  14  19
ENDBRANCH  10  11
ENDBRANCH   9  10
ENDBRANCH   8   9
ENDBRANCH   7   8
ENDBRANCH   1   7
BRANCH   2  22
HETATM   22  C   UNK N   1      36.055  13.736  13.366  0.00  0.00     0.050 A 
HETATM   23  N   UNK N   1      36.741  14.749  13.953  0.00  0.00    -0.264 N 
HETATM   24  O   UNK N   1      36.720  14.530  15.243  0.00  0.00    -0.237 OA
ATOM     25  HN  UNK N   1      37.190  15.532  13.478  1.00  0.00     0.194 HD
HETATM   26  C   UNK N   1      36.053  13.428  15.510  0.00  0.00     0.114 A 
HETATM   27  C   UNK N   1      35.613  12.893  14.342  0.00  0.00     0.025 A 
HETATM   28  C   UNK N   1      35.788  12.827  16.736  0.00  0.00     0.082 A 
HETATM   29  C   UNK N   1      34.873  11.718  14.286  0.00  0.00     0.019 A 
HETATM   30  C   UNK N   1      34.588  11.076  15.500  0.00  0.00     0.043 A 
HETATM   31  C   UNK N   1      35.042  11.626  16.721  0.00  0.00     0.119 A 
HETATM   32  F   UNK N   1      34.756  10.993  17.882  0.00  0.00    -0.206 F 
ENDBRANCH   2  22
TORSDOF 8
ENDMDL
MODEL 9
REMARK VINA RESULT:      -7.4      4.804     12.641
REMARK  8 active torsions:
REMARK  status: ('A' for Active; 'I' for Inactive)
REMARK    1  A    between atoms: O_3  and  C_19 
REMARK    2  A    between atoms: O_3  and  C_24 
REMARK    3  A    between atoms: O_4  and  C_25 
REMARK    4  A    between atoms: N_6  and  C_14 
REMARK    5  A    between atoms: C_9  and  C_15 
REMARK    6  A    between atoms: C_14  and  C_16 
REMARK    7  A    between atoms: C_16  and  C_19 
REMARK    8  A    between atoms: C_29  and  C_30 
ROOT
HETATM    1  N   UNK N   1      35.170  15.042  10.069  0.00  0.00     0.088 N 
HETATM    2  C   UNK N   1      32.775  16.033   8.863  0.00  0.00     0.042 C 
HETATM    3  C   UNK N   1      32.964  14.545   9.073  0.00  0.00     0.041 C 
HETATM    4  C   UNK N   1      34.125  16.686   8.594  0.00  0.00     0.041 C 
HETATM    5  C   UNK N   1      33.863  14.404  10.295  0.00  0.00     0.273 C 
HETATM    6  C   UNK N   1      34.992  16.471   9.827  0.00  0.00     0.273 C 
ENDROOT
BRANCH   1   7
HETATM    7  C   UNK N   1      35.934  14.916  11.304  0.00  0.00     0.274 C 
BRANCH   7   8
HETATM    8  C   UNK N   1      36.915  13.751  11.234  0.00  0.00     0.057 C 
BRANCH   8   9
HETATM    9  C   UNK N   1      36.711  12.826  12.428  0.00  0.00     0.177 C 
BRANCH   9  10
HETATM   10  O   UNK N   1      35.686  13.109  13.308  0.00  0.00    -0.348 OA
BRANCH  10  11
HETATM   11  C   UNK N   1      35.559  12.886  14.640  0.00  0.00     0.102 A 
HETATM   12  C   UNK N   1      36.121  13.828  15.509  0.00  0.00     0.102 A 
HETATM   13  C   UNK N   1      36.010  13.647  16.896  0.00  0.00     0.054 A 
HETATM   14  C   UNK N   1      35.346  12.533  17.421  0.00  0.00     0.012 A 
HETATM   15  C   UNK N   1      34.792  11.589  16.547  0.00  0.00     0.018 A 
HETATM   16  C   UNK N   1      34.899  11.764  15.166  0.00  0.00     0.040 A 
BRANCH  12  17
HETATM   17  O   UNK N   1      36.762  14.900  14.984  0.00  0.00    -0.353 OA
HETATM   18  C   UNK N   1      37.447  15.822  15.742  0.00  0.00     0.210 C 
ENDBRANCH  12  17
BRANCH  14  19
HETATM   19  C   UNK N   1      35.227  12.366  18.885  0.00  0.00     0.155 C 
HETATM   20  O   UNK N   1      35.046  13.340  19.599  0.00  0.00    -0.293 OA
HETATM   21  C   UNK N   1      35.318  11.013  19.512  0.00  0.00     0.096 C 
ENDBRANCH  14  19
ENDBRANCH  10  11
ENDBRANCH   9  10
ENDBRANCH   8   9
ENDBRANCH   7   8
ENDBRANCH   1   7
BRANCH   2  22
HETATM   22  C   UNK N   1      31.765  16.406   7.836  0.00  0.00     0.050 A 
HETATM   23  N   UNK N   1      31.689  15.956   6.558  0.00  0.00    -0.264 N 
HETATM   24  O   UNK N   1      30.635  16.512   6.017  0.00  0.00    -0.237 OA
ATOM     25  HN  UNK N   1      32.332  15.308   6.105  1.00  0.00     0.194 HD
HETATM   26  C   UNK N   1      30.033  17.295   6.886  0.00  0.00     0.114 A 
HETATM   27  C   UNK N   1      30.721  17.255   8.056  0.00  0.00     0.025 A 
HETATM   28  C   UNK N   1      28.889  18.071   6.735  0.00  0.00     0.082 A 
HETATM   29  C   UNK N   1      30.336  17.979   9.178  0.00  0.00     0.019 A 
HETATM   30  C   UNK N   1      29.191  18.781   9.067  0.00  0.00     0.043 A 
HETATM   31  C   UNK N   1      28.468  18.829   7.853  0.00  0.00     0.119 A 
HETATM   32  F   UNK N   1      27.365  19.607   7.766  0.00  0.00    -0.206 F 
ENDBRANCH   2  22
TORSDOF 8
ENDMDL
