REMARK  4 active torsions:
REMARK  status: ('A' for Active; 'I' for Inactive)
REMARK    1  A    between atoms: N_1  and  C_4 
REMARK    2  A    between atoms: C_4  and  C_5 
REMARK    3  A    between atoms: C_4  and  C_6 
REMARK    4  A    between atoms: C_9  and  C_16 
ROOT
HETATM    1  C   UNK N   1       3.852   2.587  -0.141  0.00  0.00     0.156 C 
ENDROOT
BRANCH   1   2
HETATM    2  N   UNK N   1       5.104   3.373  -0.136  0.00  0.00    -0.338 N 
HETATM    3  C   UNK N   1       5.205   4.718  -0.130  0.00  0.00     0.110 A 
HETATM    4  C   UNK N   1       6.543   5.046  -0.085  0.00  0.00     0.106 A 
HETATM    5  N   UNK N   1       7.263   3.906  -0.065  0.00  0.00    -0.361 N 
HETATM    6  C   UNK N   1       6.366   2.905  -0.096  0.00  0.00     0.183 A 
ATOM      7  HN  UNK N   1       8.279   3.821  -0.033  1.00  0.00     0.166 HD
ENDBRANCH   1   2
BRANCH   1   8
HETATM    8  C   UNK N   1       3.894   1.063  -0.042  0.00  0.00    -0.030 A 
HETATM    9  C   UNK N   1       2.700   0.337   0.073  0.00  0.00     0.010 A 
HETATM   10  C   UNK N   1       2.710  -1.058   0.114  0.00  0.00     0.013 A 
HETATM   11  C   UNK N   1       3.919  -1.763   0.042  0.00  0.00    -0.026 A 
HETATM   12  C   UNK N   1       5.118  -1.044  -0.064  0.00  0.00     0.013 A 
HETATM   13  C   UNK N   1       5.103   0.354  -0.108  0.00  0.00     0.010 A 
BRANCH  11  14
HETATM   14  C   UNK N   1       3.921  -3.246   0.056  0.00  0.00    -0.026 A 
HETATM   15  C   UNK N   1       2.711  -3.957   0.126  0.00  0.00     0.012 A 
HETATM   16  C   UNK N   1       2.708  -5.354   0.123  0.00  0.00     0.001 A 
HETATM   17  C   UNK N   1       3.914  -6.055   0.050  0.00  0.00     0.000 A 
HETATM   18  C   UNK N   1       5.124  -5.359  -0.018  0.00  0.00     0.001 A 
HETATM   19  C   UNK N   1       5.128  -3.961  -0.017  0.00  0.00     0.012 A 
ENDBRANCH  11  14
ENDBRANCH   1   8
BRANCH   1  20
HETATM   20  C   UNK N   1       2.528   3.331  -0.074  0.00  0.00    -0.031 A 
HETATM   21  C   UNK N   1       1.421   2.871  -0.804  0.00  0.00     0.009 A 
HETATM   22  C   UNK N   1       0.190   3.529  -0.717  0.00  0.00     0.001 A 
HETATM   23  C   UNK N   1       0.063   4.672   0.075  0.00  0.00     0.000 A 
HETATM   24  C   UNK N   1       1.163   5.148   0.792  0.00  0.00     0.001 A 
HETATM   25  C   UNK N   1       2.385   4.471   0.732  0.00  0.00     0.009 A 
ENDBRANCH   1  20
TORSDOF 4
