MODEL 1
REMARK VINA RESULT:      -5.7      0.000      0.000
REMARK  0 active torsions:
REMARK  status: ('A' for Active; 'I' for Inactive)
ROOT
HETATM    1  C   UNK N   1      36.778  14.441  14.944  0.00  0.00     0.058 C 
HETATM    2  C   UNK N   1      36.318  13.303  15.802  0.00  0.00    -0.050 A 
HETATM    3  C   UNK N   1      36.651  11.955  15.512  0.00  0.00    -0.045 A 
HETATM    4  C   UNK N   1      37.493  11.592  14.300  0.00  0.00     0.032 C 
HETATM    5  C   UNK N   1      36.857  12.072  13.000  0.00  0.00     0.122 C 
HETATM    6  N   UNK N   1      37.192  13.469  12.755  0.00  0.00    -0.420 N 
HETATM    7  C   UNK N   1      36.276  14.304  13.517  0.00  0.00     0.118 C 
HETATM    8  C   UNK N   1      35.548  13.605  16.931  0.00  0.00     0.009 A 
HETATM    9  C   UNK N   1      35.112  12.590  17.785  0.00  0.00     0.024 A 
HETATM   10  C   UNK N   1      35.443  11.263  17.516  0.00  0.00     0.034 A 
HETATM   11  C   UNK N   1      36.201  10.947  16.388  0.00  0.00     0.032 A 
HETATM   12  C   UNK N   1      37.755  10.097  14.174  0.00  0.00     0.017 C 
HETATM   13 Cl   UNK N   1      34.924   9.994  18.603  0.00  0.00    -0.084 Cl
HETATM   14  H   UNK N   1      37.942  13.804  12.151  0.00  0.00     0.153 HD
ENDROOT
TORSDOF 0
ENDMDL
MODEL 2
REMARK VINA RESULT:      -5.6     10.686     12.039
REMARK  0 active torsions:
REMARK  status: ('A' for Active; 'I' for Inactive)
ROOT
HETATM    1  C   UNK N   1      29.366  16.666   5.876  0.00  0.00     0.058 C 
HETATM    2  C   UNK N   1      30.643  17.131   6.506  0.00  0.00    -0.050 A 
HETATM    3  C   UNK N   1      30.680  17.708   7.801  0.00  0.00    -0.045 A 
HETATM    4  C   UNK N   1      29.414  17.893   8.621  0.00  0.00     0.032 C 
HETATM    5  C   UNK N   1      28.386  18.754   7.895  0.00  0.00     0.122 C 
HETATM    6  N   UNK N   1      27.610  17.945   6.966  0.00  0.00    -0.420 N 
HETATM    7  C   UNK N   1      28.367  17.801   5.732  0.00  0.00     0.118 C 
HETATM    8  C   UNK N   1      31.828  16.967   5.780  0.00  0.00     0.009 A 
HETATM    9  C   UNK N   1      33.054  17.355   6.325  0.00  0.00     0.024 A 
HETATM   10  C   UNK N   1      33.103  17.913   7.601  0.00  0.00     0.034 A 
HETATM   11  C   UNK N   1      31.928  18.093   8.331  0.00  0.00     0.032 A 
HETATM   12  C   UNK N   1      29.668  18.513   9.990  0.00  0.00     0.017 C 
HETATM   13 Cl   UNK N   1      34.642  18.371   8.296  0.00  0.00    -0.084 Cl
HETATM   14  H   UNK N   1      26.689  17.545   7.149  0.00  0.00     0.153 HD
ENDROOT
TORSDOF 0
ENDMDL
MODEL 3
REMARK VINA RESULT:      -5.5     14.642     15.393
REMARK  0 active torsions:
REMARK  status: ('A' for Active; 'I' for Inactive)
ROOT
HETATM    1  C   UNK N   1      22.703  11.607  11.083  0.00  0.00     0.058 C 
HETATM    2  C   UNK N   1      22.084  12.685  10.248  0.00  0.00    -0.050 A 
HETATM    3  C   UNK N   1      22.792  13.333   9.203  0.00  0.00    -0.045 A 
HETATM    4  C   UNK N   1      24.232  12.969   8.879  0.00  0.00     0.032 C 
HETATM    5  C   UNK N   1      25.151  13.158  10.081  0.00  0.00     0.122 C 
HETATM    6  N   UNK N   1      25.100  11.990  10.950  0.00  0.00    -0.420 N 
HETATM    7  C   UNK N   1      23.937  12.107  11.816  0.00  0.00     0.118 C 
HETATM    8  C   UNK N   1      20.757  13.038  10.514  0.00  0.00     0.009 A 
HETATM    9  C   UNK N   1      20.114  14.016   9.752  0.00  0.00     0.024 A 
HETATM   10  C   UNK N   1      20.797  14.650   8.716  0.00  0.00     0.034 A 
HETATM   11  C   UNK N   1      22.125  14.316   8.446  0.00  0.00     0.032 A 
HETATM   12  C   UNK N   1      24.807  13.763   7.714  0.00  0.00     0.017 C 
HETATM   13 Cl   UNK N   1      19.983  15.854   7.740  0.00  0.00    -0.084 Cl
HETATM   14  H   UNK N   1      25.768  11.219  10.950  0.00  0.00     0.153 HD
ENDROOT
TORSDOF 0
ENDMDL
MODEL 4
REMARK VINA RESULT:      -5.4      9.824     10.903
REMARK  0 active torsions:
REMARK  status: ('A' for Active; 'I' for Inactive)
ROOT
HETATM    1  C   UNK N   1      32.196  16.296   5.015  0.00  0.00     0.058 C 
HETATM    2  C   UNK N   1      31.614  16.865   6.272  0.00  0.00    -0.050 A 
HETATM    3  C   UNK N   1      32.416  17.485   7.263  0.00  0.00    -0.045 A 
HETATM    4  C   UNK N   1      33.923  17.599   7.104  0.00  0.00     0.032 C 
HETATM    5  C   UNK N   1      34.583  16.234   6.938  0.00  0.00     0.122 C 
HETATM    6  N   UNK N   1      34.515  15.802   5.549  0.00  0.00    -0.420 N 
HETATM    7  C   UNK N   1      33.210  15.204   5.312  0.00  0.00     0.118 C 
HETATM    8  C   UNK N   1      30.228  16.784   6.446  0.00  0.00     0.009 A 
HETATM    9  C   UNK N   1      29.621  17.321   7.583  0.00  0.00     0.024 A 
HETATM   10  C   UNK N   1      30.399  17.943   8.558  0.00  0.00     0.034 A 
HETATM   11  C   UNK N   1      31.784  18.021   8.403  0.00  0.00     0.032 A 
HETATM   12  C   UNK N   1      34.600  18.313   8.267  0.00  0.00     0.017 C 
HETATM   13 Cl   UNK N   1      29.637  18.643   9.969  0.00  0.00    -0.084 Cl
HETATM   14  H   UNK N   1      35.259  15.902   4.858  0.00  0.00     0.153 HD
ENDROOT
TORSDOF 0
ENDMDL
MODEL 5
REMARK VINA RESULT:      -5.3      9.959     12.164
REMARK  0 active torsions:
REMARK  status: ('A' for Active; 'I' for Inactive)
ROOT
HETATM    1  C   UNK N   1      33.884  17.712   6.937  0.00  0.00     0.058 C 
HETATM    2  C   UNK N   1      32.834  17.371   5.924  0.00  0.00    -0.050 A 
HETATM    3  C   UNK N   1      31.468  17.220   6.273  0.00  0.00    -0.045 A 
HETATM    4  C   UNK N   1      30.995  17.389   7.708  0.00  0.00     0.032 C 
HETATM    5  C   UNK N   1      31.698  16.424   8.657  0.00  0.00     0.122 C 
HETATM    6  N   UNK N   1      32.987  16.963   9.068  0.00  0.00    -0.420 N 
HETATM    7  C   UNK N   1      33.965  16.664   8.033  0.00  0.00     0.118 C 
HETATM    8  C   UNK N   1      33.235  17.217   4.593  0.00  0.00     0.009 A 
HETATM    9  C   UNK N   1      32.300  16.927   3.598  0.00  0.00     0.024 A 
HETATM   10  C   UNK N   1      30.953  16.787   3.929  0.00  0.00     0.034 A 
HETATM   11  C   UNK N   1      30.540  16.927   5.254  0.00  0.00     0.032 A 
HETATM   12  C   UNK N   1      29.492  17.204   7.873  0.00  0.00     0.017 C 
HETATM   13 Cl   UNK N   1      29.775  16.454   2.677  0.00  0.00    -0.084 Cl
HETATM   14  H   UNK N   1      33.173  17.466   9.936  0.00  0.00     0.153 HD
ENDROOT
TORSDOF 0
ENDMDL
MODEL 6
REMARK VINA RESULT:      -5.1      1.794      3.524
REMARK  0 active torsions:
REMARK  status: ('A' for Active; 'I' for Inactive)
ROOT
HETATM    1  C   UNK N   1      34.520  10.893  15.161  0.00  0.00     0.058 C 
HETATM    2  C   UNK N   1      34.889  10.688  16.598  0.00  0.00    -0.050 A 
HETATM    3  C   UNK N   1      35.143  11.773  17.476  0.00  0.00    -0.045 A 
HETATM    4  C   UNK N   1      35.062  13.213  16.996  0.00  0.00     0.032 C 
HETATM    5  C   UNK N   1      36.016  13.482  15.837  0.00  0.00     0.122 C 
HETATM    6  N   UNK N   1      35.410  13.077  14.576  0.00  0.00    -0.420 N 
HETATM    7  C   UNK N   1      35.603  11.645  14.407  0.00  0.00     0.118 C 
HETATM    8  C   UNK N   1      34.964   9.374  17.073  0.00  0.00     0.009 A 
HETATM    9  C   UNK N   1      35.275   9.118  18.410  0.00  0.00     0.024 A 
HETATM   10  C   UNK N   1      35.516  10.178  19.283  0.00  0.00     0.034 A 
HETATM   11  C   UNK N   1      35.455  11.493  18.821  0.00  0.00     0.032 A 
HETATM   12  C   UNK N   1      35.351  14.230  18.092  0.00  0.00     0.017 C 
HETATM   13 Cl   UNK N   1      35.875   9.860  20.966  0.00  0.00    -0.084 Cl
HETATM   14  H   UNK N   1      34.931  13.695  13.920  0.00  0.00     0.153 HD
ENDROOT
TORSDOF 0
ENDMDL
MODEL 7
REMARK VINA RESULT:      -5.1     14.761     15.543
REMARK  0 active torsions:
REMARK  status: ('A' for Active; 'I' for Inactive)
ROOT
HETATM    1  C   UNK N   1      23.208  13.392   7.212  0.00  0.00     0.058 C 
HETATM    2  C   UNK N   1      23.129  13.028   8.663  0.00  0.00    -0.050 A 
HETATM    3  C   UNK N   1      21.993  13.330   9.458  0.00  0.00    -0.045 A 
HETATM    4  C   UNK N   1      20.789  14.052   8.874  0.00  0.00     0.032 C 
HETATM    5  C   UNK N   1      21.168  15.410   8.292  0.00  0.00     0.122 C 
HETATM    6  N   UNK N   1      21.675  15.258   6.935  0.00  0.00    -0.420 N 
HETATM    7  C   UNK N   1      23.081  14.891   7.005  0.00  0.00     0.118 C 
HETATM    8  C   UNK N   1      24.217  12.354   9.229  0.00  0.00     0.009 A 
HETATM    9  C   UNK N   1      24.192  11.962  10.569  0.00  0.00     0.024 A 
HETATM   10  C   UNK N   1      23.076  12.244  11.355  0.00  0.00     0.034 A 
HETATM   11  C   UNK N   1      21.989  12.925  10.808  0.00  0.00     0.032 A 
HETATM   12  C   UNK N   1      19.668  14.266   9.883  0.00  0.00     0.017 C 
HETATM   13 Cl   UNK N   1      23.031  11.727  13.026  0.00  0.00    -0.084 Cl
HETATM   14  H   UNK N   1      21.135  15.387   6.080  0.00  0.00     0.153 HD
ENDROOT
TORSDOF 0
ENDMDL
MODEL 8
REMARK VINA RESULT:      -4.9      3.444      4.851
REMARK  0 active torsions:
REMARK  status: ('A' for Active; 'I' for Inactive)
ROOT
HETATM    1  C   UNK N   1      35.208  11.262  20.064  0.00  0.00     0.058 C 
HETATM    2  C   UNK N   1      35.299  11.762  18.654  0.00  0.00    -0.050 A 
HETATM    3  C   UNK N   1      35.448  10.885  17.550  0.00  0.00    -0.045 A 
HETATM    4  C   UNK N   1      35.531   9.379  17.741  0.00  0.00     0.032 C 
HETATM    5  C   UNK N   1      36.691   8.984  18.648  0.00  0.00     0.122 C 
HETATM    6  N   UNK N   1      36.303   9.093  20.047  0.00  0.00    -0.420 N 
HETATM    7  C   UNK N   1      36.448  10.480  20.461  0.00  0.00     0.118 C 
HETATM    8  C   UNK N   1      35.217  13.143  18.443  0.00  0.00     0.009 A 
HETATM    9  C   UNK N   1      35.268  13.668  17.151  0.00  0.00     0.024 A 
HETATM   10  C   UNK N   1      35.403  12.814  16.058  0.00  0.00     0.034 A 
HETATM   11  C   UNK N   1      35.497  11.436  16.254  0.00  0.00     0.032 A 
HETATM   12  C   UNK N   1      35.671   8.613  16.432  0.00  0.00     0.017 C 
HETATM   13 Cl   UNK N   1      35.435  13.470  14.435  0.00  0.00    -0.084 Cl
HETATM   14  H   UNK N   1      35.984   8.325  20.638  0.00  0.00     0.153 HD
ENDROOT
TORSDOF 0
ENDMDL
MODEL 9
REMARK VINA RESULT:      -4.9     10.404     12.212
REMARK  0 active torsions:
REMARK  status: ('A' for Active; 'I' for Inactive)
ROOT
HETATM    1  C   UNK N   1      31.853  16.725   8.302  0.00  0.00     0.058 C 
HETATM    2  C   UNK N   1      30.905  17.144   7.221  0.00  0.00    -0.050 A 
HETATM    3  C   UNK N   1      31.273  17.142   5.851  0.00  0.00    -0.045 A 
HETATM    4  C   UNK N   1      32.663  16.718   5.405  0.00  0.00     0.032 C 
HETATM    5  C   UNK N   1      33.751  17.571   6.049  0.00  0.00     0.122 C 
HETATM    6  N   UNK N   1      34.074  17.067   7.377  0.00  0.00    -0.420 N 
HETATM    7  C   UNK N   1      33.100  17.592   8.321  0.00  0.00     0.118 C 
HETATM    8  C   UNK N   1      29.615  17.532   7.597  0.00  0.00     0.009 A 
HETATM    9  C   UNK N   1      28.676  17.907   6.633  0.00  0.00     0.024 A 
HETATM   10  C   UNK N   1      29.024  17.898   5.284  0.00  0.00     0.034 A 
HETATM   11  C   UNK N   1      30.310  17.524   4.895  0.00  0.00     0.032 A 
HETATM   12  C   UNK N   1      32.853  16.768   3.895  0.00  0.00     0.017 C 
HETATM   13 Cl   UNK N   1      27.839  18.339   4.073  0.00  0.00    -0.084 Cl
HETATM   14  H   UNK N   1      34.853  16.449   7.606  0.00  0.00     0.153 HD
ENDROOT
TORSDOF 0
ENDMDL
