MODEL 1
REMARK VINA RESULT:      -6.5      0.000      0.000
REMARK  6 active torsions:
REMARK  status: ('A' for Active; 'I' for Inactive)
REMARK    1  A    between atoms: N_3  and  C_5 
REMARK    2  A    between atoms: N_3  and  C_9 
REMARK    3  A    between atoms: N_3  and  C_10 
REMARK    4  A    between atoms: N_4  and  C_6 
REMARK    5  A    between atoms: N_4  and  C_7 
REMARK    6  A    between atoms: C_5  and  C_6 
ROOT
HETATM    1  S   UNK N   1      35.688   9.645  16.689  0.00  0.00    -0.088 SA
HETATM    2  O   UNK N   1      34.665  13.303  14.862  0.00  0.00    -0.286 OA
HETATM    3  C   UNK N   1      34.922  11.162  13.068  0.00  0.00     0.043 A 
HETATM    4  C   UNK N   1      35.129  11.082  14.495  0.00  0.00     0.059 A 
HETATM    5  C   UNK N   1      35.459   9.797  15.028  0.00  0.00     0.028 A 
HETATM    6  C   UNK N   1      35.570   8.665  14.199  0.00  0.00    -0.044 A 
HETATM    7  C   UNK N   1      34.977  12.237  15.362  0.00  0.00     0.197 A 
HETATM    8  C   UNK N   1      35.028  10.011  12.284  0.00  0.00     0.031 A 
HETATM    9  C   UNK N   1      35.152  12.227  16.784  0.00  0.00     0.032 A 
HETATM   10  C   UNK N   1      35.354   8.782  12.836  0.00  0.00     0.010 A 
HETATM   11  C   UNK N   1      35.485  11.072  17.517  0.00  0.00     0.019 A 
HETATM   12  C   UNK N   1      35.895   7.315  14.749  0.00  0.00     0.049 C 
HETATM   13  C   UNK N   1      34.977  13.428  17.502  0.00  0.00     0.017 A 
HETATM   14  C   UNK N   1      35.634  11.108  18.906  0.00  0.00     0.020 A 
HETATM   15  C   UNK N   1      35.129  13.468  18.892  0.00  0.00     0.001 A 
HETATM   16  C   UNK N   1      35.456  12.308  19.593  0.00  0.00     0.001 A 
ENDROOT
BRANCH   3  17
HETATM   17  N   UNK N   1      34.536  12.344  12.385  0.00  0.00    -0.387 N 
HETATM   18  H   UNK N   1      33.771  12.849  12.742  0.00  0.00     0.159 HD
BRANCH  17  19
HETATM   19  C   UNK N   1      35.187  12.857  11.206  0.00  0.00     0.150 C 
BRANCH  19  20
HETATM   20  C   UNK N   1      36.386  13.696  11.640  0.00  0.00     0.292 C 
BRANCH  20  21
HETATM   21  N   UNK N   1      36.752  14.699  10.642  0.00  0.00     0.089 N 
BRANCH  21  22
HETATM   22  C   UNK N   1      37.434  14.043   9.529  0.00  0.00     0.268 C 
HETATM   23  C   UNK N   1      38.748  13.450  10.005  0.00  0.00     0.037 C 
ENDBRANCH  21  22
BRANCH  21  24
HETATM   24  C   UNK N   1      35.495  15.231  10.128  0.00  0.00     0.268 C 
HETATM   25  C   UNK N   1      35.277  16.658  10.601  0.00  0.00     0.037 C 
ENDBRANCH  21  24
ENDBRANCH  20  21
ENDBRANCH  19  20
ENDBRANCH  17  19
ENDBRANCH   3  17
TORSDOF 6
ENDMDL
MODEL 2
REMARK VINA RESULT:      -6.3     15.300     18.490
REMARK  6 active torsions:
REMARK  status: ('A' for Active; 'I' for Inactive)
REMARK    1  A    between atoms: N_3  and  C_5 
REMARK    2  A    between atoms: N_3  and  C_9 
REMARK    3  A    between atoms: N_3  and  C_10 
REMARK    4  A    between atoms: N_4  and  C_6 
REMARK    5  A    between atoms: N_4  and  C_7 
REMARK    6  A    between atoms: C_5  and  C_6 
ROOT
HETATM    1  S   UNK N   1      23.465  20.428   2.698  0.00  0.00    -0.088 SA
HETATM    2  O   UNK N   1      23.674  16.970   5.098  0.00  0.00    -0.286 OA
HETATM    3  C   UNK N   1      21.100  17.547   4.146  0.00  0.00     0.043 A 
HETATM    4  C   UNK N   1      22.279  18.337   3.886  0.00  0.00     0.059 A 
HETATM    5  C   UNK N   1      22.116  19.485   3.050  0.00  0.00     0.028 A 
HETATM    6  C   UNK N   1      20.864  19.821   2.502  0.00  0.00    -0.044 A 
HETATM    7  C   UNK N   1      23.582  17.974   4.416  0.00  0.00     0.197 A 
HETATM    8  C   UNK N   1      19.879  17.908   3.570  0.00  0.00     0.031 A 
HETATM    9  C   UNK N   1      24.795  18.702   4.187  0.00  0.00     0.032 A 
HETATM   10  C   UNK N   1      19.758  19.031   2.768  0.00  0.00     0.010 A 
HETATM   11  C   UNK N   1      24.864  19.867   3.398  0.00  0.00     0.019 A 
HETATM   12  C   UNK N   1      20.687  21.007   1.612  0.00  0.00     0.049 C 
HETATM   13  C   UNK N   1      25.992  18.236   4.769  0.00  0.00     0.017 A 
HETATM   14  C   UNK N   1      26.073  20.538   3.194  0.00  0.00     0.020 A 
HETATM   15  C   UNK N   1      27.203  18.907   4.569  0.00  0.00     0.001 A 
HETATM   16  C   UNK N   1      27.243  20.057   3.780  0.00  0.00     0.001 A 
ENDROOT
BRANCH   3  17
HETATM   17  N   UNK N   1      21.095  16.349   4.908  0.00  0.00    -0.387 N 
HETATM   18  H   UNK N   1      21.668  15.610   4.601  0.00  0.00     0.159 HD
BRANCH  17  19
HETATM   19  C   UNK N   1      20.312  16.140   6.099  0.00  0.00     0.150 C 
BRANCH  19  20
HETATM   20  C   UNK N   1      21.186  16.443   7.314  0.00  0.00     0.292 C 
BRANCH  20  21
HETATM   21  N   UNK N   1      20.547  16.052   8.568  0.00  0.00     0.089 N 
BRANCH  21  22
HETATM   22  C   UNK N   1      19.185  16.580   8.598  0.00  0.00     0.268 C 
HETATM   23  C   UNK N   1      19.177  17.956   9.239  0.00  0.00     0.037 C 
ENDBRANCH  21  22
BRANCH  21  24
HETATM   24  C   UNK N   1      20.449  14.597   8.532  0.00  0.00     0.268 C 
HETATM   25  C   UNK N   1      20.970  13.987   9.822  0.00  0.00     0.037 C 
ENDBRANCH  21  24
ENDBRANCH  20  21
ENDBRANCH  19  20
ENDBRANCH  17  19
ENDBRANCH   3  17
TORSDOF 6
ENDMDL
MODEL 3
REMARK VINA RESULT:      -6.3      3.080      7.714
REMARK  6 active torsions:
REMARK  status: ('A' for Active; 'I' for Inactive)
REMARK    1  A    between atoms: N_3  and  C_5 
REMARK    2  A    between atoms: N_3  and  C_9 
REMARK    3  A    between atoms: N_3  and  C_10 
REMARK    4  A    between atoms: N_4  and  C_6 
REMARK    5  A    between atoms: N_4  and  C_7 
REMARK    6  A    between atoms: C_5  and  C_6 
ROOT
HETATM    1  S   UNK N   1      35.703  13.948   7.666  0.00  0.00    -0.088 SA
HETATM    2  O   UNK N   1      35.517  16.145  11.258  0.00  0.00    -0.286 OA
HETATM    3  C   UNK N   1      36.768  13.646  11.508  0.00  0.00     0.043 A 
HETATM    4  C   UNK N   1      36.203  14.176  10.290  0.00  0.00     0.059 A 
HETATM    5  C   UNK N   1      36.326  13.367   9.118  0.00  0.00     0.028 A 
HETATM    6  C   UNK N   1      36.973  12.118   9.152  0.00  0.00    -0.044 A 
HETATM    7  C   UNK N   1      35.569  15.482  10.238  0.00  0.00     0.197 A 
HETATM    8  C   UNK N   1      37.414  12.408  11.496  0.00  0.00     0.031 A 
HETATM    9  C   UNK N   1      35.002  16.075   9.063  0.00  0.00     0.032 A 
HETATM   10  C   UNK N   1      37.510  11.650  10.340  0.00  0.00     0.010 A 
HETATM   11  C   UNK N   1      35.006  15.451   7.800  0.00  0.00     0.019 A 
HETATM   12  C   UNK N   1      37.122  11.274   7.928  0.00  0.00     0.049 C 
HETATM   13  C   UNK N   1      34.412  17.352   9.159  0.00  0.00     0.017 A 
HETATM   14  C   UNK N   1      34.450  16.073   6.679  0.00  0.00     0.020 A 
HETATM   15  C   UNK N   1      33.852  17.976   8.039  0.00  0.00     0.001 A 
HETATM   16  C   UNK N   1      33.873  17.337   6.800  0.00  0.00     0.001 A 
ENDROOT
BRANCH   3  17
HETATM   17  N   UNK N   1      36.782  14.340  12.747  0.00  0.00    -0.387 N 
HETATM   18  H   UNK N   1      37.426  15.077  12.850  0.00  0.00     0.159 HD
BRANCH  17  19
HETATM   19  C   UNK N   1      35.920  14.042  13.862  0.00  0.00     0.150 C 
BRANCH  19  20
HETATM   20  C   UNK N   1      36.691  13.168  14.849  0.00  0.00     0.292 C 
BRANCH  20  21
HETATM   21  N   UNK N   1      35.833  12.180  15.502  0.00  0.00     0.089 N 
BRANCH  21  22
HETATM   22  C   UNK N   1      34.706  12.864  16.131  0.00  0.00     0.268 C 
HETATM   23  C   UNK N   1      35.095  13.331  17.523  0.00  0.00     0.037 C 
ENDBRANCH  21  22
BRANCH  21  24
HETATM   24  C   UNK N   1      35.295  11.348  14.432  0.00  0.00     0.268 C 
HETATM   25  C   UNK N   1      33.825  11.045  14.669  0.00  0.00     0.037 C 
ENDBRANCH  21  24
ENDBRANCH  20  21
ENDBRANCH  19  20
ENDBRANCH  17  19
ENDBRANCH   3  17
TORSDOF 6
ENDMDL
MODEL 4
REMARK VINA RESULT:      -6.3      1.969      3.162
REMARK  6 active torsions:
REMARK  status: ('A' for Active; 'I' for Inactive)
REMARK    1  A    between atoms: N_3  and  C_5 
REMARK    2  A    between atoms: N_3  and  C_9 
REMARK    3  A    between atoms: N_3  and  C_10 
REMARK    4  A    between atoms: N_4  and  C_6 
REMARK    5  A    between atoms: N_4  and  C_7 
REMARK    6  A    between atoms: C_5  and  C_6 
ROOT
HETATM    1  S   UNK N   1      36.865  10.338  14.583  0.00  0.00    -0.088 SA
HETATM    2  O   UNK N   1      35.995  14.449  14.264  0.00  0.00    -0.286 OA
HETATM    3  C   UNK N   1      37.054  13.320  11.925  0.00  0.00     0.043 A 
HETATM    4  C   UNK N   1      36.824  12.611  13.161  0.00  0.00     0.059 A 
HETATM    5  C   UNK N   1      37.135  11.215  13.171  0.00  0.00     0.028 A 
HETATM    6  C   UNK N   1      37.635  10.566  12.027  0.00  0.00    -0.044 A 
HETATM    7  C   UNK N   1      36.271  13.266  14.334  0.00  0.00     0.197 A 
HETATM    8  C   UNK N   1      37.537  12.634  10.808  0.00  0.00     0.031 A 
HETATM    9  C   UNK N   1      36.004  12.622  15.586  0.00  0.00     0.032 A 
HETATM   10  C   UNK N   1      37.832  11.281  10.857  0.00  0.00     0.010 A 
HETATM   11  C   UNK N   1      36.241  11.253  15.821  0.00  0.00     0.019 A 
HETATM   12  C   UNK N   1      37.945   9.105  12.024  0.00  0.00     0.049 C 
HETATM   13  C   UNK N   1      35.470  13.383  16.646  0.00  0.00     0.017 A 
HETATM   14  C   UNK N   1      35.954  10.666  17.057  0.00  0.00     0.020 A 
HETATM   15  C   UNK N   1      35.185  12.799  17.884  0.00  0.00     0.001 A 
HETATM   16  C   UNK N   1      35.425  11.441  18.088  0.00  0.00     0.001 A 
ENDROOT
BRANCH   3  17
HETATM   17  N   UNK N   1      36.749  14.692  11.725  0.00  0.00    -0.387 N 
HETATM   18  H   UNK N   1      36.780  15.286  12.509  0.00  0.00     0.159 HD
BRANCH  17  19
HETATM   19  C   UNK N   1      36.396  15.275  10.456  0.00  0.00     0.150 C 
BRANCH  19  20
HETATM   20  C   UNK N   1      35.309  16.321  10.688  0.00  0.00     0.292 C 
BRANCH  20  21
HETATM   21  N   UNK N   1      34.283  16.296   9.648  0.00  0.00     0.089 N 
BRANCH  21  22
HETATM   22  C   UNK N   1      34.584  17.320   8.651  0.00  0.00     0.268 C 
HETATM   23  C   UNK N   1      33.316  18.064   8.273  0.00  0.00     0.037 C 
ENDBRANCH  21  22
BRANCH  21  24
HETATM   24  C   UNK N   1      34.410  15.000   8.991  0.00  0.00     0.268 C 
HETATM   25  C   UNK N   1      33.067  14.292   8.927  0.00  0.00     0.037 C 
ENDBRANCH  21  24
ENDBRANCH  20  21
ENDBRANCH  19  20
ENDBRANCH  17  19
ENDBRANCH   3  17
TORSDOF 6
ENDMDL
MODEL 5
REMARK VINA RESULT:      -6.3      3.657      8.376
REMARK  6 active torsions:
REMARK  status: ('A' for Active; 'I' for Inactive)
REMARK    1  A    between atoms: N_3  and  C_5 
REMARK    2  A    between atoms: N_3  and  C_9 
REMARK    3  A    between atoms: N_3  and  C_10 
REMARK    4  A    between atoms: N_4  and  C_6 
REMARK    5  A    between atoms: N_4  and  C_7 
REMARK    6  A    between atoms: C_5  and  C_6 
ROOT
HETATM    1  S   UNK N   1      35.020  12.962  15.675  0.00  0.00    -0.088 SA
HETATM    2  O   UNK N   1      35.097   8.816  16.430  0.00  0.00    -0.286 OA
HETATM    3  C   UNK N   1      35.338  10.402  18.731  0.00  0.00     0.043 A 
HETATM    4  C   UNK N   1      35.215  10.904  17.383  0.00  0.00     0.059 A 
HETATM    5  C   UNK N   1      35.183  12.325  17.225  0.00  0.00     0.028 A 
HETATM    6  C   UNK N   1      35.261  13.189  18.333  0.00  0.00    -0.044 A 
HETATM    7  C   UNK N   1      35.095  10.018  16.238  0.00  0.00     0.197 A 
HETATM    8  C   UNK N   1      35.397  11.294  19.804  0.00  0.00     0.031 A 
HETATM    9  C   UNK N   1      34.955  10.447  14.878  0.00  0.00     0.032 A 
HETATM   10  C   UNK N   1      35.368  12.666  19.611  0.00  0.00     0.010 A 
HETATM   11  C   UNK N   1      34.907  11.800  14.492  0.00  0.00     0.019 A 
HETATM   12  C   UNK N   1      35.209  14.673  18.179  0.00  0.00     0.049 C 
HETATM   13  C   UNK N   1      34.853   9.474  13.862  0.00  0.00     0.017 A 
HETATM   14  C   UNK N   1      34.759  12.171  13.152  0.00  0.00     0.020 A 
HETATM   15  C   UNK N   1      34.708   9.841  12.520  0.00  0.00     0.001 A 
HETATM   16  C   UNK N   1      34.660  11.190  12.167  0.00  0.00     0.001 A 
ENDROOT
BRANCH   3  17
HETATM   17  N   UNK N   1      35.330   9.024  19.071  0.00  0.00    -0.387 N 
HETATM   18  H   UNK N   1      35.958   8.433  18.598  0.00  0.00     0.159 HD
BRANCH  17  19
HETATM   19  C   UNK N   1      34.466   8.430  20.060  0.00  0.00     0.150 C 
BRANCH  19  20
HETATM   20  C   UNK N   1      33.019   8.589  19.598  0.00  0.00     0.292 C 
BRANCH  20  21
HETATM   21  N   UNK N   1      32.138   9.028  20.678  0.00  0.00     0.089 N 
BRANCH  21  22
HETATM   22  C   UNK N   1      31.228   7.939  21.027  0.00  0.00     0.268 C 
HETATM   23  C   UNK N   1      30.858   7.153  19.782  0.00  0.00     0.037 C 
ENDBRANCH  21  22
BRANCH  21  24
HETATM   24  C   UNK N   1      33.000   9.261  21.830  0.00  0.00     0.268 C 
HETATM   25  C   UNK N   1      32.789  10.657  22.391  0.00  0.00     0.037 C 
ENDBRANCH  21  24
ENDBRANCH  20  21
ENDBRANCH  19  20
ENDBRANCH  17  19
ENDBRANCH   3  17
TORSDOF 6
ENDMDL
MODEL 6
REMARK VINA RESULT:      -6.1     20.227     23.727
REMARK  6 active torsions:
REMARK  status: ('A' for Active; 'I' for Inactive)
REMARK    1  A    between atoms: N_3  and  C_5 
REMARK    2  A    between atoms: N_3  and  C_9 
REMARK    3  A    between atoms: N_3  and  C_10 
REMARK    4  A    between atoms: N_4  and  C_6 
REMARK    5  A    between atoms: N_4  and  C_7 
REMARK    6  A    between atoms: C_5  and  C_6 
ROOT
HETATM    1  S   UNK N   1      30.562  20.800  -6.282  0.00  0.00    -0.088 SA
HETATM    2  O   UNK N   1      30.318  23.391  -2.967  0.00  0.00    -0.286 OA
HETATM    3  C   UNK N   1      28.262  23.738  -4.844  0.00  0.00     0.043 A 
HETATM    4  C   UNK N   1      29.342  22.788  -4.960  0.00  0.00     0.059 A 
HETATM    5  C   UNK N   1      29.335  21.941  -6.111  0.00  0.00     0.028 A 
HETATM    6  C   UNK N   1      28.318  22.027  -7.080  0.00  0.00    -0.044 A 
HETATM    7  C   UNK N   1      30.374  22.666  -3.944  0.00  0.00     0.197 A 
HETATM    8  C   UNK N   1      27.265  23.781  -5.821  0.00  0.00     0.031 A 
HETATM    9  C   UNK N   1      31.464  21.737  -3.987  0.00  0.00     0.032 A 
HETATM   10  C   UNK N   1      27.294  22.946  -6.927  0.00  0.00     0.010 A 
HETATM   11  C   UNK N   1      31.656  20.813  -5.032  0.00  0.00     0.019 A 
HETATM   12  C   UNK N   1      28.293  21.133  -8.276  0.00  0.00     0.049 C 
HETATM   13  C   UNK N   1      32.399  21.732  -2.931  0.00  0.00     0.017 A 
HETATM   14  C   UNK N   1      32.730  19.918  -5.025  0.00  0.00     0.020 A 
HETATM   15  C   UNK N   1      33.476  20.840  -2.922  0.00  0.00     0.001 A 
HETATM   16  C   UNK N   1      33.639  19.932  -3.969  0.00  0.00     0.001 A 
ENDROOT
BRANCH   3  17
HETATM   17  N   UNK N   1      28.087  24.615  -3.741  0.00  0.00    -0.387 N 
HETATM   18  H   UNK N   1      28.675  24.492  -2.962  0.00  0.00     0.159 HD
BRANCH  17  19
HETATM   19  C   UNK N   1      27.109  25.671  -3.683  0.00  0.00     0.150 C 
BRANCH  19  20
HETATM   20  C   UNK N   1      27.786  26.981  -4.081  0.00  0.00     0.292 C 
BRANCH  20  21
HETATM   21  N   UNK N   1      26.904  27.847  -4.861  0.00  0.00     0.089 N 
BRANCH  21  22
HETATM   22  C   UNK N   1      27.057  27.536  -6.280  0.00  0.00     0.268 C 
HETATM   23  C   UNK N   1      27.865  28.624  -6.964  0.00  0.00     0.037 C 
ENDBRANCH  21  22
BRANCH  21  24
HETATM   24  C   UNK N   1      25.544  27.481  -4.479  0.00  0.00     0.268 C 
HETATM   25  C   UNK N   1      24.720  27.113  -5.701  0.00  0.00     0.037 C 
ENDBRANCH  21  24
ENDBRANCH  20  21
ENDBRANCH  19  20
ENDBRANCH  17  19
ENDBRANCH   3  17
TORSDOF 6
ENDMDL
MODEL 7
REMARK VINA RESULT:      -6.1     14.331     15.892
REMARK  6 active torsions:
REMARK  status: ('A' for Active; 'I' for Inactive)
REMARK    1  A    between atoms: N_3  and  C_5 
REMARK    2  A    between atoms: N_3  and  C_9 
REMARK    3  A    between atoms: N_3  and  C_10 
REMARK    4  A    between atoms: N_4  and  C_6 
REMARK    5  A    between atoms: N_4  and  C_7 
REMARK    6  A    between atoms: C_5  and  C_6 
ROOT
HETATM    1  S   UNK N   1      24.510  13.315   8.668  0.00  0.00    -0.088 SA
HETATM    2  O   UNK N   1      20.354  13.878   8.254  0.00  0.00    -0.286 OA
HETATM    3  C   UNK N   1      21.858  14.825   6.084  0.00  0.00     0.043 A 
HETATM    4  C   UNK N   1      22.405  14.210   7.270  0.00  0.00     0.059 A 
HETATM    5  C   UNK N   1      23.824  14.047   7.316  0.00  0.00     0.028 A 
HETATM    6  C   UNK N   1      24.646  14.462   6.252  0.00  0.00    -0.044 A 
HETATM    7  C   UNK N   1      21.560  13.743   8.355  0.00  0.00     0.197 A 
HETATM    8  C   UNK N   1      22.708  15.209   5.044  0.00  0.00     0.031 A 
HETATM    9  C   UNK N   1      22.032  13.111   9.552  0.00  0.00     0.032 A 
HETATM   10  C   UNK N   1      24.081  15.040   5.127  0.00  0.00     0.010 A 
HETATM   11  C   UNK N   1      23.393  12.857   9.810  0.00  0.00     0.019 A 
HETATM   12  C   UNK N   1      26.128  14.279   6.283  0.00  0.00     0.049 C 
HETATM   13  C   UNK N   1      21.096  12.712  10.529  0.00  0.00     0.017 A 
HETATM   14  C   UNK N   1      23.806  12.228  10.988  0.00  0.00     0.020 A 
HETATM   15  C   UNK N   1      21.506  12.085  11.710  0.00  0.00     0.001 A 
HETATM   16  C   UNK N   1      22.861  11.841  11.937  0.00  0.00     0.001 A 
ENDROOT
BRANCH   3  17
HETATM   17  N   UNK N   1      20.470  15.012   5.851  0.00  0.00    -0.387 N 
HETATM   18  H   UNK N   1      19.897  14.213   5.840  0.00  0.00     0.159 HD
BRANCH  17  19
HETATM   19  C   UNK N   1      19.843  16.291   5.631  0.00  0.00     0.150 C 
BRANCH  19  20
HETATM   20  C   UNK N   1      19.384  16.361   4.176  0.00  0.00     0.292 C 
BRANCH  20  21
HETATM   21  N   UNK N   1      19.953  17.508   3.471  0.00  0.00     0.089 N 
BRANCH  21  22
HETATM   22  C   UNK N   1      20.834  18.241   4.378  0.00  0.00     0.268 C 
HETATM   23  C   UNK N   1      22.122  18.609   3.664  0.00  0.00     0.037 C 
ENDBRANCH  21  22
BRANCH  21  24
HETATM   24  C   UNK N   1      20.785  16.954   2.409  0.00  0.00     0.268 C 
HETATM   25  C   UNK N   1      20.062  17.003   1.074  0.00  0.00     0.037 C 
ENDBRANCH  21  24
ENDBRANCH  20  21
ENDBRANCH  19  20
ENDBRANCH  17  19
ENDBRANCH   3  17
TORSDOF 6
ENDMDL
MODEL 8
REMARK VINA RESULT:      -5.9     11.846     13.884
REMARK  6 active torsions:
REMARK  status: ('A' for Active; 'I' for Inactive)
REMARK    1  A    between atoms: N_3  and  C_5 
REMARK    2  A    between atoms: N_3  and  C_9 
REMARK    3  A    between atoms: N_3  and  C_10 
REMARK    4  A    between atoms: N_4  and  C_6 
REMARK    5  A    between atoms: N_4  and  C_7 
REMARK    6  A    between atoms: C_5  and  C_6 
ROOT
HETATM    1  S   UNK N   1      21.345  14.737   8.081  0.00  0.00    -0.088 SA
HETATM    2  O   UNK N   1      25.379  13.525   8.228  0.00  0.00    -0.286 OA
HETATM    3  C   UNK N   1      24.817  15.387   6.207  0.00  0.00     0.043 A 
HETATM    4  C   UNK N   1      23.849  14.843   7.129  0.00  0.00     0.059 A 
HETATM    5  C   UNK N   1      22.507  15.323   7.014  0.00  0.00     0.028 A 
HETATM    6  C   UNK N   1      22.152  16.285   6.050  0.00  0.00    -0.044 A 
HETATM    7  C   UNK N   1      24.216  13.879   8.152  0.00  0.00     0.197 A 
HETATM    8  C   UNK N   1      24.425  16.351   5.275  0.00  0.00     0.031 A 
HETATM    9  C   UNK N   1      23.313  13.310   9.109  0.00  0.00     0.032 A 
HETATM   10  C   UNK N   1      23.113  16.789   5.190  0.00  0.00     0.010 A 
HETATM   11  C   UNK N   1      21.944  13.636   9.172  0.00  0.00     0.019 A 
HETATM   12  C   UNK N   1      20.757  16.806   5.935  0.00  0.00     0.049 C 
HETATM   13  C   UNK N   1      23.807  12.379  10.045  0.00  0.00     0.017 A 
HETATM   14  C   UNK N   1      21.103  13.063  10.130  0.00  0.00     0.020 A 
HETATM   15  C   UNK N   1      22.967  11.802  11.003  0.00  0.00     0.001 A 
HETATM   16  C   UNK N   1      21.616  12.146  11.046  0.00  0.00     0.001 A 
ENDROOT
BRANCH   3  17
HETATM   17  N   UNK N   1      26.199  15.062   6.219  0.00  0.00    -0.387 N 
HETATM   18  H   UNK N   1      26.444  14.116   6.333  0.00  0.00     0.159 HD
BRANCH  17  19
HETATM   19  C   UNK N   1      27.266  16.019   6.075  0.00  0.00     0.150 C 
BRANCH  19  20
HETATM   20  C   UNK N   1      27.498  16.693   7.425  0.00  0.00     0.292 C 
BRANCH  20  21
HETATM   21  N   UNK N   1      28.494  17.759   7.349  0.00  0.00     0.089 N 
BRANCH  21  22
HETATM   22  C   UNK N   1      28.239  18.571   6.162  0.00  0.00     0.268 C 
HETATM   23  C   UNK N   1      27.598  19.888   6.562  0.00  0.00     0.037 C 
ENDBRANCH  21  22
BRANCH  21  24
HETATM   24  C   UNK N   1      28.265  18.606   8.513  0.00  0.00     0.268 C 
HETATM   25  C   UNK N   1      29.312  18.350   9.584  0.00  0.00     0.037 C 
ENDBRANCH  21  24
ENDBRANCH  20  21
ENDBRANCH  19  20
ENDBRANCH  17  19
ENDBRANCH   3  17
TORSDOF 6
ENDMDL
MODEL 9
REMARK VINA RESULT:      -5.9      6.882     10.444
REMARK  6 active torsions:
REMARK  status: ('A' for Active; 'I' for Inactive)
REMARK    1  A    between atoms: N_3  and  C_5 
REMARK    2  A    between atoms: N_3  and  C_9 
REMARK    3  A    between atoms: N_3  and  C_10 
REMARK    4  A    between atoms: N_4  and  C_6 
REMARK    5  A    between atoms: N_4  and  C_7 
REMARK    6  A    between atoms: C_5  and  C_6 
ROOT
HETATM    1  S   UNK N   1      29.250  16.643   5.558  0.00  0.00    -0.088 SA
HETATM    2  O   UNK N   1      32.869  17.251   7.632  0.00  0.00    -0.286 OA
HETATM    3  C   UNK N   1      33.175  16.003   5.138  0.00  0.00     0.043 A 
HETATM    4  C   UNK N   1      31.915  16.405   5.718  0.00  0.00     0.059 A 
HETATM    5  C   UNK N   1      30.742  16.172   4.936  0.00  0.00     0.028 A 
HETATM    6  C   UNK N   1      30.815  15.586   3.659  0.00  0.00    -0.044 A 
HETATM    7  C   UNK N   1      31.836  17.048   7.019  0.00  0.00     0.197 A 
HETATM    8  C   UNK N   1      33.204  15.437   3.861  0.00  0.00     0.031 A 
HETATM    9  C   UNK N   1      30.625  17.486   7.647  0.00  0.00     0.032 A 
HETATM   10  C   UNK N   1      32.044  15.223   3.135  0.00  0.00     0.010 A 
HETATM   11  C   UNK N   1      29.352  17.350   7.059  0.00  0.00     0.019 A 
HETATM   12  C   UNK N   1      29.595  15.356   2.828  0.00  0.00     0.049 C 
HETATM   13  C   UNK N   1      30.695  18.092   8.918  0.00  0.00     0.017 A 
HETATM   14  C   UNK N   1      28.199  17.802   7.706  0.00  0.00     0.020 A 
HETATM   15  C   UNK N   1      29.543  18.543   9.570  0.00  0.00     0.001 A 
HETATM   16  C   UNK N   1      28.295  18.399   8.962  0.00  0.00     0.001 A 
ENDROOT
BRANCH   3  17
HETATM   17  N   UNK N   1      34.437  16.210   5.753  0.00  0.00    -0.387 N 
HETATM   18  H   UNK N   1      34.674  17.130   6.013  0.00  0.00     0.159 HD
BRANCH  17  19
HETATM   19  C   UNK N   1      35.396  15.169   6.024  0.00  0.00     0.150 C 
BRANCH  19  20
HETATM   20  C   UNK N   1      34.841  14.276   7.132  0.00  0.00     0.292 C 
BRANCH  20  21
HETATM   21  N   UNK N   1      35.102  14.818   8.463  0.00  0.00     0.089 N 
BRANCH  21  22
HETATM   22  C   UNK N   1      34.045  14.385   9.374  0.00  0.00     0.268 C 
HETATM   23  C   UNK N   1      32.871  13.839   8.582  0.00  0.00     0.037 C 
ENDBRANCH  21  22
BRANCH  21  24
HETATM   24  C   UNK N   1      36.344  14.199   8.913  0.00  0.00     0.268 C 
HETATM   25  C   UNK N   1      36.804  14.802  10.229  0.00  0.00     0.037 C 
ENDBRANCH  21  24
ENDBRANCH  20  21
ENDBRANCH  19  20
ENDBRANCH  17  19
ENDBRANCH   3  17
TORSDOF 6
ENDMDL
