REMARK  8 active torsions:
REMARK  status: ('A' for Active; 'I' for Inactive)
REMARK    1  A    between atoms: C_2  and  N_1 
REMARK    2  A    between atoms: C_2  and  C_3 
REMARK    3  A    between atoms: C_2  and  C_9 
REMARK    4  A    between atoms: C_3  and  S_4 
REMARK    5  A    between atoms: S_4  and  C_5 
REMARK    6  A    between atoms: C_5  and  C_6 
REMARK    7  A    between atoms: C_6  and  O_7 
REMARK    8  A    between atoms: C_9  and  O_10 
ROOT
HETATM    1  C   UNK N   1       5.143   2.124  -0.000  0.00  0.00     0.182 C 
ENDROOT
BRANCH   1   2
HETATM    2  N   UNK N   1       5.691   3.470   0.000  0.00  0.00    -0.417 N 
HETATM    3  H   UNK N   1       6.701   3.609   0.000  0.00  0.00     0.150 HD
HETATM    4  H   UNK N   1       5.065   4.276   0.000  0.00  0.00     0.150 HD
ENDBRANCH   1   2
BRANCH   1   5
HETATM    5  C   UNK N   1       3.609   2.029   0.000  0.00  0.00     0.110 C 
BRANCH   5   6
HETATM    6  S   UNK N   1       2.973   0.319  -0.000  0.00  0.00    -0.156 SA
BRANCH   6   7
HETATM    7  C   UNK N   1       1.139   0.511   0.000  0.00  0.00     0.183 C 
BRANCH   7   8
HETATM    8  C   UNK N   1       0.454   1.851  -0.000  0.00  0.00     0.149 C 
HETATM    9  O   UNK N   1       1.077   2.898  -0.000  0.00  0.00    -0.649 OA
BRANCH   8  10
HETATM   10  O   UNK N   1      -0.891   1.884   0.000  0.00  0.00    -0.776 OA
HETATM   11  H   UNK N   1      -1.339   2.707   0.000  0.00  0.00     0.167 HD
ENDBRANCH   8  10
ENDBRANCH   7   8
ENDBRANCH   6   7
ENDBRANCH   5   6
ENDBRANCH   1   5
BRANCH   1  12
HETATM   12  C   UNK N   1       6.147   0.995   0.000  0.00  0.00     0.163 C 
HETATM   13  O   UNK N   1       5.785  -0.169   0.000  0.00  0.00    -0.648 OA
BRANCH  12  14
HETATM   14  O   UNK N   1       7.464   1.273   0.000  0.00  0.00    -0.775 OA
HETATM   15  H   UNK N   1       8.091   0.576  -0.000  0.00  0.00     0.167 HD
ENDBRANCH  12  14
ENDBRANCH   1  12
TORSDOF 8
