MODEL 1
REMARK VINA RESULT:      -6.6      0.000      0.000
REMARK  11 active torsions:
REMARK  status: ('A' for Active; 'I' for Inactive)
REMARK    1  A    between atoms: O_9  and  C_33 
REMARK    2  A    between atoms: O_10  and  C_34 
REMARK       I    between atoms: N_13  and  C_19 
REMARK    3  A    between atoms: N_13  and  C_21 
REMARK       I    between atoms: N_14  and  C_20 
REMARK    4  A    between atoms: N_14  and  C_22 
REMARK    5  A    between atoms: C_15  and  C_16 
REMARK    6  A    between atoms: C_15  and  C_17 
REMARK    7  A    between atoms: C_16  and  C_18 
REMARK    8  A    between atoms: C_17  and  C_19 
REMARK    9  A    between atoms: C_18  and  C_20 
REMARK   10  A    between atoms: C_27  and  C_33 
REMARK   11  A    between atoms: C_28  and  C_34 
ROOT
HETATM    1  C   UNK N   1      32.239  17.178   3.285  0.00  0.00     0.010 C 
ENDROOT
BRANCH   1   2
HETATM    2  C   UNK N   1      33.296  16.076   3.412  0.00  0.00     0.010 C 
BRANCH   2   3
HETATM    3  C   UNK N   1      32.840  14.860   4.223  0.00  0.00     0.103 C 
BRANCH   3   4
HETATM    4  C   UNK N   1      33.803  14.560   5.315  0.00  0.00     0.222 C 
HETATM    5  O   UNK N   1      34.999  14.505   5.069  0.00  0.00    -0.273 OA
HETATM    6  N   UNK N   1      33.338  14.388   6.573  0.00  0.00    -0.325 N 
HETATM    7  H   UNK N   1      32.376  14.534   6.727  0.00  0.00     0.169 HD
BRANCH   6   8
HETATM    8  C   UNK N   1      34.131  14.012   7.689  0.00  0.00     0.069 A 
HETATM    9  C   UNK N   1      34.575  15.019   8.569  0.00  0.00     0.052 A 
HETATM   10  I   UNK N   1      34.027  17.032   8.033  0.00  0.00    -0.041 I 
HETATM   11  C   UNK N   1      35.341  14.678   9.729  0.00  0.00     0.073 A 
HETATM   12  C   UNK N   1      35.626  13.298   9.960  0.00  0.00     0.026 A 
HETATM   13  I   UNK N   1      36.717  12.490  11.596  0.00  0.00    -0.043 I 
HETATM   14  C   UNK N   1      35.165  12.332   9.075  0.00  0.00     0.040 A 
HETATM   15  C   UNK N   1      34.428  12.661   7.953  0.00  0.00     0.035 A 
HETATM   16  I   UNK N   1      33.737  11.033   6.785  0.00  0.00    -0.042 I 
BRANCH  11  17
HETATM   17  C   UNK N   1      35.830  15.736  10.685  0.00  0.00     0.178 C 
HETATM   18  O   UNK N   1      35.073  16.249  11.491  0.00  0.00    -0.646 OA
BRANCH  17  19
HETATM   19  O   UNK N   1      37.108  16.143  10.681  0.00  0.00    -0.773 OA
HETATM   20  H   UNK N   1      37.603  16.133   9.884  0.00  0.00     0.167 HD
ENDBRANCH  17  19
ENDBRANCH  11  17
ENDBRANCH   6   8
ENDBRANCH   3   4
ENDBRANCH   2   3
ENDBRANCH   1   2
BRANCH   1  21
HETATM   21  C   UNK N   1      31.582  17.574   4.608  0.00  0.00     0.103 C 
BRANCH  21  22
HETATM   22  C   UNK N   1      30.143  17.182   4.666  0.00  0.00     0.222 C 
HETATM   23  O   UNK N   1      29.699  16.674   5.686  0.00  0.00    -0.273 OA
HETATM   24  N   UNK N   1      29.338  17.421   3.602  0.00  0.00    -0.325 N 
HETATM   25  H   UNK N   1      29.726  17.864   2.813  0.00  0.00     0.169 HD
BRANCH  24  26
HETATM   26  C   UNK N   1      27.963  17.064   3.569  0.00  0.00     0.069 A 
HETATM   27  C   UNK N   1      26.947  17.966   3.984  0.00  0.00     0.052 A 
HETATM   28  I   UNK N   1      27.565  19.885   4.722  0.00  0.00    -0.041 I 
HETATM   29  C   UNK N   1      25.571  17.559   3.946  0.00  0.00     0.073 A 
HETATM   30  C   UNK N   1      25.275  16.238   3.491  0.00  0.00     0.026 A 
HETATM   31  I   UNK N   1      23.342  15.366   3.323  0.00  0.00    -0.043 I 
HETATM   32  C   UNK N   1      26.302  15.385   3.100  0.00  0.00     0.040 A 
HETATM   33  C   UNK N   1      27.625  15.781   3.138  0.00  0.00     0.035 A 
HETATM   34  I   UNK N   1      29.104  14.403   2.513  0.00  0.00    -0.042 I 
BRANCH  29  35
HETATM   35  C   UNK N   1      24.460  18.488   4.380  0.00  0.00     0.178 C 
HETATM   36  O   UNK N   1      23.972  19.291   3.607  0.00  0.00    -0.646 OA
BRANCH  35  37
HETATM   37  O   UNK N   1      23.973  18.452   5.631  0.00  0.00    -0.773 OA
HETATM   38  H   UNK N   1      23.772  19.247   6.082  0.00  0.00     0.167 HD
ENDBRANCH  35  37
ENDBRANCH  29  35
ENDBRANCH  24  26
ENDBRANCH  21  22
ENDBRANCH   1  21
TORSDOF 11
ENDMDL
MODEL 2
REMARK VINA RESULT:      -6.6      2.507     10.890
REMARK  11 active torsions:
REMARK  status: ('A' for Active; 'I' for Inactive)
REMARK    1  A    between atoms: O_9  and  C_33 
REMARK    2  A    between atoms: O_10  and  C_34 
REMARK       I    between atoms: N_13  and  C_19 
REMARK    3  A    between atoms: N_13  and  C_21 
REMARK       I    between atoms: N_14  and  C_20 
REMARK    4  A    between atoms: N_14  and  C_22 
REMARK    5  A    between atoms: C_15  and  C_16 
REMARK    6  A    between atoms: C_15  and  C_17 
REMARK    7  A    between atoms: C_16  and  C_18 
REMARK    8  A    between atoms: C_17  and  C_19 
REMARK    9  A    between atoms: C_18  and  C_20 
REMARK   10  A    between atoms: C_27  and  C_33 
REMARK   11  A    between atoms: C_28  and  C_34 
ROOT
HETATM    1  C   UNK N   1      31.338  16.808   4.133  0.00  0.00     0.010 C 
ENDROOT
BRANCH   1   2
HETATM    2  C   UNK N   1      30.116  17.568   4.659  0.00  0.00     0.010 C 
BRANCH   2   3
HETATM    3  C   UNK N   1      29.089  16.686   5.372  0.00  0.00     0.103 C 
BRANCH   3   4
HETATM    4  C   UNK N   1      27.744  16.835   4.757  0.00  0.00     0.222 C 
HETATM    5  O   UNK N   1      27.513  16.318   3.674  0.00  0.00    -0.273 OA
HETATM    6  N   UNK N   1      26.786  17.513   5.428  0.00  0.00    -0.325 N 
HETATM    7  H   UNK N   1      27.001  17.829   6.335  0.00  0.00     0.169 HD
BRANCH   6   8
HETATM    8  C   UNK N   1      25.492  17.806   4.922  0.00  0.00     0.069 A 
HETATM    9  C   UNK N   1      25.319  18.973   4.152  0.00  0.00     0.052 A 
HETATM   10  I   UNK N   1      27.072  20.201   3.914  0.00  0.00    -0.041 I 
HETATM   11  C   UNK N   1      24.040  19.284   3.589  0.00  0.00     0.073 A 
HETATM   12  C   UNK N   1      22.965  18.373   3.827  0.00  0.00     0.026 A 
HETATM   13  I   UNK N   1      20.972  18.555   3.109  0.00  0.00    -0.043 I 
HETATM   14  C   UNK N   1      23.175  17.228   4.584  0.00  0.00     0.040 A 
HETATM   15  C   UNK N   1      24.409  16.930   5.132  0.00  0.00     0.035 A 
HETATM   16  I   UNK N   1      24.544  15.087   6.170  0.00  0.00    -0.042 I 
BRANCH  11  17
HETATM   17  C   UNK N   1      23.826  20.526   2.763  0.00  0.00     0.178 C 
HETATM   18  O   UNK N   1      24.319  20.632   1.653  0.00  0.00    -0.646 OA
BRANCH  17  19
HETATM   19  O   UNK N   1      23.089  21.549   3.220  0.00  0.00    -0.773 OA
HETATM   20  H   UNK N   1      23.366  22.433   3.072  0.00  0.00     0.167 HD
ENDBRANCH  17  19
ENDBRANCH  11  17
ENDBRANCH   6   8
ENDBRANCH   3   4
ENDBRANCH   2   3
ENDBRANCH   1   2
BRANCH   1  21
HETATM   21  C   UNK N   1      32.666  17.542   4.325  0.00  0.00     0.103 C 
BRANCH  21  22
HETATM   22  C   UNK N   1      33.350  17.150   5.593  0.00  0.00     0.222 C 
HETATM   23  O   UNK N   1      34.165  17.912   6.095  0.00  0.00    -0.273 OA
HETATM   24  N   UNK N   1      33.040  15.973   6.189  0.00  0.00    -0.325 N 
HETATM   25  H   UNK N   1      32.353  15.405   5.771  0.00  0.00     0.169 HD
BRANCH  24  26
HETATM   26  C   UNK N   1      33.656  15.519   7.386  0.00  0.00     0.069 A 
HETATM   27  C   UNK N   1      34.841  14.736   7.365  0.00  0.00     0.052 A 
HETATM   28  I   UNK N   1      35.649  14.209   5.447  0.00  0.00    -0.041 I 
HETATM   29  C   UNK N   1      35.422  14.286   8.598  0.00  0.00     0.073 A 
HETATM   30  C   UNK N   1      34.770  14.646   9.817  0.00  0.00     0.026 A 
HETATM   31  I   UNK N   1      35.399  14.132  11.782  0.00  0.00    -0.043 I 
HETATM   32  C   UNK N   1      33.607  15.409   9.791  0.00  0.00     0.040 A 
HETATM   33  C   UNK N   1      33.051  15.839   8.601  0.00  0.00     0.035 A 
HETATM   34  I   UNK N   1      31.285  17.001   8.680  0.00  0.00    -0.042 I 
BRANCH  29  35
HETATM   35  C   UNK N   1      36.682  13.451   8.620  0.00  0.00     0.178 C 
HETATM   36  O   UNK N   1      37.781  13.970   8.674  0.00  0.00    -0.646 OA
BRANCH  35  37
HETATM   37  O   UNK N   1      36.626  12.110   8.585  0.00  0.00    -0.773 OA
HETATM   38  H   UNK N   1      35.836  11.663   8.817  0.00  0.00     0.167 HD
ENDBRANCH  35  37
ENDBRANCH  29  35
ENDBRANCH  24  26
ENDBRANCH  21  22
ENDBRANCH   1  21
TORSDOF 11
ENDMDL
MODEL 3
REMARK VINA RESULT:      -6.5      2.437      3.125
REMARK  11 active torsions:
REMARK  status: ('A' for Active; 'I' for Inactive)
REMARK    1  A    between atoms: O_9  and  C_33 
REMARK    2  A    between atoms: O_10  and  C_34 
REMARK       I    between atoms: N_13  and  C_19 
REMARK    3  A    between atoms: N_13  and  C_21 
REMARK       I    between atoms: N_14  and  C_20 
REMARK    4  A    between atoms: N_14  and  C_22 
REMARK    5  A    between atoms: C_15  and  C_16 
REMARK    6  A    between atoms: C_15  and  C_17 
REMARK    7  A    between atoms: C_16  and  C_18 
REMARK    8  A    between atoms: C_17  and  C_19 
REMARK    9  A    between atoms: C_18  and  C_20 
REMARK   10  A    between atoms: C_27  and  C_33 
REMARK   11  A    between atoms: C_28  and  C_34 
ROOT
HETATM    1  C   UNK N   1      29.361  16.522   3.187  0.00  0.00     0.010 C 
ENDROOT
BRANCH   1   2
HETATM    2  C   UNK N   1      30.769  16.221   3.714  0.00  0.00     0.010 C 
BRANCH   2   3
HETATM    3  C   UNK N   1      31.642  17.462   3.913  0.00  0.00     0.103 C 
BRANCH   3   4
HETATM    4  C   UNK N   1      32.772  17.172   4.835  0.00  0.00     0.222 C 
HETATM    5  O   UNK N   1      33.736  17.923   4.867  0.00  0.00    -0.273 OA
HETATM    6  N   UNK N   1      32.695  16.096   5.651  0.00  0.00    -0.325 N 
HETATM    7  H   UNK N   1      31.856  15.580   5.647  0.00  0.00     0.169 HD
BRANCH   6   8
HETATM    8  C   UNK N   1      33.732  15.653   6.513  0.00  0.00     0.069 A 
HETATM    9  C   UNK N   1      33.773  16.155   7.829  0.00  0.00     0.052 A 
HETATM   10  I   UNK N   1      32.259  17.606   8.321  0.00  0.00    -0.041 I 
HETATM   11  C   UNK N   1      34.778  15.703   8.743  0.00  0.00     0.073 A 
HETATM   12  C   UNK N   1      35.717  14.732   8.278  0.00  0.00     0.026 A 
HETATM   13  I   UNK N   1      37.299  13.864   9.404  0.00  0.00    -0.043 I 
HETATM   14  C   UNK N   1      35.641  14.254   6.976  0.00  0.00     0.040 A 
HETATM   15  C   UNK N   1      34.673  14.694   6.092  0.00  0.00     0.035 A 
HETATM   16  I   UNK N   1      34.669  13.769   4.185  0.00  0.00    -0.042 I 
BRANCH  11  17
HETATM   17  C   UNK N   1      34.846  16.224  10.156  0.00  0.00     0.178 C 
HETATM   18  O   UNK N   1      35.485  17.227  10.423  0.00  0.00    -0.646 OA
BRANCH  17  19
HETATM   19  O   UNK N   1      34.207  15.604  11.159  0.00  0.00    -0.773 OA
HETATM   20  H   UNK N   1      33.315  15.334  11.054  0.00  0.00     0.167 HD
ENDBRANCH  17  19
ENDBRANCH  11  17
ENDBRANCH   6   8
ENDBRANCH   3   4
ENDBRANCH   2   3
ENDBRANCH   1   2
BRANCH   1  21
HETATM   21  C   UNK N   1      28.530  17.427   4.097  0.00  0.00     0.103 C 
BRANCH  21  22
HETATM   22  C   UNK N   1      27.069  17.128   4.010  0.00  0.00     0.222 C 
HETATM   23  O   UNK N   1      26.642  16.492   3.057  0.00  0.00    -0.273 OA
HETATM   24  N   UNK N   1      26.240  17.537   5.001  0.00  0.00    -0.325 N 
HETATM   25  H   UNK N   1      26.629  18.016   5.768  0.00  0.00     0.169 HD
BRANCH  24  26
HETATM   26  C   UNK N   1      24.837  17.308   4.987  0.00  0.00     0.069 A 
HETATM   27  C   UNK N   1      23.937  18.227   4.384  0.00  0.00     0.052 A 
HETATM   28  I   UNK N   1      24.765  20.015   3.533  0.00  0.00    -0.041 I 
HETATM   29  C   UNK N   1      22.526  17.962   4.405  0.00  0.00     0.073 A 
HETATM   30  C   UNK N   1      22.077  16.769   5.050  0.00  0.00     0.026 A 
HETATM   31  I   UNK N   1      20.061  16.117   5.231  0.00  0.00    -0.043 I 
HETATM   32  C   UNK N   1      22.994  15.900   5.633  0.00  0.00     0.040 A 
HETATM   33  C   UNK N   1      24.351  16.159   5.611  0.00  0.00     0.035 A 
HETATM   34  I   UNK N   1      25.654  14.765   6.524  0.00  0.00    -0.042 I 
BRANCH  29  35
HETATM   35  C   UNK N   1      21.534  18.914   3.776  0.00  0.00     0.178 C 
HETATM   36  O   UNK N   1      21.003  19.792   4.428  0.00  0.00    -0.646 OA
BRANCH  35  37
HETATM   37  O   UNK N   1      21.214  18.822   2.475  0.00  0.00    -0.773 OA
HETATM   38  H   UNK N   1      21.724  18.288   1.899  0.00  0.00     0.167 HD
ENDBRANCH  35  37
ENDBRANCH  29  35
ENDBRANCH  24  26
ENDBRANCH  21  22
ENDBRANCH   1  21
TORSDOF 11
ENDMDL
MODEL 4
REMARK VINA RESULT:      -6.5      2.473     10.885
REMARK  11 active torsions:
REMARK  status: ('A' for Active; 'I' for Inactive)
REMARK    1  A    between atoms: O_9  and  C_33 
REMARK    2  A    between atoms: O_10  and  C_34 
REMARK       I    between atoms: N_13  and  C_19 
REMARK    3  A    between atoms: N_13  and  C_21 
REMARK       I    between atoms: N_14  and  C_20 
REMARK    4  A    between atoms: N_14  and  C_22 
REMARK    5  A    between atoms: C_15  and  C_16 
REMARK    6  A    between atoms: C_15  and  C_17 
REMARK    7  A    between atoms: C_16  and  C_18 
REMARK    8  A    between atoms: C_17  and  C_19 
REMARK    9  A    between atoms: C_18  and  C_20 
REMARK   10  A    between atoms: C_27  and  C_33 
REMARK   11  A    between atoms: C_28  and  C_34 
ROOT
HETATM    1  C   UNK N   1      30.680  16.773   4.129  0.00  0.00     0.010 C 
ENDROOT
BRANCH   1   2
HETATM    2  C   UNK N   1      29.633  17.529   4.955  0.00  0.00     0.010 C 
BRANCH   2   3
HETATM    3  C   UNK N   1      28.528  16.640   5.530  0.00  0.00     0.103 C 
BRANCH   3   4
HETATM    4  C   UNK N   1      27.242  16.868   4.821  0.00  0.00     0.222 C 
HETATM    5  O   UNK N   1      27.129  16.537   3.649  0.00  0.00    -0.273 OA
HETATM    6  N   UNK N   1      26.204  17.408   5.499  0.00  0.00    -0.325 N 
HETATM    7  H   UNK N   1      26.324  17.570   6.463  0.00  0.00     0.169 HD
BRANCH   6   8
HETATM    8  C   UNK N   1      24.953  17.760   4.926  0.00  0.00     0.069 A 
HETATM    9  C   UNK N   1      23.852  16.906   5.138  0.00  0.00     0.052 A 
HETATM   10  I   UNK N   1      24.263  15.118   6.266  0.00  0.00    -0.041 I 
HETATM   11  C   UNK N   1      22.564  17.245   4.613  0.00  0.00     0.073 A 
HETATM   12  C   UNK N   1      22.439  18.468   3.886  0.00  0.00     0.026 A 
HETATM   13  I   UNK N   1      20.662  19.241   3.011  0.00  0.00    -0.043 I 
HETATM   14  C   UNK N   1      23.545  19.289   3.704  0.00  0.00     0.040 A 
HETATM   15  C   UNK N   1      24.789  18.960   4.207  0.00  0.00     0.035 A 
HETATM   16  I   UNK N   1      26.322  20.393   3.905  0.00  0.00    -0.042 I 
BRANCH  11  17
HETATM   17  C   UNK N   1      21.371  16.349   4.823  0.00  0.00     0.178 C 
HETATM   18  O   UNK N   1      21.081  15.491   4.007  0.00  0.00    -0.646 OA
BRANCH  17  19
HETATM   19  O   UNK N   1      20.594  16.466   5.911  0.00  0.00    -0.773 OA
HETATM   20  H   UNK N   1      19.752  16.872   5.847  0.00  0.00     0.167 HD
ENDBRANCH  17  19
ENDBRANCH  11  17
ENDBRANCH   6   8
ENDBRANCH   3   4
ENDBRANCH   2   3
ENDBRANCH   1   2
BRANCH   1  21
HETATM   21  C   UNK N   1      32.012  17.509   3.978  0.00  0.00     0.103 C 
BRANCH  21  22
HETATM   22  C   UNK N   1      32.999  17.115   5.027  0.00  0.00     0.222 C 
HETATM   23  O   UNK N   1      33.916  17.875   5.304  0.00  0.00    -0.273 OA
HETATM   24  N   UNK N   1      32.851  15.938   5.681  0.00  0.00    -0.325 N 
HETATM   25  H   UNK N   1      32.078  15.371   5.454  0.00  0.00     0.169 HD
BRANCH  24  26
HETATM   26  C   UNK N   1      33.753  15.481   6.680  0.00  0.00     0.069 A 
HETATM   27  C   UNK N   1      33.631  15.882   8.037  0.00  0.00     0.052 A 
HETATM   28  I   UNK N   1      32.056  17.256   8.528  0.00  0.00    -0.041 I 
HETATM   29  C   UNK N   1      34.573  15.407   9.010  0.00  0.00     0.073 A 
HETATM   30  C   UNK N   1      35.618  14.541   8.564  0.00  0.00     0.026 A 
HETATM   31  I   UNK N   1      37.143  13.682   9.771  0.00  0.00    -0.043 I 
HETATM   32  C   UNK N   1      35.704  14.179   7.224  0.00  0.00     0.040 A 
HETATM   33  C   UNK N   1      34.795  14.639   6.291  0.00  0.00     0.035 A 
HETATM   34  I   UNK N   1      35.018  14.018   4.280  0.00  0.00    -0.042 I 
BRANCH  29  35
HETATM   35  C   UNK N   1      34.478  15.810  10.464  0.00  0.00     0.178 C 
HETATM   36  O   UNK N   1      35.062  16.791  10.885  0.00  0.00    -0.646 OA
BRANCH  35  37
HETATM   37  O   UNK N   1      33.742  15.100  11.334  0.00  0.00    -0.773 OA
HETATM   38  H   UNK N   1      32.961  15.466  11.700  0.00  0.00     0.167 HD
ENDBRANCH  35  37
ENDBRANCH  29  35
ENDBRANCH  24  26
ENDBRANCH  21  22
ENDBRANCH   1  21
TORSDOF 11
ENDMDL
MODEL 5
REMARK VINA RESULT:      -6.5      4.058     11.862
REMARK  11 active torsions:
REMARK  status: ('A' for Active; 'I' for Inactive)
REMARK    1  A    between atoms: O_9  and  C_33 
REMARK    2  A    between atoms: O_10  and  C_34 
REMARK       I    between atoms: N_13  and  C_19 
REMARK    3  A    between atoms: N_13  and  C_21 
REMARK       I    between atoms: N_14  and  C_20 
REMARK    4  A    between atoms: N_14  and  C_22 
REMARK    5  A    between atoms: C_15  and  C_16 
REMARK    6  A    between atoms: C_15  and  C_17 
REMARK    7  A    between atoms: C_16  and  C_18 
REMARK    8  A    between atoms: C_17  and  C_19 
REMARK    9  A    between atoms: C_18  and  C_20 
REMARK   10  A    between atoms: C_27  and  C_33 
REMARK   11  A    between atoms: C_28  and  C_34 
ROOT
HETATM    1  C   UNK N   1      35.826  15.987  10.369  0.00  0.00     0.010 C 
ENDROOT
BRANCH   1   2
HETATM    2  C   UNK N   1      34.635  16.757   9.787  0.00  0.00     0.010 C 
BRANCH   2   3
HETATM    3  C   UNK N   1      33.508  15.864   9.262  0.00  0.00     0.103 C 
BRANCH   3   4
HETATM    4  C   UNK N   1      32.659  16.600   8.290  0.00  0.00     0.222 C 
HETATM    5  O   UNK N   1      33.021  17.690   7.872  0.00  0.00    -0.273 OA
HETATM    6  N   UNK N   1      31.512  16.030   7.856  0.00  0.00    -0.325 N 
HETATM    7  H   UNK N   1      31.317  15.112   8.156  0.00  0.00     0.169 HD
BRANCH   6   8
HETATM    8  C   UNK N   1      30.566  16.654   7.001  0.00  0.00     0.069 A 
HETATM    9  C   UNK N   1      30.518  16.259   5.649  0.00  0.00     0.052 A 
HETATM   10  I   UNK N   1      31.970  14.782   5.057  0.00  0.00    -0.041 I 
HETATM   11  C   UNK N   1      29.552  16.833   4.762  0.00  0.00     0.073 A 
HETATM   12  C   UNK N   1      28.646  17.801   5.296  0.00  0.00     0.026 A 
HETATM   13  I   UNK N   1      27.101  18.806   4.236  0.00  0.00    -0.043 I 
HETATM   14  C   UNK N   1      28.718  18.160   6.636  0.00  0.00     0.040 A 
HETATM   15  C   UNK N   1      29.654  17.608   7.491  0.00  0.00     0.035 A 
HETATM   16  I   UNK N   1      29.533  18.217   9.518  0.00  0.00    -0.042 I 
BRANCH  11  17
HETATM   17  C   UNK N   1      29.480  16.430   3.312  0.00  0.00     0.178 C 
HETATM   18  O   UNK N   1      28.674  15.599   2.933  0.00  0.00    -0.646 OA
BRANCH  17  19
HETATM   19  O   UNK N   1      30.296  16.973   2.396  0.00  0.00    -0.773 OA
HETATM   20  H   UNK N   1      30.169  17.860   2.118  0.00  0.00     0.167 HD
ENDBRANCH  17  19
ENDBRANCH  11  17
ENDBRANCH   6   8
ENDBRANCH   3   4
ENDBRANCH   2   3
ENDBRANCH   1   2
BRANCH   1  21
HETATM   21  C   UNK N   1      35.737  15.736  11.874  0.00  0.00     0.103 C 
BRANCH  21  22
HETATM   22  C   UNK N   1      35.715  14.280  12.206  0.00  0.00     0.222 C 
HETATM   23  O   UNK N   1      34.697  13.634  12.004  0.00  0.00    -0.273 OA
HETATM   24  N   UNK N   1      36.831  13.685  12.694  0.00  0.00    -0.325 N 
HETATM   25  H   UNK N   1      37.641  14.233  12.808  0.00  0.00     0.169 HD
BRANCH  24  26
HETATM   26  C   UNK N   1      36.889  12.311  13.050  0.00  0.00     0.069 A 
HETATM   27  C   UNK N   1      36.472  11.851  14.327  0.00  0.00     0.052 A 
HETATM   28  I   UNK N   1      35.795  13.321  15.738  0.00  0.00    -0.041 I 
HETATM   29  C   UNK N   1      36.561  10.455  14.649  0.00  0.00     0.073 A 
HETATM   30  C   UNK N   1      37.081   9.571  13.655  0.00  0.00     0.026 A 
HETATM   31  I   UNK N   1      37.323   7.466  13.844  0.00  0.00    -0.043 I 
HETATM   32  C   UNK N   1      37.484  10.064  12.419  0.00  0.00     0.040 A 
HETATM   33  C   UNK N   1      37.397  11.409  12.114  0.00  0.00     0.035 A 
HETATM   34  I   UNK N   1      38.032  12.048  10.200  0.00  0.00    -0.042 I 
BRANCH  29  35
HETATM   35  C   UNK N   1      36.128   9.926  15.997  0.00  0.00     0.178 C 
HETATM   36  O   UNK N   1      34.984   9.559  16.192  0.00  0.00    -0.646 OA
BRANCH  35  37
HETATM   37  O   UNK N   1      36.995   9.837  17.019  0.00  0.00    -0.773 OA
HETATM   38  H   UNK N   1      37.902   9.672  16.856  0.00  0.00     0.167 HD
ENDBRANCH  35  37
ENDBRANCH  29  35
ENDBRANCH  24  26
ENDBRANCH  21  22
ENDBRANCH   1  21
TORSDOF 11
ENDMDL
MODEL 6
REMARK VINA RESULT:      -6.4      4.562      9.971
REMARK  11 active torsions:
REMARK  status: ('A' for Active; 'I' for Inactive)
REMARK    1  A    between atoms: O_9  and  C_33 
REMARK    2  A    between atoms: O_10  and  C_34 
REMARK       I    between atoms: N_13  and  C_19 
REMARK    3  A    between atoms: N_13  and  C_21 
REMARK       I    between atoms: N_14  and  C_20 
REMARK    4  A    between atoms: N_14  and  C_22 
REMARK    5  A    between atoms: C_15  and  C_16 
REMARK    6  A    between atoms: C_15  and  C_17 
REMARK    7  A    between atoms: C_16  and  C_18 
REMARK    8  A    between atoms: C_17  and  C_19 
REMARK    9  A    between atoms: C_18  and  C_20 
REMARK   10  A    between atoms: C_27  and  C_33 
REMARK   11  A    between atoms: C_28  and  C_34 
ROOT
HETATM    1  C   UNK N   1      25.796  17.257   3.543  0.00  0.00     0.010 C 
ENDROOT
BRANCH   1   2
HETATM    2  C   UNK N   1      24.719  16.185   3.338  0.00  0.00     0.010 C 
BRANCH   2   3
HETATM    3  C   UNK N   1      23.329  16.590   3.834  0.00  0.00     0.103 C 
BRANCH   3   4
HETATM    4  C   UNK N   1      22.822  15.619   4.839  0.00  0.00     0.222 C 
HETATM    5  O   UNK N   1      22.093  14.705   4.483  0.00  0.00    -0.273 OA
HETATM    6  N   UNK N   1      23.208  15.746   6.129  0.00  0.00    -0.325 N 
HETATM    7  H   UNK N   1      23.867  16.445   6.341  0.00  0.00     0.169 HD
BRANCH   6   8
HETATM    8  C   UNK N   1      22.733  14.947   7.201  0.00  0.00     0.069 A 
HETATM    9  C   UNK N   1      23.522  13.861   7.633  0.00  0.00     0.052 A 
HETATM   10  I   UNK N   1      25.338  13.531   6.523  0.00  0.00    -0.041 I 
HETATM   11  C   UNK N   1      23.099  13.056   8.738  0.00  0.00     0.073 A 
HETATM   12  C   UNK N   1      21.871  13.396   9.383  0.00  0.00     0.026 A 
HETATM   13  I   UNK N   1      21.002  12.403  11.051  0.00  0.00    -0.043 I 
HETATM   14  C   UNK N   1      21.123  14.478   8.935  0.00  0.00     0.040 A 
HETATM   15  C   UNK N   1      21.529  15.253   7.865  0.00  0.00     0.035 A 
HETATM   16  I   UNK N   1      20.297  16.915   7.403  0.00  0.00    -0.042 I 
BRANCH  11  17
HETATM   17  C   UNK N   1      23.923  11.889   9.219  0.00  0.00     0.178 C 
HETATM   18  O   UNK N   1      23.836  10.798   8.681  0.00  0.00    -0.646 OA
BRANCH  17  19
HETATM   19  O   UNK N   1      24.775  12.013  10.247  0.00  0.00    -0.773 OA
HETATM   20  H   UNK N   1      24.470  11.906  11.127  0.00  0.00     0.167 HD
ENDBRANCH  17  19
ENDBRANCH  11  17
ENDBRANCH   6   8
ENDBRANCH   3   4
ENDBRANCH   2   3
ENDBRANCH   1   2
BRANCH   1  21
HETATM   21  C   UNK N   1      25.959  17.714   4.993  0.00  0.00     0.103 C 
BRANCH  21  22
HETATM   22  C   UNK N   1      27.389  17.941   5.358  0.00  0.00     0.222 C 
HETATM   23  O   UNK N   1      27.888  19.042   5.173  0.00  0.00    -0.273 OA
HETATM   24  N   UNK N   1      28.108  16.937   5.916  0.00  0.00    -0.325 N 
HETATM   25  H   UNK N   1      27.659  16.076   6.081  0.00  0.00     0.169 HD
BRANCH  24  26
HETATM   26  C   UNK N   1      29.477  17.065   6.276  0.00  0.00     0.069 A 
HETATM   27  C   UNK N   1      30.520  16.834   5.340  0.00  0.00     0.052 A 
HETATM   28  I   UNK N   1      29.959  16.226   3.359  0.00  0.00    -0.041 I 
HETATM   29  C   UNK N   1      31.890  16.962   5.751  0.00  0.00     0.073 A 
HETATM   30  C   UNK N   1      32.152  17.315   7.110  0.00  0.00     0.026 A 
HETATM   31  I   UNK N   1      34.067  17.580   7.996  0.00  0.00    -0.043 I 
HETATM   32  C   UNK N   1      31.099  17.526   7.995  0.00  0.00     0.040 A 
HETATM   33  C   UNK N   1      29.783  17.402   7.595  0.00  0.00     0.035 A 
HETATM   34  I   UNK N   1      28.262  17.752   9.024  0.00  0.00    -0.042 I 
BRANCH  29  35
HETATM   35  C   UNK N   1      33.029  16.724   4.786  0.00  0.00     0.178 C 
HETATM   36  O   UNK N   1      33.587  15.645   4.725  0.00  0.00    -0.646 OA
BRANCH  35  37
HETATM   37  O   UNK N   1      33.456  17.695   3.963  0.00  0.00    -0.773 OA
HETATM   38  H   UNK N   1      33.306  18.595   4.175  0.00  0.00     0.167 HD
ENDBRANCH  35  37
ENDBRANCH  29  35
ENDBRANCH  24  26
ENDBRANCH  21  22
ENDBRANCH   1  21
TORSDOF 11
ENDMDL
MODEL 7
REMARK VINA RESULT:      -6.4      0.525      9.925
REMARK  11 active torsions:
REMARK  status: ('A' for Active; 'I' for Inactive)
REMARK    1  A    between atoms: O_9  and  C_33 
REMARK    2  A    between atoms: O_10  and  C_34 
REMARK       I    between atoms: N_13  and  C_19 
REMARK    3  A    between atoms: N_13  and  C_21 
REMARK       I    between atoms: N_14  and  C_20 
REMARK    4  A    between atoms: N_14  and  C_22 
REMARK    5  A    between atoms: C_15  and  C_16 
REMARK    6  A    between atoms: C_15  and  C_17 
REMARK    7  A    between atoms: C_16  and  C_18 
REMARK    8  A    between atoms: C_17  and  C_19 
REMARK    9  A    between atoms: C_18  and  C_20 
REMARK   10  A    between atoms: C_27  and  C_33 
REMARK   11  A    between atoms: C_28  and  C_34 
ROOT
HETATM    1  C   UNK N   1      32.313  15.445   3.692  0.00  0.00     0.010 C 
ENDROOT
BRANCH   1   2
HETATM    2  C   UNK N   1      31.981  16.894   3.319  0.00  0.00     0.010 C 
BRANCH   2   3
HETATM    3  C   UNK N   1      31.290  17.685   4.432  0.00  0.00     0.103 C 
BRANCH   3   4
HETATM    4  C   UNK N   1      29.876  17.256   4.588  0.00  0.00     0.222 C 
HETATM    5  O   UNK N   1      29.507  16.756   5.640  0.00  0.00    -0.273 OA
HETATM    6  N   UNK N   1      29.011  17.460   3.569  0.00  0.00    -0.325 N 
HETATM    7  H   UNK N   1      29.342  17.949   2.781  0.00  0.00     0.169 HD
BRANCH   6   8
HETATM    8  C   UNK N   1      27.661  17.023   3.548  0.00  0.00     0.069 A 
HETATM    9  C   UNK N   1      26.658  17.914   3.978  0.00  0.00     0.052 A 
HETATM   10  I   UNK N   1      27.352  19.827   4.684  0.00  0.00    -0.041 I 
HETATM   11  C   UNK N   1      25.280  17.527   3.934  0.00  0.00     0.073 A 
HETATM   12  C   UNK N   1      24.966  16.226   3.436  0.00  0.00     0.026 A 
HETATM   13  I   UNK N   1      23.024  15.384   3.234  0.00  0.00    -0.043 I 
HETATM   14  C   UNK N   1      25.982  15.377   3.013  0.00  0.00     0.040 A 
HETATM   15  C   UNK N   1      27.312  15.749   3.060  0.00  0.00     0.035 A 
HETATM   16  I   UNK N   1      28.696  14.347   2.277  0.00  0.00    -0.042 I 
BRANCH  11  17
HETATM   17  C   UNK N   1      24.188  18.460   4.389  0.00  0.00     0.178 C 
HETATM   18  O   UNK N   1      23.734  19.307   3.638  0.00  0.00    -0.646 OA
BRANCH  17  19
HETATM   19  O   UNK N   1      23.681  18.388   5.629  0.00  0.00    -0.773 OA
HETATM   20  H   UNK N   1      24.237  18.511   6.373  0.00  0.00     0.167 HD
ENDBRANCH  17  19
ENDBRANCH  11  17
ENDBRANCH   6   8
ENDBRANCH   3   4
ENDBRANCH   2   3
ENDBRANCH   1   2
BRANCH   1  21
HETATM   21  C   UNK N   1      33.792  15.082   3.550  0.00  0.00     0.103 C 
BRANCH  21  22
HETATM   22  C   UNK N   1      34.423  14.753   4.863  0.00  0.00     0.222 C 
HETATM   23  O   UNK N   1      35.638  14.633   4.931  0.00  0.00    -0.273 OA
HETATM   24  N   UNK N   1      33.648  14.621   5.967  0.00  0.00    -0.325 N 
HETATM   25  H   UNK N   1      32.677  14.760   5.876  0.00  0.00     0.169 HD
BRANCH  24  26
HETATM   26  C   UNK N   1      34.166  14.293   7.249  0.00  0.00     0.069 A 
HETATM   27  C   UNK N   1      34.508  15.296   8.195  0.00  0.00     0.052 A 
HETATM   28  I   UNK N   1      34.265  17.345   7.602  0.00  0.00    -0.041 I 
HETATM   29  C   UNK N   1      35.041  14.919   9.474  0.00  0.00     0.073 A 
HETATM   30  C   UNK N   1      35.216  13.528   9.744  0.00  0.00     0.026 A 
HETATM   31  I   UNK N   1      35.973  12.678  11.540  0.00  0.00    -0.043 I 
HETATM   32  C   UNK N   1      34.874  12.579   8.785  0.00  0.00     0.040 A 
HETATM   33  C   UNK N   1      34.361  12.946   7.556  0.00  0.00     0.035 A 
HETATM   34  I   UNK N   1      33.869  11.419   6.176  0.00  0.00    -0.042 I 
BRANCH  29  35
HETATM   35  C   UNK N   1      35.417  15.955  10.508  0.00  0.00     0.178 C 
HETATM   36  O   UNK N   1      36.551  16.391  10.580  0.00  0.00    -0.646 OA
BRANCH  35  37
HETATM   37  O   UNK N   1      34.510  16.430  11.377  0.00  0.00    -0.773 OA
HETATM   38  H   UNK N   1      34.067  15.849  11.963  0.00  0.00     0.167 HD
ENDBRANCH  35  37
ENDBRANCH  29  35
ENDBRANCH  24  26
ENDBRANCH  21  22
ENDBRANCH   1  21
TORSDOF 11
ENDMDL
MODEL 8
REMARK VINA RESULT:      -6.3      5.323     10.428
REMARK  11 active torsions:
REMARK  status: ('A' for Active; 'I' for Inactive)
REMARK    1  A    between atoms: O_9  and  C_33 
REMARK    2  A    between atoms: O_10  and  C_34 
REMARK       I    between atoms: N_13  and  C_19 
REMARK    3  A    between atoms: N_13  and  C_21 
REMARK       I    between atoms: N_14  and  C_20 
REMARK    4  A    between atoms: N_14  and  C_22 
REMARK    5  A    between atoms: C_15  and  C_16 
REMARK    6  A    between atoms: C_15  and  C_17 
REMARK    7  A    between atoms: C_16  and  C_18 
REMARK    8  A    between atoms: C_17  and  C_19 
REMARK    9  A    between atoms: C_18  and  C_20 
REMARK   10  A    between atoms: C_27  and  C_33 
REMARK   11  A    between atoms: C_28  and  C_34 
ROOT
HETATM    1  C   UNK N   1      22.063  19.059   3.961  0.00  0.00     0.010 C 
ENDROOT
BRANCH   1   2
HETATM    2  C   UNK N   1      21.600  17.647   3.584  0.00  0.00     0.010 C 
BRANCH   2   3
HETATM    3  C   UNK N   1      20.224  17.270   4.137  0.00  0.00     0.103 C 
BRANCH   3   4
HETATM    4  C   UNK N   1      20.335  16.174   5.134  0.00  0.00     0.222 C 
HETATM    5  O   UNK N   1      19.620  15.188   5.033  0.00  0.00    -0.273 OA
HETATM    6  N   UNK N   1      21.255  16.274   6.121  0.00  0.00    -0.325 N 
HETATM    7  H   UNK N   1      21.864  17.047   6.099  0.00  0.00     0.169 HD
BRANCH   6   8
HETATM    8  C   UNK N   1      21.409  15.348   7.185  0.00  0.00     0.069 A 
HETATM    9  C   UNK N   1      22.401  14.353   7.074  0.00  0.00     0.052 A 
HETATM   10  I   UNK N   1      23.510  14.346   5.228  0.00  0.00    -0.041 I 
HETATM   11  C   UNK N   1      22.617  13.426   8.143  0.00  0.00     0.073 A 
HETATM   12  C   UNK N   1      21.807  13.553   9.313  0.00  0.00     0.026 A 
HETATM   13  I   UNK N   1      21.909  12.343  11.058  0.00  0.00    -0.043 I 
HETATM   14  C   UNK N   1      20.844  14.551   9.390  0.00  0.00     0.040 A 
HETATM   15  C   UNK N   1      20.633  15.444   8.357  0.00  0.00     0.035 A 
HETATM   16  I   UNK N   1      19.186  16.952   8.713  0.00  0.00    -0.042 I 
BRANCH  11  17
HETATM   17  C   UNK N   1      23.669  12.351   8.049  0.00  0.00     0.178 C 
HETATM   18  O   UNK N   1      24.818  12.568   8.391  0.00  0.00    -0.646 OA
BRANCH  17  19
HETATM   19  O   UNK N   1      23.375  11.125   7.589  0.00  0.00    -0.773 OA
HETATM   20  H   UNK N   1      22.970  10.495   8.153  0.00  0.00     0.167 HD
ENDBRANCH  17  19
ENDBRANCH  11  17
ENDBRANCH   6   8
ENDBRANCH   3   4
ENDBRANCH   2   3
ENDBRANCH   1   2
BRANCH   1  21
HETATM   21  C   UNK N   1      23.448  19.429   3.429  0.00  0.00     0.103 C 
BRANCH  21  22
HETATM   22  C   UNK N   1      24.545  18.781   4.209  0.00  0.00     0.222 C 
HETATM   23  O   UNK N   1      24.269  18.130   5.206  0.00  0.00    -0.273 OA
HETATM   24  N   UNK N   1      25.828  18.894   3.786  0.00  0.00    -0.325 N 
HETATM   25  H   UNK N   1      26.004  19.398   2.959  0.00  0.00     0.169 HD
BRANCH  24  26
HETATM   26  C   UNK N   1      26.930  18.324   4.478  0.00  0.00     0.069 A 
HETATM   27  C   UNK N   1      27.417  17.026   4.166  0.00  0.00     0.052 A 
HETATM   28  I   UNK N   1      26.390  15.921   2.638  0.00  0.00    -0.041 I 
HETATM   29  C   UNK N   1      28.525  16.483   4.899  0.00  0.00     0.073 A 
HETATM   30  C   UNK N   1      29.098  17.281   5.936  0.00  0.00     0.026 A 
HETATM   31  I   UNK N   1      30.740  16.745   7.177  0.00  0.00    -0.043 I 
HETATM   32  C   UNK N   1      28.586  18.545   6.212  0.00  0.00     0.040 A 
HETATM   33  C   UNK N   1      27.519  19.063   5.504  0.00  0.00     0.035 A 
HETATM   34  I   UNK N   1      26.827  20.998   6.005  0.00  0.00    -0.042 I 
BRANCH  29  35
HETATM   35  C   UNK N   1      29.072  15.106   4.599  0.00  0.00     0.178 C 
HETATM   36  O   UNK N   1      28.625  14.117   5.149  0.00  0.00    -0.646 OA
BRANCH  35  37
HETATM   37  O   UNK N   1      30.065  14.932   3.712  0.00  0.00    -0.773 OA
HETATM   38  H   UNK N   1      30.681  14.235   3.822  0.00  0.00     0.167 HD
ENDBRANCH  35  37
ENDBRANCH  29  35
ENDBRANCH  24  26
ENDBRANCH  21  22
ENDBRANCH   1  21
TORSDOF 11
ENDMDL
MODEL 9
REMARK VINA RESULT:      -6.2      2.090      3.061
REMARK  11 active torsions:
REMARK  status: ('A' for Active; 'I' for Inactive)
REMARK    1  A    between atoms: O_9  and  C_33 
REMARK    2  A    between atoms: O_10  and  C_34 
REMARK       I    between atoms: N_13  and  C_19 
REMARK    3  A    between atoms: N_13  and  C_21 
REMARK       I    between atoms: N_14  and  C_20 
REMARK    4  A    between atoms: N_14  and  C_22 
REMARK    5  A    between atoms: C_15  and  C_16 
REMARK    6  A    between atoms: C_15  and  C_17 
REMARK    7  A    between atoms: C_16  and  C_18 
REMARK    8  A    between atoms: C_17  and  C_19 
REMARK    9  A    between atoms: C_18  and  C_20 
REMARK   10  A    between atoms: C_27  and  C_33 
REMARK   11  A    between atoms: C_28  and  C_34 
ROOT
HETATM    1  C   UNK N   1      30.239  16.234   3.765  0.00  0.00     0.010 C 
ENDROOT
BRANCH   1   2
HETATM    2  C   UNK N   1      31.758  16.217   3.559  0.00  0.00     0.010 C 
BRANCH   2   3
HETATM    3  C   UNK N   1      32.478  17.452   4.107  0.00  0.00     0.103 C 
BRANCH   3   4
HETATM    4  C   UNK N   1      33.388  17.083   5.223  0.00  0.00     0.222 C 
HETATM    5  O   UNK N   1      34.192  17.901   5.645  0.00  0.00    -0.273 OA
HETATM    6  N   UNK N   1      33.284  15.853   5.777  0.00  0.00    -0.325 N 
HETATM    7  H   UNK N   1      32.558  15.269   5.457  0.00  0.00     0.169 HD
BRANCH   6   8
HETATM    8  C   UNK N   1      34.142  15.340   6.784  0.00  0.00     0.069 A 
HETATM    9  C   UNK N   1      33.888  15.688   8.126  0.00  0.00     0.052 A 
HETATM   10  I   UNK N   1      32.237  17.035   8.443  0.00  0.00    -0.041 I 
HETATM   11  C   UNK N   1      34.704  15.158   9.177  0.00  0.00     0.073 A 
HETATM   12  C   UNK N   1      35.764  14.270   8.817  0.00  0.00     0.026 A 
HETATM   13  I   UNK N   1      37.120  13.318  10.149  0.00  0.00    -0.043 I 
HETATM   14  C   UNK N   1      35.979  13.944   7.484  0.00  0.00     0.040 A 
HETATM   15  C   UNK N   1      35.194  14.459   6.470  0.00  0.00     0.035 A 
HETATM   16  I   UNK N   1      35.626  13.759   4.516  0.00  0.00    -0.042 I 
BRANCH  11  17
HETATM   17  C   UNK N   1      34.455  15.515  10.619  0.00  0.00     0.178 C 
HETATM   18  O   UNK N   1      35.083  16.409  11.160  0.00  0.00    -0.646 OA
BRANCH  17  19
HETATM   19  O   UNK N   1      33.538  14.864  11.351  0.00  0.00    -0.773 OA
HETATM   20  H   UNK N   1      32.697  14.668  10.986  0.00  0.00     0.167 HD
ENDBRANCH  17  19
ENDBRANCH  11  17
ENDBRANCH   6   8
ENDBRANCH   3   4
ENDBRANCH   2   3
ENDBRANCH   1   2
BRANCH   1  21
HETATM   21  C   UNK N   1      29.777  17.059   4.967  0.00  0.00     0.103 C 
BRANCH  21  22
HETATM   22  C   UNK N   1      28.289  17.101   5.086  0.00  0.00     0.222 C 
HETATM   23  O   UNK N   1      27.766  16.856   6.164  0.00  0.00    -0.273 OA
HETATM   24  N   UNK N   1      27.538  17.440   4.010  0.00  0.00    -0.325 N 
HETATM   25  H   UNK N   1      28.000  17.664   3.170  0.00  0.00     0.169 HD
BRANCH  24  26
HETATM   26  C   UNK N   1      26.118  17.487   4.034  0.00  0.00     0.069 A 
HETATM   27  C   UNK N   1      25.327  16.365   3.669  0.00  0.00     0.052 A 
HETATM   28  I   UNK N   1      26.354  14.594   3.022  0.00  0.00    -0.041 I 
HETATM   29  C   UNK N   1      23.895  16.462   3.696  0.00  0.00     0.073 A 
HETATM   30  C   UNK N   1      23.314  17.707   4.087  0.00  0.00     0.026 A 
HETATM   31  I   UNK N   1      21.237  18.141   4.224  0.00  0.00    -0.043 I 
HETATM   32  C   UNK N   1      24.127  18.783   4.430  0.00  0.00     0.040 A 
HETATM   33  C   UNK N   1      25.505  18.685   4.403  0.00  0.00     0.035 A 
HETATM   34  I   UNK N   1      26.643  20.382   4.951  0.00  0.00    -0.042 I 
BRANCH  29  35
HETATM   35  C   UNK N   1      23.017  15.292   3.315  0.00  0.00     0.178 C 
HETATM   36  O   UNK N   1      22.651  14.482   4.146  0.00  0.00    -0.646 OA
BRANCH  35  37
HETATM   37  O   UNK N   1      22.609  15.113   2.048  0.00  0.00    -0.773 OA
HETATM   38  H   UNK N   1      22.507  14.248   1.702  0.00  0.00     0.167 HD
ENDBRANCH  35  37
ENDBRANCH  29  35
ENDBRANCH  24  26
ENDBRANCH  21  22
ENDBRANCH   1  21
TORSDOF 11
ENDMDL
