REMARK  16 active torsions:
REMARK  status: ('A' for Active; 'I' for Inactive)
REMARK    1  A    between atoms: C_2  and  C_3 
REMARK    2  A    between atoms: C_3  and  C_4 
REMARK    3  A    between atoms: C_4  and  C_5 
REMARK    4  A    between atoms: C_5  and  C_6 
REMARK    5  A    between atoms: C_6  and  C_7 
REMARK    6  A    between atoms: C_7  and  C_8 
REMARK    7  A    between atoms: C_8  and  C_9 
REMARK    8  A    between atoms: C_10  and  C_11 
REMARK    9  A    between atoms: C_11  and  C_12 
REMARK   10  A    between atoms: C_12  and  C_13 
REMARK   11  A    between atoms: C_13  and  C_14 
REMARK   12  A    between atoms: C_14  and  C_15 
REMARK   13  A    between atoms: C_15  and  C_16 
REMARK   14  A    between atoms: C_16  and  C_17 
REMARK   15  A    between atoms: C_17  and  C_18 
REMARK   16  A    between atoms: C_18  and  O_19 
ROOT
HETATM    1  C   UNK N   1       3.095   2.970   0.000  0.00  0.00     0.027 C 
ENDROOT
BRANCH   1   2
HETATM    2  C   UNK N   1       2.006   1.956   0.000  0.00  0.00    -0.031 C 
HETATM    3  C   UNK N   1       0.749   2.371   0.000  0.00  0.00    -0.031 C 
BRANCH   3   4
HETATM    4  C   UNK N   1      -0.390   1.415  -0.000  0.00  0.00     0.027 C 
BRANCH   4   5
HETATM    5  C   UNK N   1      -1.637   2.264   0.000  0.00  0.00     0.004 C 
BRANCH   5   6
HETATM    6  C   UNK N   1      -2.907   1.448  -0.000  0.00  0.00     0.000 C 
BRANCH   6   7
HETATM    7  C   UNK N   1      -4.035   2.454  -0.000  0.00  0.00     0.000 C 
BRANCH   7   8
HETATM    8  C   UNK N   1      -5.393   1.794  -0.000  0.00  0.00     0.000 C 
BRANCH   8   9
HETATM    9  C   UNK N   1      -6.424   2.903   0.000  0.00  0.00    -0.000 C 
BRANCH   9  10
HETATM   10  C   UNK N   1      -7.822   2.330   0.000  0.00  0.00    -0.005 C 
HETATM   11  C   UNK N   1      -8.817   3.472   0.000  0.00  0.00     0.005 C 
ENDBRANCH   9  10
ENDBRANCH   8   9
ENDBRANCH   7   8
ENDBRANCH   6   7
ENDBRANCH   5   6
ENDBRANCH   4   5
ENDBRANCH   3   4
ENDBRANCH   1   2
BRANCH   1  12
HETATM   12  C   UNK N   1       4.421   2.255  -0.000  0.00  0.00     0.004 C 
BRANCH  12  13
HETATM   13  C   UNK N   1       5.564   3.246  -0.000  0.00  0.00     0.000 C 
BRANCH  13  14
HETATM   14  C   UNK N   1       6.830   2.427  -0.000  0.00  0.00     0.000 C 
BRANCH  14  15
HETATM   15  C   UNK N   1       8.074   3.282   0.000  0.00  0.00     0.001 C 
BRANCH  15  16
HETATM   16  C   UNK N   1       9.231   2.310   0.000  0.00  0.00     0.010 C 
BRANCH  16  17
HETATM   17  C   UNK N   1      10.574   3.013   0.000  0.00  0.00     0.110 C 
BRANCH  17  18
HETATM   18  C   UNK N   1      11.705   2.023   0.000  0.00  0.00     0.139 C 
HETATM   19  O   UNK N   1      11.487   0.818   0.000  0.00  0.00    -0.650 OA
BRANCH  18  20
HETATM   20  O   UNK N   1      12.974   2.465  -0.000  0.00  0.00    -0.776 OA
HETATM   21  H   UNK N   1      13.683   1.853  -0.000  0.00  0.00     0.167 HD
ENDBRANCH  18  20
ENDBRANCH  17  18
ENDBRANCH  16  17
ENDBRANCH  15  16
ENDBRANCH  14  15
ENDBRANCH  13  14
ENDBRANCH  12  13
ENDBRANCH   1  12
TORSDOF 16
