REMARK  8 active torsions:
REMARK  status: ('A' for Active; 'I' for Inactive)
REMARK    1  A    between atoms: O_3  and  C_19 
REMARK    2  A    between atoms: O_3  and  C_24 
REMARK    3  A    between atoms: O_4  and  C_25 
REMARK    4  A    between atoms: N_6  and  C_14 
REMARK    5  A    between atoms: C_9  and  C_15 
REMARK    6  A    between atoms: C_14  and  C_16 
REMARK    7  A    between atoms: C_16  and  C_19 
REMARK    8  A    between atoms: C_29  and  C_30 
ROOT
HETATM    1  N   UNK N   1       4.818  -0.507  -0.190  0.00  0.00     0.088 N 
HETATM    2  C   UNK N   1       4.070  -3.221   0.303  0.00  0.00     0.042 C 
HETATM    3  C   UNK N   1       5.532  -2.827   0.272  0.00  0.00     0.041 C 
HETATM    4  C   UNK N   1       3.285  -2.348  -0.668  0.00  0.00     0.041 C 
HETATM    5  C   UNK N   1       5.584  -1.372   0.722  0.00  0.00     0.273 C 
HETATM    6  C   UNK N   1       3.413  -0.907  -0.195  0.00  0.00     0.273 C 
ENDROOT
BRANCH   1   7
HETATM    7  C   UNK N   1       4.868   0.846   0.351  0.00  0.00     0.274 C 
BRANCH   7   8
HETATM    8  C   UNK N   1       6.053   1.625  -0.211  0.00  0.00     0.057 C 
BRANCH   8   9
HETATM    9  C   UNK N   1       7.318   0.780  -0.127  0.00  0.00     0.177 C 
BRANCH   9  10
HETATM   10  O   UNK N   1       8.538   1.426  -0.114  0.00  0.00    -0.348 OA
BRANCH  10  11
HETATM   11  C   UNK N   1       8.855   2.744  -0.072  0.00  0.00     0.102 A 
HETATM   12  C   UNK N   1      10.213   3.081  -0.039  0.00  0.00     0.102 A 
HETATM   13  C   UNK N   1      10.594   4.431  -0.003  0.00  0.00     0.054 A 
HETATM   14  C   UNK N   1       9.630   5.446   0.002  0.00  0.00     0.012 A 
HETATM   15  C   UNK N   1       8.272   5.103  -0.023  0.00  0.00     0.018 A 
HETATM   16  C   UNK N   1       7.888   3.761  -0.059  0.00  0.00     0.040 A 
BRANCH  12  17
HETATM   17  O   UNK N   1      11.133   2.086  -0.043  0.00  0.00    -0.353 OA
HETATM   18  C   UNK N   1      12.491   2.306  -0.006  0.00  0.00     0.210 C 
ENDBRANCH  12  17
BRANCH  14  19
HETATM   19  C   UNK N   1      10.050   6.863   0.026  0.00  0.00     0.155 C 
HETATM   20  O   UNK N   1      11.237   7.149   0.040  0.00  0.00    -0.293 OA
HETATM   21  C   UNK N   1       9.038   7.962   0.026  0.00  0.00     0.096 C 
ENDBRANCH  14  19
ENDBRANCH  10  11
ENDBRANCH   9  10
ENDBRANCH   8   9
ENDBRANCH   7   8
ENDBRANCH   1   7
BRANCH   2  22
HETATM   22  C   UNK N   1       3.798  -4.669   0.090  0.00  0.00     0.050 A 
HETATM   23  N   UNK N   1       4.710  -5.655  -0.104  0.00  0.00    -0.264 N 
HETATM   24  O   UNK N   1       4.045  -6.777  -0.214  0.00  0.00    -0.237 OA
ATOM     25  HN  UNK N   1       5.722  -5.543  -0.155  1.00  0.00     0.194 HD
HETATM   26  C   UNK N   1       2.753  -6.557  -0.100  0.00  0.00     0.114 A 
HETATM   27  C   UNK N   1       2.555  -5.228   0.095  0.00  0.00     0.025 A 
HETATM   28  C   UNK N   1       1.693  -7.455  -0.155  0.00  0.00     0.082 A 
HETATM   29  C   UNK N   1       1.290  -4.673   0.253  0.00  0.00     0.019 A 
HETATM   30  C   UNK N   1       0.192  -5.543   0.198  0.00  0.00     0.043 A 
HETATM   31  C   UNK N   1       0.389  -6.929  -0.004  0.00  0.00     0.119 A 
HETATM   32  F   UNK N   1      -0.683  -7.752  -0.053  0.00  0.00    -0.206 F 
ENDBRANCH   2  22
TORSDOF 8
