MODEL 1
REMARK VINA RESULT:      -6.8      0.000      0.000
REMARK  0 active torsions:
REMARK  status: ('A' for Active; 'I' for Inactive)
ROOT
HETATM    1  C   UNK N   1      35.126  13.226  18.144  0.00  0.00     0.049 C 
HETATM    2  C   UNK N   1      35.730  13.796  16.903  0.00  0.00    -0.043 A 
HETATM    3  C   UNK N   1      36.540  14.925  16.999  0.00  0.00     0.090 A 
HETATM    4  C   UNK N   1      37.110  15.466  15.842  0.00  0.00     0.288 A 
HETATM    5  O   UNK N   1      37.818  16.450  15.920  0.00  0.00    -0.260 OA
HETATM    6  O   UNK N   1      36.883  14.911  14.656  0.00  0.00    -0.274 OA
HETATM    7  C   UNK N   1      36.119  13.834  14.504  0.00  0.00     0.099 A 
HETATM    8  C   UNK N   1      35.502  13.225  15.642  0.00  0.00     0.005 A 
HETATM    9  C   UNK N   1      34.690  12.079  15.479  0.00  0.00     0.029 A 
HETATM   10  C   UNK N   1      34.521  11.583  14.188  0.00  0.00     0.002 A 
HETATM   11  C   UNK N   1      33.801  10.502  13.727  0.00  0.00     0.046 A 
HETATM   12  C   UNK N   1      34.019  10.517  12.350  0.00  0.00     0.050 A 
HETATM   13  O   UNK N   1      34.803  11.521  12.016  0.00  0.00    -0.314 OA
HETATM   14  C   UNK N   1      35.114  12.171  13.105  0.00  0.00     0.094 A 
HETATM   15  C   UNK N   1      35.918  13.295  13.221  0.00  0.00     0.008 A 
HETATM   16  C   UNK N   1      36.547  13.907  12.014  0.00  0.00     0.054 C 
HETATM   17  C   UNK N   1      33.459   9.550  11.372  0.00  0.00     0.077 C 
ENDROOT
TORSDOF 0
ENDMDL
MODEL 2
REMARK VINA RESULT:      -6.5     11.244     12.682
REMARK  0 active torsions:
REMARK  status: ('A' for Active; 'I' for Inactive)
ROOT
HETATM    1  C   UNK N   1      26.991  20.183   3.522  0.00  0.00     0.049 C 
HETATM    2  C   UNK N   1      27.108  20.161   5.010  0.00  0.00    -0.043 A 
HETATM    3  C   UNK N   1      26.370  21.071   5.763  0.00  0.00     0.090 A 
HETATM    4  C   UNK N   1      26.474  21.057   7.158  0.00  0.00     0.288 A 
HETATM    5  O   UNK N   1      25.832  21.849   7.820  0.00  0.00    -0.260 OA
HETATM    6  O   UNK N   1      27.270  20.184   7.766  0.00  0.00    -0.274 OA
HETATM    7  C   UNK N   1      27.997  19.294   7.100  0.00  0.00     0.099 A 
HETATM    8  C   UNK N   1      27.943  19.247   5.671  0.00  0.00     0.005 A 
HETATM    9  C   UNK N   1      28.717  18.299   4.964  0.00  0.00     0.029 A 
HETATM   10  C   UNK N   1      29.517  17.432   5.705  0.00  0.00     0.002 A 
HETATM   11  C   UNK N   1      30.364  16.423   5.301  0.00  0.00     0.046 A 
HETATM   12  C   UNK N   1      30.878  15.920   6.496  0.00  0.00     0.050 A 
HETATM   13  O   UNK N   1      30.382  16.573   7.526  0.00  0.00    -0.314 OA
HETATM   14  C   UNK N   1      29.563  17.483   7.071  0.00  0.00     0.094 A 
HETATM   15  C   UNK N   1      28.820  18.397   7.804  0.00  0.00     0.008 A 
HETATM   16  C   UNK N   1      28.899  18.420   9.293  0.00  0.00     0.054 C 
HETATM   17  C   UNK N   1      31.852  14.805   6.620  0.00  0.00     0.077 C 
ENDROOT
TORSDOF 0
ENDMDL
MODEL 3
REMARK VINA RESULT:      -6.5      2.268      4.082
REMARK  0 active torsions:
REMARK  status: ('A' for Active; 'I' for Inactive)
ROOT
HETATM    1  C   UNK N   1      37.363  15.310  15.752  0.00  0.00     0.049 C 
HETATM    2  C   UNK N   1      36.514  14.461  14.865  0.00  0.00    -0.043 A 
HETATM    3  C   UNK N   1      36.295  14.862  13.549  0.00  0.00     0.090 A 
HETATM    4  C   UNK N   1      35.501  14.072  12.710  0.00  0.00     0.288 A 
HETATM    5  O   UNK N   1      35.307  14.417  11.562  0.00  0.00    -0.260 OA
HETATM    6  O   UNK N   1      34.957  12.947  13.161  0.00  0.00    -0.274 OA
HETATM    7  C   UNK N   1      35.132  12.516  14.405  0.00  0.00     0.099 A 
HETATM    8  C   UNK N   1      35.931  13.269  15.321  0.00  0.00     0.005 A 
HETATM    9  C   UNK N   1      36.115  12.809  16.645  0.00  0.00     0.029 A 
HETATM   10  C   UNK N   1      35.497  11.614  17.009  0.00  0.00     0.002 A 
HETATM   11  C   UNK N   1      35.496  10.931  18.205  0.00  0.00     0.046 A 
HETATM   12  C   UNK N   1      34.703   9.812  17.948  0.00  0.00     0.050 A 
HETATM   13  O   UNK N   1      34.268   9.826  16.706  0.00  0.00    -0.314 OA
HETATM   14  C   UNK N   1      34.734  10.899  16.127  0.00  0.00     0.094 A 
HETATM   15  C   UNK N   1      34.527  11.315  14.820  0.00  0.00     0.008 A 
HETATM   16  C   UNK N   1      33.688  10.506  13.889  0.00  0.00     0.054 C 
HETATM   17  C   UNK N   1      34.378   8.737  18.922  0.00  0.00     0.077 C 
ENDROOT
TORSDOF 0
ENDMDL
MODEL 4
REMARK VINA RESULT:      -6.4     24.830     26.724
REMARK  0 active torsions:
REMARK  status: ('A' for Active; 'I' for Inactive)
ROOT
HETATM    1  C   UNK N   1      26.278  28.130  -5.165  0.00  0.00     0.049 C 
HETATM    2  C   UNK N   1      26.221  26.637  -5.169  0.00  0.00    -0.043 A 
HETATM    3  C   UNK N   1      26.376  25.949  -3.967  0.00  0.00     0.090 A 
HETATM    4  C   UNK N   1      26.324  24.551  -3.962  0.00  0.00     0.288 A 
HETATM    5  O   UNK N   1      26.458  23.946  -2.917  0.00  0.00    -0.260 OA
HETATM    6  O   UNK N   1      26.128  23.879  -5.091  0.00  0.00    -0.274 OA
HETATM    7  C   UNK N   1      25.975  24.482  -6.265  0.00  0.00     0.099 A 
HETATM    8  C   UNK N   1      26.016  25.909  -6.351  0.00  0.00     0.005 A 
HETATM    9  C   UNK N   1      25.853  26.549  -7.601  0.00  0.00     0.029 A 
HETATM   10  C   UNK N   1      25.654  25.744  -8.720  0.00  0.00     0.002 A 
HETATM   11  C   UNK N   1      25.468  26.076 -10.045  0.00  0.00     0.046 A 
HETATM   12  C   UNK N   1      25.325  24.843 -10.681  0.00  0.00     0.050 A 
HETATM   13  O   UNK N   1      25.419  23.859  -9.812  0.00  0.00    -0.314 OA
HETATM   14  C   UNK N   1      25.616  24.380  -8.631  0.00  0.00     0.094 A 
HETATM   15  C   UNK N   1      25.772  23.712  -7.425  0.00  0.00     0.008 A 
HETATM   16  C   UNK N   1      25.723  22.222  -7.370  0.00  0.00     0.054 C 
HETATM   17  C   UNK N   1      25.099  24.637 -12.135  0.00  0.00     0.077 C 
ENDROOT
TORSDOF 0
ENDMDL
MODEL 5
REMARK VINA RESULT:      -6.4      9.593     11.011
REMARK  0 active torsions:
REMARK  status: ('A' for Active; 'I' for Inactive)
ROOT
HETATM    1  C   UNK N   1      30.352  17.431   9.089  0.00  0.00     0.049 C 
HETATM    2  C   UNK N   1      31.264  17.451   7.906  0.00  0.00    -0.043 A 
HETATM    3  C   UNK N   1      32.598  17.812   8.084  0.00  0.00     0.090 A 
HETATM    4  C   UNK N   1      33.459  17.833   6.981  0.00  0.00     0.288 A 
HETATM    5  O   UNK N   1      34.623  18.147   7.130  0.00  0.00    -0.260 OA
HETATM    6  O   UNK N   1      33.013  17.513   5.771  0.00  0.00    -0.274 OA
HETATM    7  C   UNK N   1      31.752  17.161   5.543  0.00  0.00     0.099 A 
HETATM    8  C   UNK N   1      30.813  17.116   6.620  0.00  0.00     0.005 A 
HETATM    9  C   UNK N   1      29.471  16.741   6.376  0.00  0.00     0.029 A 
HETATM   10  C   UNK N   1      29.115  16.425   5.067  0.00  0.00     0.002 A 
HETATM   11  C   UNK N   1      27.906  16.034   4.534  0.00  0.00     0.046 A 
HETATM   12  C   UNK N   1      28.179  15.865   3.177  0.00  0.00     0.050 A 
HETATM   13  O   UNK N   1      29.442  16.133   2.920  0.00  0.00    -0.314 OA
HETATM   14  C   UNK N   1      30.019  16.471   4.042  0.00  0.00     0.094 A 
HETATM   15  C   UNK N   1      31.343  16.833   4.238  0.00  0.00     0.008 A 
HETATM   16  C   UNK N   1      32.298  16.870   3.092  0.00  0.00     0.054 C 
HETATM   17  C   UNK N   1      27.200  15.443   2.141  0.00  0.00     0.077 C 
ENDROOT
TORSDOF 0
ENDMDL
MODEL 6
REMARK VINA RESULT:      -6.4     21.444     23.464
REMARK  0 active torsions:
REMARK  status: ('A' for Active; 'I' for Inactive)
ROOT
HETATM    1  C   UNK N   1      31.232  20.553  -5.325  0.00  0.00     0.049 C 
HETATM    2  C   UNK N   1      30.495  21.589  -4.542  0.00  0.00    -0.043 A 
HETATM    3  C   UNK N   1      30.878  21.845  -3.226  0.00  0.00     0.090 A 
HETATM    4  C   UNK N   1      30.193  22.814  -2.485  0.00  0.00     0.288 A 
HETATM    5  O   UNK N   1      30.523  23.040  -1.338  0.00  0.00    -0.260 OA
HETATM    6  O   UNK N   1      29.185  23.489  -3.026  0.00  0.00    -0.274 OA
HETATM    7  C   UNK N   1      28.777  23.287  -4.275  0.00  0.00     0.099 A 
HETATM    8  C   UNK N   1      29.428  22.313  -5.095  0.00  0.00     0.005 A 
HETATM    9  C   UNK N   1      28.993  22.100  -6.423  0.00  0.00     0.029 A 
HETATM   10  C   UNK N   1      27.925  22.865  -6.886  0.00  0.00     0.002 A 
HETATM   11  C   UNK N   1      27.294  22.880  -8.111  0.00  0.00     0.046 A 
HETATM   12  C   UNK N   1      26.305  23.853  -7.965  0.00  0.00     0.050 A 
HETATM   13  O   UNK N   1      26.342  24.375  -6.757  0.00  0.00    -0.314 OA
HETATM   14  C   UNK N   1      27.307  23.795  -6.096  0.00  0.00     0.094 A 
HETATM   15  C   UNK N   1      27.703  24.036  -4.788  0.00  0.00     0.008 A 
HETATM   16  C   UNK N   1      27.003  25.059  -3.959  0.00  0.00     0.054 C 
HETATM   17  C   UNK N   1      25.332  24.264  -9.009  0.00  0.00     0.077 C 
ENDROOT
TORSDOF 0
ENDMDL
MODEL 7
REMARK VINA RESULT:      -6.3     11.369     12.893
REMARK  0 active torsions:
REMARK  status: ('A' for Active; 'I' for Inactive)
ROOT
HETATM    1  C   UNK N   1      26.298  21.306   7.555  0.00  0.00     0.049 C 
HETATM    2  C   UNK N   1      26.774  20.536   6.367  0.00  0.00    -0.043 A 
HETATM    3  C   UNK N   1      26.233  20.817   5.115  0.00  0.00     0.090 A 
HETATM    4  C   UNK N   1      26.673  20.100   3.997  0.00  0.00     0.288 A 
HETATM    5  O   UNK N   1      26.204  20.341   2.902  0.00  0.00    -0.260 OA
HETATM    6  O   UNK N   1      27.600  19.157   4.123  0.00  0.00    -0.274 OA
HETATM    7  C   UNK N   1      28.151  18.847   5.291  0.00  0.00     0.099 A 
HETATM    8  C   UNK N   1      27.752  19.536   6.479  0.00  0.00     0.005 A 
HETATM    9  C   UNK N   1      28.339  19.205   7.722  0.00  0.00     0.029 A 
HETATM   10  C   UNK N   1      29.303  18.198   7.736  0.00  0.00     0.002 A 
HETATM   11  C   UNK N   1      30.035  17.669   8.777  0.00  0.00     0.046 A 
HETATM   12  C   UNK N   1      30.828  16.698   8.166  0.00  0.00     0.050 A 
HETATM   13  O   UNK N   1      30.591  16.651   6.872  0.00  0.00    -0.314 OA
HETATM   14  C   UNK N   1      29.679  17.543   6.596  0.00  0.00     0.094 A 
HETATM   15  C   UNK N   1      29.128  17.837   5.357  0.00  0.00     0.008 A 
HETATM   16  C   UNK N   1      29.566  17.099   4.137  0.00  0.00     0.054 C 
HETATM   17  C   UNK N   1      31.812  15.823   8.854  0.00  0.00     0.077 C 
ENDROOT
TORSDOF 0
ENDMDL
MODEL 8
REMARK VINA RESULT:      -6.2      2.603      5.077
REMARK  0 active torsions:
REMARK  status: ('A' for Active; 'I' for Inactive)
ROOT
HETATM    1  C   UNK N   1      34.558   9.650  12.913  0.00  0.00     0.049 C 
HETATM    2  C   UNK N   1      34.761  10.971  13.579  0.00  0.00    -0.043 A 
HETATM    3  C   UNK N   1      34.852  12.119  12.795  0.00  0.00     0.090 A 
HETATM    4  C   UNK N   1      35.042  13.361  13.410  0.00  0.00     0.288 A 
HETATM    5  O   UNK N   1      35.122  14.366  12.731  0.00  0.00    -0.260 OA
HETATM    6  O   UNK N   1      35.136  13.451  14.732  0.00  0.00    -0.274 OA
HETATM    7  C   UNK N   1      35.056  12.391  15.529  0.00  0.00     0.099 A 
HETATM    8  C   UNK N   1      34.862  11.088  14.974  0.00  0.00     0.005 A 
HETATM    9  C   UNK N   1      34.778   9.960  15.823  0.00  0.00     0.029 A 
HETATM   10  C   UNK N   1      34.890  10.173  17.195  0.00  0.00     0.002 A 
HETATM   11  C   UNK N   1      34.847   9.286  18.249  0.00  0.00     0.046 A 
HETATM   12  C   UNK N   1      35.016  10.095  19.373  0.00  0.00     0.050 A 
HETATM   13  O   UNK N   1      35.148  11.356  19.021  0.00  0.00    -0.314 OA
HETATM   14  C   UNK N   1      35.075  11.423  17.719  0.00  0.00     0.094 A 
HETATM   15  C   UNK N   1      35.163  12.555  16.922  0.00  0.00     0.008 A 
HETATM   16  C   UNK N   1      35.366  13.900  17.533  0.00  0.00     0.054 C 
HETATM   17  C   UNK N   1      35.047   9.626  20.782  0.00  0.00     0.077 C 
ENDROOT
TORSDOF 0
ENDMDL
MODEL 9
REMARK VINA RESULT:      -6.2     13.876     16.048
REMARK  0 active torsions:
REMARK  status: ('A' for Active; 'I' for Inactive)
ROOT
HETATM    1  C   UNK N   1      23.938  12.037   8.666  0.00  0.00     0.049 C 
HETATM    2  C   UNK N   1      22.688  12.680   9.171  0.00  0.00    -0.043 A 
HETATM    3  C   UNK N   1      22.015  12.103  10.246  0.00  0.00     0.090 A 
HETATM    4  C   UNK N   1      20.843  12.697  10.726  0.00  0.00     0.288 A 
HETATM    5  O   UNK N   1      20.253  12.199  11.663  0.00  0.00    -0.260 OA
HETATM    6  O   UNK N   1      20.370  13.804  10.163  0.00  0.00    -0.274 OA
HETATM    7  C   UNK N   1      20.969  14.397   9.136  0.00  0.00     0.099 A 
HETATM    8  C   UNK N   1      22.172  13.848   8.591  0.00  0.00     0.005 A 
HETATM    9  C   UNK N   1      22.808  14.480   7.498  0.00  0.00     0.029 A 
HETATM   10  C   UNK N   1      22.223  15.637   6.988  0.00  0.00     0.002 A 
HETATM   11  C   UNK N   1      22.607  16.456   5.948  0.00  0.00     0.046 A 
HETATM   12  C   UNK N   1      21.624  17.445   5.922  0.00  0.00     0.050 A 
HETATM   13  O   UNK N   1      20.730  17.236   6.865  0.00  0.00    -0.314 OA
HETATM   14  C   UNK N   1      21.072  16.157   7.515  0.00  0.00     0.094 A 
HETATM   15  C   UNK N   1      20.417  15.568   8.586  0.00  0.00     0.008 A 
HETATM   16  C   UNK N   1      19.164  16.166   9.131  0.00  0.00     0.054 C 
HETATM   17  C   UNK N   1      21.568  18.587   4.974  0.00  0.00     0.077 C 
ENDROOT
TORSDOF 0
ENDMDL
