MODEL 1
REMARK VINA RESULT:     -10.2      0.000      0.000
REMARK  6 active torsions:
REMARK  status: ('A' for Active; 'I' for Inactive)
REMARK    1  A    between atoms: N_5  and  C_16 
REMARK    2  A    between atoms: N_6  and  C_17 
REMARK       I    between atoms: N_6  and  C_26 
REMARK    3  A    between atoms: N_7  and  C_23 
REMARK       I    between atoms: N_7  and  C_34 
REMARK    4  A    between atoms: C_18  and  C_30 
REMARK    5  A    between atoms: C_22  and  C_26 
REMARK    6  A    between atoms: C_36  and  C_37 
ROOT
HETATM    1  C   UNK N   1      35.128  14.857   9.257  0.00  0.00     0.034 A 
HETATM    2  C   UNK N   1      35.971  14.143  11.407  0.00  0.00     0.056 A 
HETATM    3  C   UNK N   1      36.961  13.380  10.759  0.00  0.00    -0.035 A 
HETATM    4  C   UNK N   1      35.091  14.863  10.633  0.00  0.00     0.047 A 
HETATM    5  C   UNK N   1      36.077  14.075   8.594  0.00  0.00     0.018 A 
HETATM    6  C   UNK N   1      37.003  13.340   9.351  0.00  0.00     0.010 A 
HETATM    7  C   UNK N   1      37.965  12.607  11.539  0.00  0.00     0.050 C 
ENDROOT
BRANCH   1   8
HETATM    8  C   UNK N   1      34.192  15.744   8.585  0.00  0.00     0.256 C 
HETATM    9  O   UNK N   1      34.569  16.810   8.120  0.00  0.00    -0.267 OA
HETATM   10  N   UNK N   1      32.889  15.348   8.512  0.00  0.00    -0.323 N 
HETATM   11  H   UNK N   1      32.670  14.450   8.850  0.00  0.00     0.169 HD
BRANCH  10  12
HETATM   12  C   UNK N   1      31.832  16.114   7.991  0.00  0.00     0.037 A 
HETATM   13  C   UNK N   1      31.498  16.025   6.656  0.00  0.00     0.059 A 
HETATM   14  C   UNK N   1      30.380  16.660   6.145  0.00  0.00     0.042 A 
HETATM   15  C   UNK N   1      29.556  17.405   7.015  0.00  0.00     0.046 A 
HETATM   16  C   UNK N   1      29.912  17.526   8.380  0.00  0.00     0.052 A 
HETATM   17  C   UNK N   1      31.058  16.882   8.852  0.00  0.00     0.046 A 
BRANCH  14  18
HETATM   18  N   UNK N   1      30.052  16.417   4.772  0.00  0.00    -0.317 N 
HETATM   19  C   UNK N   1      28.992  15.693   4.360  0.00  0.00     0.122 A 
HETATM   20  C   UNK N   1      28.962  15.763   2.997  0.00  0.00     0.022 A 
HETATM   21  N   UNK N   1      29.983  16.521   2.553  0.00  0.00    -0.354 N 
HETATM   22  C   UNK N   1      27.940  15.122   2.126  0.00  0.00     0.069 C 
HETATM   23  C   UNK N   1      30.642  16.913   3.667  0.00  0.00     0.188 A 
ATOM     24  HN  UNK N   1      30.210  16.750   1.586  1.00  0.00     0.166 HD
ENDBRANCH  14  18
BRANCH  16  25
HETATM   25  C   UNK N   1      29.048  18.239   9.378  0.00  0.00     0.417 C 
HETATM   26  F   UNK N   1      28.108  19.036   8.752  0.00  0.00    -0.166 F 
HETATM   27  F   UNK N   1      28.388  17.295  10.148  0.00  0.00    -0.166 F 
HETATM   28  F   UNK N   1      29.830  19.020  10.208  0.00  0.00    -0.166 F 
ENDBRANCH  16  25
ENDBRANCH  10  12
ENDBRANCH   1   8
BRANCH   2  29
HETATM   29  N   UNK N   1      35.839  14.172  12.826  0.00  0.00    -0.191 N 
HETATM   30  C   UNK N   1      35.236  13.124  13.595  0.00  0.00     0.683 A 
HETATM   31  N   UNK N   1      35.390  13.113  14.941  0.00  0.00    -0.191 N 
HETATM   32  N   UNK N   1      34.555  12.101  12.996  0.00  0.00    -0.202 N 
HETATM   33  C   UNK N   1      34.894  12.100  15.704  0.00  0.00     0.062 A 
ATOM     34  HN  UNK N   1      35.888  13.880  15.393  1.00  0.00     0.184 HD
HETATM   35  C   UNK N   1      34.201  11.049  15.092  0.00  0.00     0.048 A 
HETATM   36  C   UNK N   1      34.034  11.076  13.715  0.00  0.00     0.108 A 
ATOM     37  HN  UNK N   1      34.438  12.107  11.982  1.00  0.00     0.183 HD
HETATM   38  H   UNK N   1      36.182  14.960  13.307  0.00  0.00     0.184 HD
BRANCH  33  39
HETATM   39  C   UNK N   1      35.123  12.106  17.157  0.00  0.00     0.007 A 
HETATM   40  C   UNK N   1      35.427  10.927  17.852  0.00  0.00     0.016 A 
HETATM   41  C   UNK N   1      35.659  10.971  19.225  0.00  0.00     0.018 A 
HETATM   42  C   UNK N   1      35.582  12.194  19.894  0.00  0.00     0.087 A 
HETATM   43  N   UNK N   1      35.283  13.330  19.208  0.00  0.00    -0.374 N 
HETATM   44  C   UNK N   1      35.059  13.310  17.868  0.00  0.00     0.101 A 
ATOM     45  HN  UNK N   1      35.227  14.216  19.711  1.00  0.00     0.164 HD
ENDBRANCH  33  39
ENDBRANCH   2  29
TORSDOF 6
ENDMDL
MODEL 2
REMARK VINA RESULT:      -9.7      7.288     12.070
REMARK  6 active torsions:
REMARK  status: ('A' for Active; 'I' for Inactive)
REMARK    1  A    between atoms: N_5  and  C_16 
REMARK    2  A    between atoms: N_6  and  C_17 
REMARK       I    between atoms: N_6  and  C_26 
REMARK    3  A    between atoms: N_7  and  C_23 
REMARK       I    between atoms: N_7  and  C_34 
REMARK    4  A    between atoms: C_18  and  C_30 
REMARK    5  A    between atoms: C_22  and  C_26 
REMARK    6  A    between atoms: C_36  and  C_37 
ROOT
HETATM    1  C   UNK N   1      23.497  17.714   4.769  0.00  0.00     0.034 A 
HETATM    2  C   UNK N   1      25.803  18.335   4.394  0.00  0.00     0.056 A 
HETATM    3  C   UNK N   1      25.375  19.475   3.686  0.00  0.00    -0.035 A 
HETATM    4  C   UNK N   1      24.848  17.496   4.919  0.00  0.00     0.047 A 
HETATM    5  C   UNK N   1      23.052  18.817   4.036  0.00  0.00     0.018 A 
HETATM    6  C   UNK N   1      23.998  19.705   3.499  0.00  0.00     0.010 A 
HETATM    7  C   UNK N   1      26.357  20.441   3.124  0.00  0.00     0.050 C 
ENDROOT
BRANCH   1   8
HETATM    8  C   UNK N   1      22.616  16.790   5.464  0.00  0.00     0.256 C 
HETATM    9  O   UNK N   1      22.226  15.768   4.917  0.00  0.00    -0.267 OA
HETATM   10  N   UNK N   1      22.234  17.116   6.733  0.00  0.00    -0.323 N 
HETATM   11  H   UNK N   1      22.638  17.919   7.134  0.00  0.00     0.169 HD
BRANCH  10  12
HETATM   12  C   UNK N   1      21.315  16.399   7.518  0.00  0.00     0.037 A 
HETATM   13  C   UNK N   1      21.721  15.291   8.231  0.00  0.00     0.059 A 
HETATM   14  C   UNK N   1      20.875  14.649   9.117  0.00  0.00     0.042 A 
HETATM   15  C   UNK N   1      19.568  15.149   9.303  0.00  0.00     0.046 A 
HETATM   16  C   UNK N   1      19.136  16.268   8.550  0.00  0.00     0.052 A 
HETATM   17  C   UNK N   1      20.018  16.877   7.655  0.00  0.00     0.046 A 
BRANCH  14  18
HETATM   18  N   UNK N   1      21.421  13.577   9.894  0.00  0.00    -0.317 N 
HETATM   19  C   UNK N   1      22.740  13.356  10.062  0.00  0.00     0.122 A 
HETATM   20  C   UNK N   1      22.866  12.310  10.930  0.00  0.00     0.022 A 
HETATM   21  N   UNK N   1      21.647  11.878  11.308  0.00  0.00    -0.354 N 
HETATM   22  C   UNK N   1      24.154  11.744  11.412  0.00  0.00     0.069 C 
HETATM   23  C   UNK N   1      20.772  12.675  10.654  0.00  0.00     0.188 A 
ATOM     24  HN  UNK N   1      21.431  11.114  11.948  1.00  0.00     0.166 HD
ENDBRANCH  14  18
BRANCH  16  25
HETATM   25  C   UNK N   1      17.790  16.900   8.747  0.00  0.00     0.417 C 
HETATM   26  F   UNK N   1      17.056  16.897   7.576  0.00  0.00    -0.166 F 
HETATM   27  F   UNK N   1      17.097  16.179   9.707  0.00  0.00    -0.166 F 
HETATM   28  F   UNK N   1      17.939  18.201   9.190  0.00  0.00    -0.166 F 
ENDBRANCH  16  25
ENDBRANCH  10  12
ENDBRANCH   1   8
BRANCH   2  29
HETATM   29  N   UNK N   1      27.182  18.015   4.561  0.00  0.00    -0.191 N 
HETATM   30  C   UNK N   1      27.899  18.185   5.790  0.00  0.00     0.683 A 
HETATM   31  N   UNK N   1      29.120  17.613   5.931  0.00  0.00    -0.191 N 
HETATM   32  N   UNK N   1      27.357  18.862   6.845  0.00  0.00    -0.202 N 
HETATM   33  C   UNK N   1      29.806  17.689   7.105  0.00  0.00     0.062 A 
ATOM     34  HN  UNK N   1      29.533  17.116   5.143  1.00  0.00     0.184 HD
HETATM   35  C   UNK N   1      29.251  18.379   8.189  0.00  0.00     0.048 A 
HETATM   36  C   UNK N   1      28.007  18.974   8.029  0.00  0.00     0.108 A 
ATOM     37  HN  UNK N   1      26.438  19.294   6.740  1.00  0.00     0.183 HD
HETATM   38  H   UNK N   1      27.671  17.657   3.785  0.00  0.00     0.184 HD
BRANCH  33  39
HETATM   39  C   UNK N   1      31.109  17.016   7.229  0.00  0.00     0.007 A 
HETATM   40  C   UNK N   1      32.086  17.128   6.231  0.00  0.00     0.016 A 
HETATM   41  C   UNK N   1      33.318  16.495   6.390  0.00  0.00     0.018 A 
HETATM   42  C   UNK N   1      33.560  15.751   7.547  0.00  0.00     0.087 A 
HETATM   43  N   UNK N   1      32.602  15.648   8.507  0.00  0.00    -0.374 N 
HETATM   44  C   UNK N   1      31.397  16.262   8.374  0.00  0.00     0.101 A 
ATOM     45  HN  UNK N   1      32.793  15.098   9.344  1.00  0.00     0.164 HD
ENDBRANCH  33  39
ENDBRANCH   2  29
TORSDOF 6
ENDMDL
MODEL 3
REMARK VINA RESULT:      -9.6      2.741      3.738
REMARK  6 active torsions:
REMARK  status: ('A' for Active; 'I' for Inactive)
REMARK    1  A    between atoms: N_5  and  C_16 
REMARK    2  A    between atoms: N_6  and  C_17 
REMARK       I    between atoms: N_6  and  C_26 
REMARK    3  A    between atoms: N_7  and  C_23 
REMARK       I    between atoms: N_7  and  C_34 
REMARK    4  A    between atoms: C_18  and  C_30 
REMARK    5  A    between atoms: C_22  and  C_26 
REMARK    6  A    between atoms: C_36  and  C_37 
ROOT
HETATM    1  C   UNK N   1      34.476  13.639   8.675  0.00  0.00     0.034 A 
HETATM    2  C   UNK N   1      35.539  13.555  10.844  0.00  0.00     0.056 A 
HETATM    3  C   UNK N   1      36.735  13.129  10.236  0.00  0.00    -0.035 A 
HETATM    4  C   UNK N   1      34.450  13.803  10.041  0.00  0.00     0.047 A 
HETATM    5  C   UNK N   1      35.642  13.179   8.056  0.00  0.00     0.018 A 
HETATM    6  C   UNK N   1      36.778  12.931   8.841  0.00  0.00     0.010 A 
HETATM    7  C   UNK N   1      37.958  12.878  11.044  0.00  0.00     0.050 C 
ENDROOT
BRANCH   1   8
HETATM    8  C   UNK N   1      33.276  14.035   7.957  0.00  0.00     0.256 C 
HETATM    9  O   UNK N   1      32.385  13.227   7.738  0.00  0.00    -0.267 OA
HETATM   10  N   UNK N   1      33.194  15.329   7.529  0.00  0.00    -0.323 N 
HETATM   11  H   UNK N   1      33.919  15.939   7.796  0.00  0.00     0.169 HD
BRANCH  10  12
HETATM   12  C   UNK N   1      32.162  15.863   6.739  0.00  0.00     0.037 A 
HETATM   13  C   UNK N   1      31.131  16.569   7.323  0.00  0.00     0.059 A 
HETATM   14  C   UNK N   1      30.178  17.222   6.563  0.00  0.00     0.042 A 
HETATM   15  C   UNK N   1      30.272  17.173   5.156  0.00  0.00     0.046 A 
HETATM   16  C   UNK N   1      31.309  16.424   4.551  0.00  0.00     0.052 A 
HETATM   17  C   UNK N   1      32.243  15.767   5.356  0.00  0.00     0.046 A 
BRANCH  14  18
HETATM   18  N   UNK N   1      29.212  18.020   7.257  0.00  0.00    -0.317 N 
HETATM   19  C   UNK N   1      28.516  19.028   6.695  0.00  0.00     0.122 A 
HETATM   20  C   UNK N   1      27.638  19.486   7.636  0.00  0.00     0.022 A 
HETATM   21  N   UNK N   1      27.775  18.776   8.773  0.00  0.00    -0.354 N 
HETATM   22  C   UNK N   1      26.656  20.584   7.434  0.00  0.00     0.069 C 
HETATM   23  C   UNK N   1      28.753  17.878   8.515  0.00  0.00     0.188 A 
ATOM     24  HN  UNK N   1      27.253  18.891   9.642  1.00  0.00     0.166 HD
ENDBRANCH  14  18
BRANCH  16  25
HETATM   25  C   UNK N   1      31.516  16.387   3.066  0.00  0.00     0.417 C 
HETATM   26  F   UNK N   1      32.246  17.478   2.632  0.00  0.00    -0.166 F 
HETATM   27  F   UNK N   1      32.210  15.232   2.743  0.00  0.00    -0.166 F 
HETATM   28  F   UNK N   1      30.295  16.367   2.418  0.00  0.00    -0.166 F 
ENDBRANCH  16  25
ENDBRANCH  10  12
ENDBRANCH   1   8
BRANCH   2  29
HETATM   29  N   UNK N   1      35.415  13.711  12.256  0.00  0.00    -0.191 N 
HETATM   30  C   UNK N   1      34.941  12.684  13.136  0.00  0.00     0.683 A 
HETATM   31  N   UNK N   1      35.106  12.826  14.473  0.00  0.00    -0.191 N 
HETATM   32  N   UNK N   1      34.375  11.537  12.654  0.00  0.00    -0.202 N 
HETATM   33  C   UNK N   1      34.734  11.845  15.341  0.00  0.00     0.062 A 
ATOM     34  HN  UNK N   1      35.518  13.685  14.838  1.00  0.00     0.184 HD
HETATM   35  C   UNK N   1      34.159  10.667  14.850  0.00  0.00     0.048 A 
HETATM   36  C   UNK N   1      33.979  10.538  13.480  0.00  0.00     0.108 A 
ATOM     37  HN  UNK N   1      34.250  11.429  11.647  1.00  0.00     0.183 HD
HETATM   38  H   UNK N   1      35.671  14.576  12.650  0.00  0.00     0.184 HD
BRANCH  33  39
HETATM   39  C   UNK N   1      34.972  12.022  16.783  0.00  0.00     0.007 A 
HETATM   40  C   UNK N   1      34.948  13.291  17.375  0.00  0.00     0.016 A 
HETATM   41  C   UNK N   1      35.157  13.421  18.747  0.00  0.00     0.018 A 
HETATM   42  C   UNK N   1      35.393  12.278  19.515  0.00  0.00     0.087 A 
HETATM   43  N   UNK N   1      35.417  11.052  18.926  0.00  0.00    -0.374 N 
HETATM   44  C   UNK N   1      35.210  10.903  17.592  0.00  0.00     0.101 A 
ATOM     45  HN  UNK N   1      35.593  10.228  19.500  1.00  0.00     0.164 HD
ENDBRANCH  33  39
ENDBRANCH   2  29
TORSDOF 6
ENDMDL
MODEL 4
REMARK VINA RESULT:      -9.3      4.180      6.235
REMARK  6 active torsions:
REMARK  status: ('A' for Active; 'I' for Inactive)
REMARK    1  A    between atoms: N_5  and  C_16 
REMARK    2  A    between atoms: N_6  and  C_17 
REMARK       I    between atoms: N_6  and  C_26 
REMARK    3  A    between atoms: N_7  and  C_23 
REMARK       I    between atoms: N_7  and  C_34 
REMARK    4  A    between atoms: C_18  and  C_30 
REMARK    5  A    between atoms: C_22  and  C_26 
REMARK    6  A    between atoms: C_36  and  C_37 
ROOT
HETATM    1  C   UNK N   1      30.799  16.353   6.270  0.00  0.00     0.034 A 
HETATM    2  C   UNK N   1      32.376  16.544   8.092  0.00  0.00     0.056 A 
HETATM    3  C   UNK N   1      33.219  17.320   7.274  0.00  0.00    -0.035 A 
HETATM    4  C   UNK N   1      31.189  16.092   7.565  0.00  0.00     0.047 A 
HETATM    5  C   UNK N   1      31.640  17.087   5.429  0.00  0.00     0.018 A 
HETATM    6  C   UNK N   1      32.852  17.578   5.938  0.00  0.00     0.010 A 
HETATM    7  C   UNK N   1      34.500  17.868   7.795  0.00  0.00     0.050 C 
ENDROOT
BRANCH   1   8
HETATM    8  C   UNK N   1      29.474  15.889   5.892  0.00  0.00     0.256 C 
HETATM    9  O   UNK N   1      29.337  15.012   5.052  0.00  0.00    -0.267 OA
HETATM   10  N   UNK N   1      28.403  16.479   6.497  0.00  0.00    -0.323 N 
HETATM   11  H   UNK N   1      28.590  17.132   7.210  0.00  0.00     0.169 HD
BRANCH  10  12
HETATM   12  C   UNK N   1      27.054  16.232   6.189  0.00  0.00     0.037 A 
HETATM   13  C   UNK N   1      26.340  15.287   6.895  0.00  0.00     0.059 A 
HETATM   14  C   UNK N   1      24.979  15.119   6.708  0.00  0.00     0.042 A 
HETATM   15  C   UNK N   1      24.307  15.944   5.782  0.00  0.00     0.046 A 
HETATM   16  C   UNK N   1      25.041  16.894   5.031  0.00  0.00     0.052 A 
HETATM   17  C   UNK N   1      26.417  17.021   5.240  0.00  0.00     0.046 A 
BRANCH  14  18
HETATM   18  N   UNK N   1      24.304  14.192   7.566  0.00  0.00    -0.317 N 
HETATM   19  C   UNK N   1      24.882  13.564   8.610  0.00  0.00     0.122 A 
HETATM   20  C   UNK N   1      23.907  12.838   9.234  0.00  0.00     0.022 A 
HETATM   21  N   UNK N   1      22.732  13.008   8.597  0.00  0.00    -0.354 N 
HETATM   22  C   UNK N   1      24.101  12.006  10.450  0.00  0.00     0.069 C 
HETATM   23  C   UNK N   1      23.003  13.846   7.571  0.00  0.00     0.188 A 
ATOM     24  HN  UNK N   1      21.832  12.592   8.837  1.00  0.00     0.166 HD
ENDBRANCH  14  18
BRANCH  16  25
HETATM   25  C   UNK N   1      24.385  17.854   4.085  0.00  0.00     0.417 C 
HETATM   26  F   UNK N   1      23.203  17.341   3.586  0.00  0.00    -0.166 F 
HETATM   27  F   UNK N   1      24.107  19.029   4.765  0.00  0.00    -0.166 F 
HETATM   28  F   UNK N   1      25.238  18.141   3.035  0.00  0.00    -0.166 F 
ENDBRANCH  16  25
ENDBRANCH  10  12
ENDBRANCH   1   8
BRANCH   2  29
HETATM   29  N   UNK N   1      32.723  16.196   9.430  0.00  0.00    -0.191 N 
HETATM   30  C   UNK N   1      33.494  15.040   9.781  0.00  0.00     0.683 A 
HETATM   31  N   UNK N   1      33.996  14.931  11.035  0.00  0.00    -0.191 N 
HETATM   32  N   UNK N   1      33.782  14.069   8.863  0.00  0.00    -0.202 N 
HETATM   33  C   UNK N   1      34.792  13.885  11.392  0.00  0.00     0.062 A 
ATOM     34  HN  UNK N   1      33.775  15.647  11.726  1.00  0.00     0.184 HD
HETATM   35  C   UNK N   1      35.093  12.892  10.452  0.00  0.00     0.048 A 
HETATM   36  C   UNK N   1      34.560  13.004   9.175  0.00  0.00     0.108 A 
ATOM     37  HN  UNK N   1      33.404  14.149   7.919  1.00  0.00     0.183 HD
HETATM   38  H   UNK N   1      32.415  16.784  10.157  0.00  0.00     0.184 HD
BRANCH  33  39
HETATM   39  C   UNK N   1      35.353  13.829  12.751  0.00  0.00     0.007 A 
HETATM   40  C   UNK N   1      34.969  12.833  13.658  0.00  0.00     0.016 A 
HETATM   41  C   UNK N   1      35.536  12.796  14.931  0.00  0.00     0.018 A 
HETATM   42  C   UNK N   1      36.481  13.761  15.287  0.00  0.00     0.087 A 
HETATM   43  N   UNK N   1      36.843  14.724  14.398  0.00  0.00    -0.374 N 
HETATM   44  C   UNK N   1      36.306  14.774  13.151  0.00  0.00     0.101 A 
ATOM     45  HN  UNK N   1      37.532  15.423  14.674  1.00  0.00     0.164 HD
ENDBRANCH  33  39
ENDBRANCH   2  29
TORSDOF 6
ENDMDL
MODEL 5
REMARK VINA RESULT:      -9.1      4.277      6.290
REMARK  6 active torsions:
REMARK  status: ('A' for Active; 'I' for Inactive)
REMARK    1  A    between atoms: N_5  and  C_16 
REMARK    2  A    between atoms: N_6  and  C_17 
REMARK       I    between atoms: N_6  and  C_26 
REMARK    3  A    between atoms: N_7  and  C_23 
REMARK       I    between atoms: N_7  and  C_34 
REMARK    4  A    between atoms: C_18  and  C_30 
REMARK    5  A    between atoms: C_22  and  C_26 
REMARK    6  A    between atoms: C_36  and  C_37 
ROOT
HETATM    1  C   UNK N   1      30.075  17.140   6.763  0.00  0.00     0.034 A 
HETATM    2  C   UNK N   1      32.020  16.719   8.135  0.00  0.00     0.056 A 
HETATM    3  C   UNK N   1      32.847  16.916   7.014  0.00  0.00    -0.035 A 
HETATM    4  C   UNK N   1      30.659  16.845   7.974  0.00  0.00     0.047 A 
HETATM    5  C   UNK N   1      30.876  17.300   5.629  0.00  0.00     0.018 A 
HETATM    6  C   UNK N   1      32.269  17.194   5.759  0.00  0.00     0.010 A 
HETATM    7  C   UNK N   1      34.328  16.828   7.129  0.00  0.00     0.050 C 
ENDROOT
BRANCH   1   8
HETATM    8  C   UNK N   1      28.634  17.335   6.776  0.00  0.00     0.256 C 
HETATM    9  O   UNK N   1      28.100  17.981   7.666  0.00  0.00    -0.267 OA
HETATM   10  N   UNK N   1      27.911  16.760   5.772  0.00  0.00    -0.323 N 
HETATM   11  H   UNK N   1      28.413  16.309   5.055  0.00  0.00     0.169 HD
BRANCH  10  12
HETATM   12  C   UNK N   1      26.509  16.758   5.674  0.00  0.00     0.037 A 
HETATM   13  C   UNK N   1      25.855  17.774   5.010  0.00  0.00     0.059 A 
HETATM   14  C   UNK N   1      24.492  17.729   4.779  0.00  0.00     0.042 A 
HETATM   15  C   UNK N   1      23.757  16.609   5.224  0.00  0.00     0.046 A 
HETATM   16  C   UNK N   1      24.418  15.579   5.936  0.00  0.00     0.052 A 
HETATM   17  C   UNK N   1      25.794  15.671   6.160  0.00  0.00     0.046 A 
BRANCH  14  18
HETATM   18  N   UNK N   1      23.921  18.774   3.983  0.00  0.00    -0.317 N 
HETATM   19  C   UNK N   1      22.602  18.915   3.747  0.00  0.00     0.122 A 
HETATM   20  C   UNK N   1      22.441  20.067   3.031  0.00  0.00     0.022 A 
HETATM   21  N   UNK N   1      23.638  20.647   2.822  0.00  0.00    -0.354 N 
HETATM   22  C   UNK N   1      21.138  20.619   2.573  0.00  0.00     0.069 C 
HETATM   23  C   UNK N   1      24.536  19.830   3.418  0.00  0.00     0.188 A 
ATOM     24  HN  UNK N   1      23.827  21.516   2.321  1.00  0.00     0.166 HD
ENDBRANCH  14  18
BRANCH  16  25
HETATM   25  C   UNK N   1      23.719  14.327   6.375  0.00  0.00     0.417 C 
HETATM   26  F   UNK N   1      23.661  14.239   7.753  0.00  0.00    -0.166 F 
HETATM   27  F   UNK N   1      22.427  14.342   5.876  0.00  0.00    -0.166 F 
HETATM   28  F   UNK N   1      24.376  13.218   5.873  0.00  0.00    -0.166 F 
ENDBRANCH  16  25
ENDBRANCH  10  12
ENDBRANCH   1   8
BRANCH   2  29
HETATM   29  N   UNK N   1      32.542  16.371   9.416  0.00  0.00    -0.191 N 
HETATM   30  C   UNK N   1      33.137  15.104   9.720  0.00  0.00     0.683 A 
HETATM   31  N   UNK N   1      33.838  14.957  10.871  0.00  0.00    -0.191 N 
HETATM   32  N   UNK N   1      33.065  14.054   8.848  0.00  0.00    -0.202 N 
HETATM   33  C   UNK N   1      34.479  13.793  11.166  0.00  0.00     0.062 A 
ATOM     34  HN  UNK N   1      33.886  15.735  11.529  1.00  0.00     0.184 HD
HETATM   35  C   UNK N   1      34.410  12.717  10.273  0.00  0.00     0.048 A 
HETATM   36  C   UNK N   1      33.677  12.872   9.105  0.00  0.00     0.108 A 
ATOM     37  HN  UNK N   1      32.537  14.162   7.981  1.00  0.00     0.183 HD
HETATM   38  H   UNK N   1      32.489  17.042  10.135  0.00  0.00     0.184 HD
BRANCH  33  39
HETATM   39  C   UNK N   1      35.266  13.692  12.406  0.00  0.00     0.007 A 
HETATM   40  C   UNK N   1      35.271  12.519  13.173  0.00  0.00     0.016 A 
HETATM   41  C   UNK N   1      36.044  12.449  14.331  0.00  0.00     0.018 A 
HETATM   42  C   UNK N   1      36.804  13.556  14.714  0.00  0.00     0.087 A 
HETATM   43  N   UNK N   1      36.788  14.690  13.962  0.00  0.00    -0.374 N 
HETATM   44  C   UNK N   1      36.046  14.776  12.827  0.00  0.00     0.101 A 
ATOM     45  HN  UNK N   1      37.346  15.491  14.257  1.00  0.00     0.164 HD
ENDBRANCH  33  39
ENDBRANCH   2  29
TORSDOF 6
ENDMDL
MODEL 6
REMARK VINA RESULT:      -9.0      6.294     10.671
REMARK  6 active torsions:
REMARK  status: ('A' for Active; 'I' for Inactive)
REMARK    1  A    between atoms: N_5  and  C_16 
REMARK    2  A    between atoms: N_6  and  C_17 
REMARK       I    between atoms: N_6  and  C_26 
REMARK    3  A    between atoms: N_7  and  C_23 
REMARK       I    between atoms: N_7  and  C_34 
REMARK    4  A    between atoms: C_18  and  C_30 
REMARK    5  A    between atoms: C_22  and  C_26 
REMARK    6  A    between atoms: C_36  and  C_37 
ROOT
HETATM    1  C   UNK N   1      24.605  16.709   4.991  0.00  0.00     0.034 A 
HETATM    2  C   UNK N   1      26.731  17.858   4.999  0.00  0.00     0.056 A 
HETATM    3  C   UNK N   1      26.134  18.956   4.351  0.00  0.00    -0.035 A 
HETATM    4  C   UNK N   1      25.943  16.772   5.304  0.00  0.00     0.047 A 
HETATM    5  C   UNK N   1      24.002  17.771   4.311  0.00  0.00     0.018 A 
HETATM    6  C   UNK N   1      24.771  18.902   3.998  0.00  0.00     0.010 A 
HETATM    7  C   UNK N   1      26.923  20.174   4.024  0.00  0.00     0.050 C 
ENDROOT
BRANCH   1   8
HETATM    8  C   UNK N   1      23.888  15.536   5.466  0.00  0.00     0.256 C 
HETATM    9  O   UNK N   1      22.740  15.318   5.106  0.00  0.00    -0.267 OA
HETATM   10  N   UNK N   1      24.539  14.708   6.334  0.00  0.00    -0.323 N 
HETATM   11  H   UNK N   1      25.482  14.910   6.530  0.00  0.00     0.169 HD
BRANCH  10  12
HETATM   12  C   UNK N   1      23.976  13.590   6.971  0.00  0.00     0.037 A 
HETATM   13  C   UNK N   1      24.213  12.319   6.489  0.00  0.00     0.059 A 
HETATM   14  C   UNK N   1      23.788  11.194   7.172  0.00  0.00     0.042 A 
HETATM   15  C   UNK N   1      23.105  11.352   8.397  0.00  0.00     0.046 A 
HETATM   16  C   UNK N   1      22.831  12.654   8.880  0.00  0.00     0.052 A 
HETATM   17  C   UNK N   1      23.266  13.764   8.152  0.00  0.00     0.046 A 
BRANCH  14  18
HETATM   18  N   UNK N   1      24.178   9.918   6.650  0.00  0.00    -0.317 N 
HETATM   19  C   UNK N   1      23.866   8.737   7.221  0.00  0.00     0.122 A 
HETATM   20  C   UNK N   1      24.330   7.755   6.393  0.00  0.00     0.022 A 
HETATM   21  N   UNK N   1      24.922   8.306   5.315  0.00  0.00    -0.354 N 
HETATM   22  C   UNK N   1      24.183   6.294   6.627  0.00  0.00     0.069 C 
HETATM   23  C   UNK N   1      24.816   9.641   5.498  0.00  0.00     0.188 A 
ATOM     24  HN  UNK N   1      25.357   7.819   4.531  1.00  0.00     0.166 HD
ENDBRANCH  14  18
BRANCH  16  25
HETATM   25  C   UNK N   1      22.178  12.899  10.208  0.00  0.00     0.417 C 
HETATM   26  F   UNK N   1      23.095  12.834  11.240  0.00  0.00    -0.166 F 
HETATM   27  F   UNK N   1      21.610  14.163  10.197  0.00  0.00    -0.166 F 
HETATM   28  F   UNK N   1      21.180  11.967  10.424  0.00  0.00    -0.166 F 
ENDBRANCH  16  25
ENDBRANCH  10  12
ENDBRANCH   1   8
BRANCH   2  29
HETATM   29  N   UNK N   1      28.119  17.827   5.323  0.00  0.00    -0.191 N 
HETATM   30  C   UNK N   1      28.631  17.933   6.657  0.00  0.00     0.683 A 
HETATM   31  N   UNK N   1      29.930  17.630   6.897  0.00  0.00    -0.191 N 
HETATM   32  N   UNK N   1      27.825  18.277   7.706  0.00  0.00    -0.202 N 
HETATM   33  C   UNK N   1      30.441  17.649   8.159  0.00  0.00     0.062 A 
ATOM     34  HN  UNK N   1      30.538  17.382   6.116  1.00  0.00     0.184 HD
HETATM   35  C   UNK N   1      29.617  17.997   9.235  0.00  0.00     0.048 A 
HETATM   36  C   UNK N   1      28.292  18.321   8.977  0.00  0.00     0.108 A 
ATOM     37  HN  UNK N   1      26.847  18.506   7.527  1.00  0.00     0.183 HD
HETATM   38  H   UNK N   1      28.765  17.727   4.586  0.00  0.00     0.184 HD
BRANCH  33  39
HETATM   39  C   UNK N   1      31.846  17.269   8.379  0.00  0.00     0.007 A 
HETATM   40  C   UNK N   1      32.891  18.169   8.134  0.00  0.00     0.016 A 
HETATM   41  C   UNK N   1      34.210  17.785   8.374  0.00  0.00     0.018 A 
HETATM   42  C   UNK N   1      34.471  16.500   8.854  0.00  0.00     0.087 A 
HETATM   43  N   UNK N   1      33.447  15.635   9.085  0.00  0.00    -0.374 N 
HETATM   44  C   UNK N   1      32.155  15.992   8.863  0.00  0.00     0.101 A 
ATOM     45  HN  UNK N   1      33.655  14.699   9.433  1.00  0.00     0.164 HD
ENDBRANCH  33  39
ENDBRANCH   2  29
TORSDOF 6
ENDMDL
MODEL 7
REMARK VINA RESULT:      -8.8      4.143     11.935
REMARK  6 active torsions:
REMARK  status: ('A' for Active; 'I' for Inactive)
REMARK    1  A    between atoms: N_5  and  C_16 
REMARK    2  A    between atoms: N_6  and  C_17 
REMARK       I    between atoms: N_6  and  C_26 
REMARK    3  A    between atoms: N_7  and  C_23 
REMARK       I    between atoms: N_7  and  C_34 
REMARK    4  A    between atoms: C_18  and  C_30 
REMARK    5  A    between atoms: C_22  and  C_26 
REMARK    6  A    between atoms: C_36  and  C_37 
ROOT
HETATM    1  C   UNK N   1      34.849  15.293  10.856  0.00  0.00     0.034 A 
HETATM    2  C   UNK N   1      33.586  16.206   9.009  0.00  0.00     0.056 A 
HETATM    3  C   UNK N   1      34.390  17.362   9.038  0.00  0.00    -0.035 A 
HETATM    4  C   UNK N   1      33.848  15.206   9.916  0.00  0.00     0.047 A 
HETATM    5  C   UNK N   1      35.632  16.449  10.928  0.00  0.00     0.018 A 
HETATM    6  C   UNK N   1      35.404  17.484  10.008  0.00  0.00     0.010 A 
HETATM    7  C   UNK N   1      34.180  18.465   8.061  0.00  0.00     0.050 C 
ENDROOT
BRANCH   1   8
HETATM    8  C   UNK N   1      35.063  14.114  11.679  0.00  0.00     0.256 C 
HETATM    9  O   UNK N   1      34.216  13.234  11.740  0.00  0.00    -0.267 OA
HETATM   10  N   UNK N   1      36.230  14.039  12.383  0.00  0.00    -0.323 N 
HETATM   11  H   UNK N   1      36.892  14.751  12.236  0.00  0.00     0.169 HD
BRANCH  10  12
HETATM   12  C   UNK N   1      36.565  13.029  13.301  0.00  0.00     0.037 A 
HETATM   13  C   UNK N   1      36.170  13.124  14.618  0.00  0.00     0.059 A 
HETATM   14  C   UNK N   1      36.364  12.085  15.510  0.00  0.00     0.042 A 
HETATM   15  C   UNK N   1      36.971  10.895  15.056  0.00  0.00     0.046 A 
HETATM   16  C   UNK N   1      37.408  10.804  13.712  0.00  0.00     0.052 A 
HETATM   17  C   UNK N   1      37.205  11.882  12.848  0.00  0.00     0.046 A 
BRANCH  14  18
HETATM   18  N   UNK N   1      35.820  12.234  16.827  0.00  0.00    -0.317 N 
HETATM   19  C   UNK N   1      35.762  11.245  17.741  0.00  0.00     0.122 A 
HETATM   20  C   UNK N   1      35.267  11.788  18.892  0.00  0.00     0.022 A 
HETATM   21  N   UNK N   1      35.020  13.100  18.710  0.00  0.00    -0.354 N 
HETATM   22  C   UNK N   1      35.056  11.053  20.167  0.00  0.00     0.069 C 
HETATM   23  C   UNK N   1      35.369  13.351  17.428  0.00  0.00     0.188 A 
ATOM     24  HN  UNK N   1      34.649  13.761  19.393  1.00  0.00     0.166 HD
ENDBRANCH  14  18
BRANCH  16  25
HETATM   25  C   UNK N   1      37.992   9.547  13.139  0.00  0.00     0.417 C 
HETATM   26  F   UNK N   1      39.090   9.125  13.865  0.00  0.00    -0.166 F 
HETATM   27  F   UNK N   1      37.028   8.553  13.174  0.00  0.00    -0.166 F 
HETATM   28  F   UNK N   1      38.367   9.756  11.824  0.00  0.00    -0.166 F 
ENDBRANCH  16  25
ENDBRANCH  10  12
ENDBRANCH   1   8
BRANCH   2  29
HETATM   29  N   UNK N   1      32.504  16.053   8.093  0.00  0.00    -0.191 N 
HETATM   30  C   UNK N   1      31.260  16.755   8.201  0.00  0.00     0.683 A 
HETATM   31  N   UNK N   1      30.400  16.750   7.154  0.00  0.00    -0.191 N 
HETATM   32  N   UNK N   1      30.943  17.478   9.317  0.00  0.00    -0.202 N 
HETATM   33  C   UNK N   1      29.239  17.460   7.186  0.00  0.00     0.062 A 
ATOM     34  HN  UNK N   1      30.627  16.203   6.323  1.00  0.00     0.184 HD
HETATM   35  C   UNK N   1      28.914  18.206   8.326  0.00  0.00     0.048 A 
HETATM   36  C   UNK N   1      29.793  18.192   9.400  0.00  0.00     0.108 A 
ATOM     37  HN  UNK N   1      31.589  17.483  10.107  1.00  0.00     0.183 HD
HETATM   38  H   UNK N   1      32.618  15.427   7.342  0.00  0.00     0.184 HD
BRANCH  33  39
HETATM   39  C   UNK N   1      28.356  17.463   6.009  0.00  0.00     0.007 A 
HETATM   40  C   UNK N   1      27.126  16.793   6.019  0.00  0.00     0.016 A 
HETATM   41  C   UNK N   1      26.303  16.833   4.894  0.00  0.00     0.018 A 
HETATM   42  C   UNK N   1      26.721  17.541   3.766  0.00  0.00     0.087 A 
HETATM   43  N   UNK N   1      27.919  18.185   3.768  0.00  0.00    -0.374 N 
HETATM   44  C   UNK N   1      28.733  18.163   4.856  0.00  0.00     0.101 A 
ATOM     45  HN  UNK N   1      28.212  18.696   2.935  1.00  0.00     0.164 HD
ENDBRANCH  33  39
ENDBRANCH   2  29
TORSDOF 6
ENDMDL
MODEL 8
REMARK VINA RESULT:      -8.7      3.166      4.731
REMARK  6 active torsions:
REMARK  status: ('A' for Active; 'I' for Inactive)
REMARK    1  A    between atoms: N_5  and  C_16 
REMARK    2  A    between atoms: N_6  and  C_17 
REMARK       I    between atoms: N_6  and  C_26 
REMARK    3  A    between atoms: N_7  and  C_23 
REMARK       I    between atoms: N_7  and  C_34 
REMARK    4  A    between atoms: C_18  and  C_30 
REMARK    5  A    between atoms: C_22  and  C_26 
REMARK    6  A    between atoms: C_36  and  C_37 
ROOT
HETATM    1  C   UNK N   1      32.460  16.828   7.535  0.00  0.00     0.034 A 
HETATM    2  C   UNK N   1      33.458  15.901   9.531  0.00  0.00     0.056 A 
HETATM    3  C   UNK N   1      34.480  16.867   9.463  0.00  0.00    -0.035 A 
HETATM    4  C   UNK N   1      32.476  15.919   8.568  0.00  0.00     0.047 A 
HETATM    5  C   UNK N   1      33.487  17.771   7.426  0.00  0.00     0.018 A 
HETATM    6  C   UNK N   1      34.496  17.793   8.401  0.00  0.00     0.010 A 
HETATM    7  C   UNK N   1      35.551  16.923  10.494  0.00  0.00     0.050 C 
ENDROOT
BRANCH   1   8
HETATM    8  C   UNK N   1      31.304  16.779   6.654  0.00  0.00     0.256 C 
HETATM    9  O   UNK N   1      31.404  16.338   5.518  0.00  0.00    -0.267 OA
HETATM   10  N   UNK N   1      30.121  17.257   7.138  0.00  0.00    -0.323 N 
HETATM   11  H   UNK N   1      30.099  17.538   8.081  0.00  0.00     0.169 HD
BRANCH  10  12
HETATM   12  C   UNK N   1      28.930  17.381   6.403  0.00  0.00     0.037 A 
HETATM   13  C   UNK N   1      28.026  16.340   6.358  0.00  0.00     0.059 A 
HETATM   14  C   UNK N   1      26.787  16.481   5.760  0.00  0.00     0.042 A 
HETATM   15  C   UNK N   1      26.437  17.724   5.192  0.00  0.00     0.046 A 
HETATM   16  C   UNK N   1      27.373  18.786   5.207  0.00  0.00     0.052 A 
HETATM   17  C   UNK N   1      28.619  18.597   5.809  0.00  0.00     0.046 A 
BRANCH  14  18
HETATM   18  N   UNK N   1      25.875  15.381   5.862  0.00  0.00    -0.317 N 
HETATM   19  C   UNK N   1      25.566  14.756   7.016  0.00  0.00     0.122 A 
HETATM   20  C   UNK N   1      24.605  13.829   6.727  0.00  0.00     0.022 A 
HETATM   21  N   UNK N   1      24.308  13.871   5.413  0.00  0.00    -0.354 N 
HETATM   22  C   UNK N   1      23.958  12.926   7.715  0.00  0.00     0.069 C 
HETATM   23  C   UNK N   1      25.106  14.835   4.901  0.00  0.00     0.188 A 
ATOM     24  HN  UNK N   1      23.629  13.298   4.913  1.00  0.00     0.166 HD
ENDBRANCH  14  18
BRANCH  16  25
HETATM   25  C   UNK N   1      27.045  20.156   4.691  0.00  0.00     0.417 C 
HETATM   26  F   UNK N   1      25.700  20.439   4.831  0.00  0.00    -0.166 F 
HETATM   27  F   UNK N   1      27.772  21.089   5.413  0.00  0.00    -0.166 F 
HETATM   28  F   UNK N   1      27.397  20.255   3.357  0.00  0.00    -0.166 F 
ENDBRANCH  16  25
ENDBRANCH  10  12
ENDBRANCH   1   8
BRANCH   2  29
HETATM   29  N   UNK N   1      33.424  14.899  10.545  0.00  0.00    -0.191 N 
HETATM   30  C   UNK N   1      34.300  13.766  10.579  0.00  0.00     0.683 A 
HETATM   31  N   UNK N   1      34.375  13.016  11.706  0.00  0.00    -0.191 N 
HETATM   32  N   UNK N   1      35.106  13.455   9.520  0.00  0.00    -0.202 N 
HETATM   33  C   UNK N   1      35.244  11.974  11.808  0.00  0.00     0.062 A 
ATOM     34  HN  UNK N   1      33.767  13.239  12.495  1.00  0.00     0.184 HD
HETATM   35  C   UNK N   1      36.075  11.656  10.726  0.00  0.00     0.048 A 
HETATM   36  C   UNK N   1      35.979  12.419   9.571  0.00  0.00     0.108 A 
ATOM     37  HN  UNK N   1      35.051  14.017   8.670  1.00  0.00     0.183 HD
HETATM   38  H   UNK N   1      32.758  14.990  11.264  0.00  0.00     0.184 HD
BRANCH  33  39
HETATM   39  C   UNK N   1      35.325  11.215  13.066  0.00  0.00     0.007 A 
HETATM   40  C   UNK N   1      34.203  11.045  13.888  0.00  0.00     0.016 A 
HETATM   41  C   UNK N   1      34.308  10.302  15.063  0.00  0.00     0.018 A 
HETATM   42  C   UNK N   1      35.538   9.739  15.408  0.00  0.00     0.087 A 
HETATM   43  N   UNK N   1      36.620   9.914  14.602  0.00  0.00    -0.374 N 
HETATM   44  C   UNK N   1      36.537  10.629  13.451  0.00  0.00     0.101 A 
ATOM     45  HN  UNK N   1      37.512   9.498  14.870  1.00  0.00     0.164 HD
ENDBRANCH  33  39
ENDBRANCH   2  29
TORSDOF 6
ENDMDL
MODEL 9
REMARK VINA RESULT:      -8.7      4.091     11.545
REMARK  6 active torsions:
REMARK  status: ('A' for Active; 'I' for Inactive)
REMARK    1  A    between atoms: N_5  and  C_16 
REMARK    2  A    between atoms: N_6  and  C_17 
REMARK       I    between atoms: N_6  and  C_26 
REMARK    3  A    between atoms: N_7  and  C_23 
REMARK       I    between atoms: N_7  and  C_34 
REMARK    4  A    between atoms: C_18  and  C_30 
REMARK    5  A    between atoms: C_22  and  C_26 
REMARK    6  A    between atoms: C_36  and  C_37 
ROOT
HETATM    1  C   UNK N   1      34.622  15.249  10.727  0.00  0.00     0.034 A 
HETATM    2  C   UNK N   1      33.241  16.183   8.978  0.00  0.00     0.056 A 
HETATM    3  C   UNK N   1      34.124  17.274   8.870  0.00  0.00    -0.035 A 
HETATM    4  C   UNK N   1      33.524  15.202   9.899  0.00  0.00     0.047 A 
HETATM    5  C   UNK N   1      35.490  16.343  10.664  0.00  0.00     0.018 A 
HETATM    6  C   UNK N   1      35.241  17.356   9.725  0.00  0.00     0.010 A 
HETATM    7  C   UNK N   1      33.893  18.351   7.870  0.00  0.00     0.050 C 
ENDROOT
BRANCH   1   8
HETATM    8  C   UNK N   1      34.836  14.089  11.577  0.00  0.00     0.256 C 
HETATM    9  O   UNK N   1      34.339  13.008  11.295  0.00  0.00    -0.267 OA
HETATM   10  N   UNK N   1      35.593  14.261  12.700  0.00  0.00    -0.323 N 
HETATM   11  H   UNK N   1      36.014  15.141  12.830  0.00  0.00     0.169 HD
BRANCH  10  12
HETATM   12  C   UNK N   1      35.824  13.286  13.685  0.00  0.00     0.037 A 
HETATM   13  C   UNK N   1      36.592  12.176  13.401  0.00  0.00     0.059 A 
HETATM   14  C   UNK N   1      36.950  11.272  14.385  0.00  0.00     0.042 A 
HETATM   15  C   UNK N   1      36.528  11.499  15.712  0.00  0.00     0.046 A 
HETATM   16  C   UNK N   1      35.714  12.620  16.003  0.00  0.00     0.052 A 
HETATM   17  C   UNK N   1      35.363  13.501  14.977  0.00  0.00     0.046 A 
BRANCH  14  18
HETATM   18  N   UNK N   1      37.841  10.212  14.016  0.00  0.00    -0.317 N 
HETATM   19  C   UNK N   1      38.960   9.891  14.695  0.00  0.00     0.122 A 
HETATM   20  C   UNK N   1      39.490   8.783  14.097  0.00  0.00     0.022 A 
HETATM   21  N   UNK N   1      38.716   8.408  13.060  0.00  0.00    -0.354 N 
HETATM   22  C   UNK N   1      40.721   8.075  14.537  0.00  0.00     0.069 C 
HETATM   23  C   UNK N   1      37.705   9.306  13.030  0.00  0.00     0.188 A 
ATOM     24  HN  UNK N   1      38.862   7.617  12.432  1.00  0.00     0.166 HD
ENDBRANCH  14  18
BRANCH  16  25
HETATM   25  C   UNK N   1      35.290  12.967  17.399  0.00  0.00     0.417 C 
HETATM   26  F   UNK N   1      36.141  13.895  17.968  0.00  0.00    -0.166 F 
HETATM   27  F   UNK N   1      34.013  13.504  17.355  0.00  0.00    -0.166 F 
HETATM   28  F   UNK N   1      35.265  11.828  18.183  0.00  0.00    -0.166 F 
ENDBRANCH  16  25
ENDBRANCH  10  12
ENDBRANCH   1   8
BRANCH   2  29
HETATM   29  N   UNK N   1      32.060  16.078   8.185  0.00  0.00    -0.191 N 
HETATM   30  C   UNK N   1      30.886  16.873   8.391  0.00  0.00     0.683 A 
HETATM   31  N   UNK N   1      29.922  16.894   7.438  0.00  0.00    -0.191 N 
HETATM   32  N   UNK N   1      30.740  17.656   9.501  0.00  0.00    -0.202 N 
HETATM   33  C   UNK N   1      28.823  17.689   7.560  0.00  0.00     0.062 A 
ATOM     34  HN  UNK N   1      30.022  16.303   6.613  1.00  0.00     0.184 HD
HETATM   35  C   UNK N   1      28.673  18.496   8.694  0.00  0.00     0.048 A 
HETATM   36  C   UNK N   1      29.658  18.455   9.671  0.00  0.00     0.108 A 
ATOM     37  HN  UNK N   1      31.464  17.641  10.220  1.00  0.00     0.183 HD
HETATM   38  H   UNK N   1      32.050  15.419   7.454  0.00  0.00     0.184 HD
BRANCH  33  39
HETATM   39  C   UNK N   1      27.822  17.715   6.481  0.00  0.00     0.007 A 
HETATM   40  C   UNK N   1      27.671  18.836   5.654  0.00  0.00     0.016 A 
HETATM   41  C   UNK N   1      26.729  18.820   4.627  0.00  0.00     0.018 A 
HETATM   42  C   UNK N   1      25.941  17.682   4.439  0.00  0.00     0.087 A 
HETATM   43  N   UNK N   1      26.097  16.601   5.250  0.00  0.00    -0.374 N 
HETATM   44  C   UNK N   1      27.013  16.594   6.253  0.00  0.00     0.101 A 
ATOM     45  HN  UNK N   1      25.512  15.779   5.102  1.00  0.00     0.164 HD
ENDBRANCH  33  39
ENDBRANCH   2  29
TORSDOF 6
ENDMDL
