MODEL 1
REMARK VINA RESULT:      -7.2      0.000      0.000
REMARK  3 active torsions:
REMARK  status: ('A' for Active; 'I' for Inactive)
REMARK    1  A    between atoms: C_8  and  O_1 
REMARK    2  A    between atoms: C_11  and  O_2 
REMARK    3  A    between atoms: O_3  and  C_21 
ROOT
HETATM    1  C   UNK N   1      36.051  11.416  13.770  0.00  0.00    -0.011 C 
HETATM    2  C   UNK N   1      35.381  12.532  14.568  0.00  0.00     0.003 C 
HETATM    3  C   UNK N   1      35.577  12.321  16.077  0.00  0.00    -0.001 C 
HETATM    4  C   UNK N   1      34.917  10.973  16.469  0.00  0.00     0.023 C 
HETATM    5  C   UNK N   1      35.783  11.929  12.367  0.00  0.00     0.155 C 
HETATM    6  C   UNK N   1      35.395  10.080  14.121  0.00  0.00     0.013 C 
HETATM    7  C   UNK N   1      35.947  13.798  13.934  0.00  0.00     0.040 C 
HETATM    8  C   UNK N   1      36.066  13.443  12.438  0.00  0.00     0.148 C 
HETATM    9  C   UNK N   1      35.529   9.823  15.635  0.00  0.00     0.010 C 
HETATM   10  C   UNK N   1      34.950  13.435  16.905  0.00  0.00     0.010 C 
HETATM   11  C   UNK N   1      37.568  11.323  14.022  0.00  0.00     0.018 C 
HETATM   12  C   UNK N   1      35.052  10.728  17.958  0.00  0.00    -0.047 A 
HETATM   13  C   UNK N   1      35.281  13.244  18.388  0.00  0.00     0.039 C 
HETATM   14  C   UNK N   1      35.235  11.809  18.856  0.00  0.00    -0.049 A 
HETATM   15  C   UNK N   1      34.970   9.421  18.466  0.00  0.00     0.011 A 
HETATM   16  C   UNK N   1      35.375  11.555  20.225  0.00  0.00     0.044 A 
HETATM   17  C   UNK N   1      35.110   9.182  19.834  0.00  0.00     0.037 A 
HETATM   18  C   UNK N   1      35.321  10.246  20.711  0.00  0.00     0.066 A 
ENDROOT
BRANCH   5  19
HETATM   19  O   UNK N   1      36.517  11.265  11.377  0.00  0.00    -0.392 OA
HETATM   20  H   UNK N   1      36.396  11.298  10.415  0.00  0.00     0.210 HD
ENDBRANCH   5  19
BRANCH   8  21
HETATM   21  O   UNK N   1      37.361  13.738  12.010  0.00  0.00    -0.393 OA
HETATM   22  H   UNK N   1      38.258  13.479  11.745  0.00  0.00     0.210 HD
ENDBRANCH   8  21
BRANCH  18  23
HETATM   23  O   UNK N   1      35.468  10.013  22.025  0.00  0.00    -0.361 OA
HETATM   24  H   UNK N   1      35.079   9.266  22.437  0.00  0.00     0.217 HD
ENDBRANCH  18  23
TORSDOF 3
ENDMDL
MODEL 2
REMARK VINA RESULT:      -7.1     22.376     26.292
REMARK  3 active torsions:
REMARK  status: ('A' for Active; 'I' for Inactive)
REMARK    1  A    between atoms: C_8  and  O_1 
REMARK    2  A    between atoms: C_11  and  O_2 
REMARK    3  A    between atoms: O_3  and  C_21 
ROOT
HETATM    1  C   UNK N   1      26.694  23.009  -7.703  0.00  0.00    -0.011 C 
HETATM    2  C   UNK N   1      27.868  22.185  -8.227  0.00  0.00     0.003 C 
HETATM    3  C   UNK N   1      28.734  21.666  -7.068  0.00  0.00    -0.001 C 
HETATM    4  C   UNK N   1      29.297  22.890  -6.297  0.00  0.00     0.023 C 
HETATM    5  C   UNK N   1      25.992  23.292  -9.019  0.00  0.00     0.155 C 
HETATM    6  C   UNK N   1      27.227  24.236  -6.962  0.00  0.00     0.013 C 
HETATM    7  C   UNK N   1      27.196  21.167  -9.140  0.00  0.00     0.040 C 
HETATM    8  C   UNK N   1      26.039  21.956  -9.787  0.00  0.00     0.148 C 
HETATM    9  C   UNK N   1      28.135  23.782  -5.802  0.00  0.00     0.010 C 
HETATM   10  C   UNK N   1      29.897  20.811  -7.551  0.00  0.00     0.010 C 
HETATM   11  C   UNK N   1      25.768  22.210  -6.767  0.00  0.00     0.018 C 
HETATM   12  C   UNK N   1      30.188  22.435  -5.158  0.00  0.00    -0.047 A 
HETATM   13  C   UNK N   1      30.651  20.218  -6.356  0.00  0.00     0.039 C 
HETATM   14  C   UNK N   1      30.815  21.165  -5.192  0.00  0.00    -0.049 A 
HETATM   15  C   UNK N   1      30.421  23.286  -4.066  0.00  0.00     0.011 A 
HETATM   16  C   UNK N   1      31.618  20.762  -4.119  0.00  0.00     0.044 A 
HETATM   17  C   UNK N   1      31.227  22.872  -3.004  0.00  0.00     0.037 A 
HETATM   18  C   UNK N   1      31.817  21.608  -3.026  0.00  0.00     0.066 A 
ENDROOT
BRANCH   5  19
HETATM   19  O   UNK N   1      24.701  23.808  -8.867  0.00  0.00    -0.392 OA
HETATM   20  H   UNK N   1      23.858  23.410  -9.138  0.00  0.00     0.210 HD
ENDBRANCH   5  19
BRANCH   8  21
HETATM   21  O   UNK N   1      24.856  21.233  -9.620  0.00  0.00    -0.393 OA
HETATM   22  H   UNK N   1      23.937  21.148  -9.324  0.00  0.00     0.210 HD
ENDBRANCH   8  21
BRANCH  18  23
HETATM   23  O   UNK N   1      32.581  21.207  -1.997  0.00  0.00    -0.361 OA
HETATM   24  H   UNK N   1      32.584  21.667  -1.181  0.00  0.00     0.217 HD
ENDBRANCH  18  23
TORSDOF 3
ENDMDL
MODEL 3
REMARK VINA RESULT:      -6.7      7.196     10.403
REMARK  3 active torsions:
REMARK  status: ('A' for Active; 'I' for Inactive)
REMARK    1  A    between atoms: C_8  and  O_1 
REMARK    2  A    between atoms: C_11  and  O_2 
REMARK    3  A    between atoms: O_3  and  C_21 
ROOT
HETATM    1  C   UNK N   1      32.371  15.322   5.119  0.00  0.00    -0.011 C 
HETATM    2  C   UNK N   1      32.517  16.711   5.735  0.00  0.00     0.003 C 
HETATM    3  C   UNK N   1      33.480  16.682   6.932  0.00  0.00    -0.001 C 
HETATM    4  C   UNK N   1      32.892  15.728   8.006  0.00  0.00     0.023 C 
HETATM    5  C   UNK N   1      31.473  15.670   3.947  0.00  0.00     0.155 C 
HETATM    6  C   UNK N   1      31.767  14.371   6.154  0.00  0.00     0.013 C 
HETATM    7  C   UNK N   1      32.876  17.583   4.538  0.00  0.00     0.040 C 
HETATM    8  C   UNK N   1      32.054  16.981   3.381  0.00  0.00     0.148 C 
HETATM    9  C   UNK N   1      32.674  14.323   7.400  0.00  0.00     0.010 C 
HETATM   10  C   UNK N   1      33.677  18.059   7.551  0.00  0.00     0.010 C 
HETATM   11  C   UNK N   1      33.707  14.744   4.614  0.00  0.00     0.018 C 
HETATM   12  C   UNK N   1      33.789  15.687   9.227  0.00  0.00    -0.047 A 
HETATM   13  C   UNK N   1      34.738  17.997   8.656  0.00  0.00     0.039 C 
HETATM   14  C   UNK N   1      34.666  16.761   9.519  0.00  0.00    -0.049 A 
HETATM   15  C   UNK N   1      33.738  14.587  10.099  0.00  0.00     0.011 A 
HETATM   16  C   UNK N   1      35.497  16.690  10.643  0.00  0.00     0.044 A 
HETATM   17  C   UNK N   1      34.571  14.530  11.218  0.00  0.00     0.037 A 
HETATM   18  C   UNK N   1      35.455  15.575  11.484  0.00  0.00     0.066 A 
ENDROOT
BRANCH   5  19
HETATM   19  O   UNK N   1      31.365  14.647   2.999  0.00  0.00    -0.392 OA
HETATM   20  H   UNK N   1      30.626  14.460   2.397  0.00  0.00     0.210 HD
ENDBRANCH   5  19
BRANCH   8  21
HETATM   21  O   UNK N   1      32.910  16.734   2.305  0.00  0.00    -0.393 OA
HETATM   22  H   UNK N   1      33.748  16.852   1.830  0.00  0.00     0.210 HD
ENDBRANCH   8  21
BRANCH  18  23
HETATM   23  O   UNK N   1      36.265  15.513  12.554  0.00  0.00    -0.361 OA
HETATM   24  H   UNK N   1      37.159  15.245  12.476  0.00  0.00     0.217 HD
ENDBRANCH  18  23
TORSDOF 3
ENDMDL
MODEL 4
REMARK VINA RESULT:      -6.7     16.284     19.061
REMARK  3 active torsions:
REMARK  status: ('A' for Active; 'I' for Inactive)
REMARK    1  A    between atoms: C_8  and  O_1 
REMARK    2  A    between atoms: C_11  and  O_2 
REMARK    3  A    between atoms: O_3  and  C_21 
ROOT
HETATM    1  C   UNK N   1      21.293  17.345   3.919  0.00  0.00    -0.011 C 
HETATM    2  C   UNK N   1      21.749  18.783   3.684  0.00  0.00     0.003 C 
HETATM    3  C   UNK N   1      23.275  18.855   3.519  0.00  0.00    -0.001 C 
HETATM    4  C   UNK N   1      23.930  18.339   4.829  0.00  0.00     0.023 C 
HETATM    5  C   UNK N   1      19.793  17.569   3.945  0.00  0.00     0.155 C 
HETATM    6  C   UNK N   1      21.906  16.827   5.222  0.00  0.00     0.013 C 
HETATM    7  C   UNK N   1      20.874  19.237   2.522  0.00  0.00     0.040 C 
HETATM    8  C   UNK N   1      19.520  18.549   2.787  0.00  0.00     0.148 C 
HETATM    9  C   UNK N   1      23.443  16.904   5.133  0.00  0.00     0.010 C 
HETATM   10  C   UNK N   1      23.764  20.271   3.249  0.00  0.00     0.010 C 
HETATM   11  C   UNK N   1      21.670  16.398   2.765  0.00  0.00     0.018 C 
HETATM   12  C   UNK N   1      25.440  18.419   4.734  0.00  0.00    -0.047 A 
HETATM   13  C   UNK N   1      25.270  20.268   2.969  0.00  0.00     0.039 C 
HETATM   14  C   UNK N   1      26.064  19.327   3.843  0.00  0.00    -0.049 A 
HETATM   15  C   UNK N   1      26.239  17.605   5.554  0.00  0.00     0.011 A 
HETATM   16  C   UNK N   1      27.460  19.368   3.762  0.00  0.00     0.044 A 
HETATM   17  C   UNK N   1      27.632  17.658   5.464  0.00  0.00     0.037 A 
HETATM   18  C   UNK N   1      28.241  18.530   4.563  0.00  0.00     0.066 A 
ENDROOT
BRANCH   5  19
HETATM   19  O   UNK N   1      19.047  16.387   3.870  0.00  0.00    -0.392 OA
HETATM   20  H   UNK N   1      18.453  16.095   3.160  0.00  0.00     0.210 HD
ENDBRANCH   5  19
BRANCH   8  21
HETATM   21  O   UNK N   1      19.128  17.872   1.631  0.00  0.00    -0.393 OA
HETATM   22  H   UNK N   1      18.574  17.232   1.157  0.00  0.00     0.210 HD
ENDBRANCH   8  21
BRANCH  18  23
HETATM   23  O   UNK N   1      29.580  18.570   4.468  0.00  0.00    -0.361 OA
HETATM   24  H   UNK N   1      30.095  19.106   5.038  0.00  0.00     0.217 HD
ENDBRANCH  18  23
TORSDOF 3
ENDMDL
MODEL 5
REMARK VINA RESULT:      -6.7     25.817     27.638
REMARK  3 active torsions:
REMARK  status: ('A' for Active; 'I' for Inactive)
REMARK    1  A    between atoms: C_8  and  O_1 
REMARK    2  A    between atoms: C_11  and  O_2 
REMARK    3  A    between atoms: O_3  and  C_21 
ROOT
HETATM    1  C   UNK N   1      26.605  28.309  -4.451  0.00  0.00    -0.011 C 
HETATM    2  C   UNK N   1      27.544  27.335  -3.743  0.00  0.00     0.003 C 
HETATM    3  C   UNK N   1      27.873  26.136  -4.646  0.00  0.00    -0.001 C 
HETATM    4  C   UNK N   1      26.548  25.394  -4.969  0.00  0.00     0.023 C 
HETATM    5  C   UNK N   1      26.541  29.395  -3.392  0.00  0.00     0.155 C 
HETATM    6  C   UNK N   1      25.281  27.605  -4.754  0.00  0.00     0.013 C 
HETATM    7  C   UNK N   1      28.689  28.231  -3.285  0.00  0.00     0.040 C 
HETATM    8  C   UNK N   1      27.995  29.553  -2.902  0.00  0.00     0.148 C 
HETATM    9  C   UNK N   1      25.547  26.367  -5.634  0.00  0.00     0.010 C 
HETATM   10  C   UNK N   1      28.836  25.159  -3.985  0.00  0.00     0.010 C 
HETATM   11  C   UNK N   1      27.195  28.872  -5.757  0.00  0.00     0.018 C 
HETATM   12  C   UNK N   1      26.818  24.179  -5.834  0.00  0.00    -0.047 A 
HETATM   13  C   UNK N   1      29.227  24.052  -4.971  0.00  0.00     0.039 C 
HETATM   14  C   UNK N   1      28.092  23.559  -5.835  0.00  0.00    -0.049 A 
HETATM   15  C   UNK N   1      25.792  23.639  -6.626  0.00  0.00     0.011 A 
HETATM   16  C   UNK N   1      28.320  22.449  -6.656  0.00  0.00     0.044 A 
HETATM   17  C   UNK N   1      26.033  22.530  -7.439  0.00  0.00     0.037 A 
HETATM   18  C   UNK N   1      27.297  21.941  -7.461  0.00  0.00     0.066 A 
ENDROOT
BRANCH   5  19
HETATM   19  O   UNK N   1      25.967  30.588  -3.845  0.00  0.00    -0.392 OA
HETATM   20  H   UNK N   1      26.325  31.488  -3.786  0.00  0.00     0.210 HD
ENDBRANCH   5  19
BRANCH   8  21
HETATM   21  O   UNK N   1      28.640  30.604  -3.557  0.00  0.00    -0.393 OA
HETATM   22  H   UNK N   1      28.750  31.544  -3.772  0.00  0.00     0.210 HD
ENDBRANCH   8  21
BRANCH  18  23
HETATM   23  O   UNK N   1      27.531  20.883  -8.253  0.00  0.00    -0.361 OA
HETATM   24  H   UNK N   1      27.773  20.050  -7.899  0.00  0.00     0.217 HD
ENDBRANCH  18  23
TORSDOF 3
ENDMDL
MODEL 6
REMARK VINA RESULT:      -6.7      6.577     11.482
REMARK  3 active torsions:
REMARK  status: ('A' for Active; 'I' for Inactive)
REMARK    1  A    between atoms: C_8  and  O_1 
REMARK    2  A    between atoms: C_11  and  O_2 
REMARK    3  A    between atoms: O_3  and  C_21 
ROOT
HETATM    1  C   UNK N   1      35.295  13.850   9.207  0.00  0.00    -0.011 C 
HETATM    2  C   UNK N   1      35.307  15.376   9.171  0.00  0.00     0.003 C 
HETATM    3  C   UNK N   1      34.427  15.905   8.027  0.00  0.00    -0.001 C 
HETATM    4  C   UNK N   1      35.005  15.377   6.686  0.00  0.00     0.023 C 
HETATM    5  C   UNK N   1      36.138  13.632  10.449  0.00  0.00     0.155 C 
HETATM    6  C   UNK N   1      35.887  13.309   7.904  0.00  0.00     0.013 C 
HETATM    7  C   UNK N   1      34.941  15.758  10.600  0.00  0.00     0.040 C 
HETATM    8  C   UNK N   1      35.630  14.680  11.460  0.00  0.00     0.148 C 
HETATM    9  C   UNK N   1      35.065  13.833   6.709  0.00  0.00     0.010 C 
HETATM   10  C   UNK N   1      34.388  17.426   7.981  0.00  0.00     0.010 C 
HETATM   11  C   UNK N   1      33.885  13.264   9.409  0.00  0.00     0.018 C 
HETATM   12  C   UNK N   1      34.193  15.897   5.517  0.00  0.00    -0.047 A 
HETATM   13  C   UNK N   1      33.402  17.899   6.907  0.00  0.00     0.039 C 
HETATM   14  C   UNK N   1      33.430  17.085   5.636  0.00  0.00    -0.049 A 
HETATM   15  C   UNK N   1      34.212  15.214   4.291  0.00  0.00     0.011 A 
HETATM   16  C   UNK N   1      32.673  17.533   4.547  0.00  0.00     0.044 A 
HETATM   17  C   UNK N   1      33.454  15.673   3.211  0.00  0.00     0.037 A 
HETATM   18  C   UNK N   1      32.679  16.825   3.342  0.00  0.00     0.066 A 
ENDROOT
BRANCH   5  19
HETATM   19  O   UNK N   1      36.097  12.319  10.932  0.00  0.00    -0.392 OA
HETATM   20  H   UNK N   1      36.641  11.561  10.662  0.00  0.00     0.210 HD
ENDBRANCH   5  19
BRANCH   8  21
HETATM   21  O   UNK N   1      34.687  14.130  12.330  0.00  0.00    -0.393 OA
HETATM   22  H   UNK N   1      33.889  13.610  12.514  0.00  0.00     0.210 HD
ENDBRANCH   8  21
BRANCH  18  23
HETATM   23  O   UNK N   1      31.941  17.258   2.308  0.00  0.00    -0.361 OA
HETATM   24  H   UNK N   1      32.276  17.884   1.695  0.00  0.00     0.217 HD
ENDBRANCH  18  23
TORSDOF 3
ENDMDL
MODEL 7
REMARK VINA RESULT:      -6.6      1.772      3.489
REMARK  3 active torsions:
REMARK  status: ('A' for Active; 'I' for Inactive)
REMARK    1  A    between atoms: C_8  and  O_1 
REMARK    2  A    between atoms: C_11  and  O_2 
REMARK    3  A    between atoms: O_3  and  C_21 
ROOT
HETATM    1  C   UNK N   1      35.319  10.670  12.761  0.00  0.00    -0.011 C 
HETATM    2  C   UNK N   1      36.181   9.906  13.763  0.00  0.00     0.003 C 
HETATM    3  C   UNK N   1      35.787  10.259  15.207  0.00  0.00    -0.001 C 
HETATM    4  C   UNK N   1      36.021  11.779  15.415  0.00  0.00     0.023 C 
HETATM    5  C   UNK N   1      35.851  10.066  11.475  0.00  0.00     0.155 C 
HETATM    6  C   UNK N   1      35.556  12.172  12.932  0.00  0.00     0.013 C 
HETATM    7  C   UNK N   1      36.038   8.459  13.308  0.00  0.00     0.040 C 
HETATM    8  C   UNK N   1      35.977   8.558  11.771  0.00  0.00     0.148 C 
HETATM    9  C   UNK N   1      35.209  12.586  14.376  0.00  0.00     0.010 C 
HETATM   10  C   UNK N   1      36.604   9.489  16.235  0.00  0.00     0.010 C 
HETATM   11  C   UNK N   1      33.815  10.371  12.908  0.00  0.00     0.018 C 
HETATM   12  C   UNK N   1      35.679  12.178  16.837  0.00  0.00    -0.047 A 
HETATM   13  C   UNK N   1      36.089   9.783  17.648  0.00  0.00     0.039 C 
HETATM   14  C   UNK N   1      35.704  11.223  17.884  0.00  0.00    -0.049 A 
HETATM   15  C   UNK N   1      35.359  13.513  17.134  0.00  0.00     0.011 A 
HETATM   16  C   UNK N   1      35.366  11.614  19.184  0.00  0.00     0.044 A 
HETATM   17  C   UNK N   1      35.026  13.889  18.437  0.00  0.00     0.037 A 
HETATM   18  C   UNK N   1      35.020  12.939  19.458  0.00  0.00     0.066 A 
ENDROOT
BRANCH   5  19
HETATM   19  O   UNK N   1      35.068  10.355  10.352  0.00  0.00    -0.392 OA
HETATM   20  H   UNK N   1      34.213   9.972  10.100  0.00  0.00     0.210 HD
ENDBRANCH   5  19
BRANCH   8  21
HETATM   21  O   UNK N   1      34.857   7.856  11.321  0.00  0.00    -0.393 OA
HETATM   22  H   UNK N   1      34.395   7.037  11.084  0.00  0.00     0.210 HD
ENDBRANCH   8  21
BRANCH  18  23
HETATM   23  O   UNK N   1      34.687  13.300  20.708  0.00  0.00    -0.361 OA
HETATM   24  H   UNK N   1      33.923  12.958  21.129  0.00  0.00     0.217 HD
ENDBRANCH  18  23
TORSDOF 3
ENDMDL
MODEL 8
REMARK VINA RESULT:      -6.6      9.693     13.654
REMARK  3 active torsions:
REMARK  status: ('A' for Active; 'I' for Inactive)
REMARK    1  A    between atoms: C_8  and  O_1 
REMARK    2  A    between atoms: C_11  and  O_2 
REMARK    3  A    between atoms: O_3  and  C_21 
ROOT
HETATM    1  C   UNK N   1      32.075  16.799   8.405  0.00  0.00    -0.011 C 
HETATM    2  C   UNK N   1      31.460  16.016   7.247  0.00  0.00     0.003 C 
HETATM    3  C   UNK N   1      30.624  16.937   6.345  0.00  0.00    -0.001 C 
HETATM    4  C   UNK N   1      29.475  17.539   7.197  0.00  0.00     0.023 C 
HETATM    5  C   UNK N   1      32.890  15.688   9.041  0.00  0.00     0.155 C 
HETATM    6  C   UNK N   1      30.957  17.377   9.274  0.00  0.00     0.013 C 
HETATM    7  C   UNK N   1      32.660  15.301   6.638  0.00  0.00     0.040 C 
HETATM    8  C   UNK N   1      33.537  14.944   7.855  0.00  0.00     0.148 C 
HETATM    9  C   UNK N   1      30.059  18.290   8.416  0.00  0.00     0.010 C 
HETATM   10  C   UNK N   1      30.022  16.197   5.159  0.00  0.00     0.010 C 
HETATM   11  C   UNK N   1      33.000  17.938   7.937  0.00  0.00     0.018 C 
HETATM   12  C   UNK N   1      28.596  18.434   6.346  0.00  0.00    -0.047 A 
HETATM   13  C   UNK N   1      29.307  17.181   4.227  0.00  0.00     0.039 C 
HETATM   14  C   UNK N   1      28.532  18.262   4.941  0.00  0.00    -0.049 A 
HETATM   15  C   UNK N   1      27.812  19.429   6.952  0.00  0.00     0.011 A 
HETATM   16  C   UNK N   1      27.727  19.114   4.176  0.00  0.00     0.044 A 
HETATM   17  C   UNK N   1      27.011  20.270   6.177  0.00  0.00     0.037 A 
HETATM   18  C   UNK N   1      26.976  20.119   4.791  0.00  0.00     0.066 A 
ENDROOT
BRANCH   5  19
HETATM   19  O   UNK N   1      33.812  16.141   9.991  0.00  0.00    -0.392 OA
HETATM   20  H   UNK N   1      33.645  16.671  10.787  0.00  0.00     0.210 HD
ENDBRANCH   5  19
BRANCH   8  21
HETATM   21  O   UNK N   1      34.836  15.397   7.619  0.00  0.00    -0.393 OA
HETATM   22  H   UNK N   1      35.471  16.020   7.232  0.00  0.00     0.210 HD
ENDBRANCH   8  21
BRANCH  18  23
HETATM   23  O   UNK N   1      26.216  20.938   4.046  0.00  0.00    -0.361 OA
HETATM   24  H   UNK N   1      25.365  21.209   4.330  0.00  0.00     0.217 HD
ENDBRANCH  18  23
TORSDOF 3
ENDMDL
MODEL 9
REMARK VINA RESULT:      -6.5      1.885      3.891
REMARK  3 active torsions:
REMARK  status: ('A' for Active; 'I' for Inactive)
REMARK    1  A    between atoms: C_8  and  O_1 
REMARK    2  A    between atoms: C_11  and  O_2 
REMARK    3  A    between atoms: O_3  and  C_21 
ROOT
HETATM    1  C   UNK N   1      36.379  13.534  11.336  0.00  0.00    -0.011 C 
HETATM    2  C   UNK N   1      37.423  12.570  11.897  0.00  0.00     0.003 C 
HETATM    3  C   UNK N   1      36.935  11.937  13.209  0.00  0.00    -0.001 C 
HETATM    4  C   UNK N   1      36.710  13.073  14.243  0.00  0.00     0.023 C 
HETATM    5  C   UNK N   1      37.073  13.914  10.041  0.00  0.00     0.155 C 
HETATM    6  C   UNK N   1      36.163  14.678  12.329  0.00  0.00     0.013 C 
HETATM    7  C   UNK N   1      37.715  11.653  10.715  0.00  0.00     0.040 C 
HETATM    8  C   UNK N   1      37.636  12.587   9.491  0.00  0.00     0.148 C 
HETATM    9  C   UNK N   1      35.702  14.103  13.683  0.00  0.00     0.010 C 
HETATM   10  C   UNK N   1      37.937  10.943  13.780  0.00  0.00     0.010 C 
HETATM   11  C   UNK N   1      35.030  12.854  11.039  0.00  0.00     0.018 C 
HETATM   12  C   UNK N   1      36.259  12.500  15.571  0.00  0.00    -0.047 A 
HETATM   13  C   UNK N   1      37.351  10.250  15.015  0.00  0.00     0.039 C 
HETATM   14  C   UNK N   1      36.558  11.160  15.922  0.00  0.00    -0.049 A 
HETATM   15  C   UNK N   1      35.558  13.307  16.482  0.00  0.00     0.011 A 
HETATM   16  C   UNK N   1      36.113  10.650  17.147  0.00  0.00     0.044 A 
HETATM   17  C   UNK N   1      35.122  12.786  17.702  0.00  0.00     0.037 A 
HETATM   18  C   UNK N   1      35.391  11.457  18.029  0.00  0.00     0.066 A 
ENDROOT
BRANCH   5  19
HETATM   19  O   UNK N   1      36.245  14.590   9.138  0.00  0.00    -0.392 OA
HETATM   20  H   UNK N   1      35.402  14.296   8.758  0.00  0.00     0.210 HD
ENDBRANCH   5  19
BRANCH   8  21
HETATM   21  O   UNK N   1      36.774  12.021   8.551  0.00  0.00    -0.393 OA
HETATM   22  H   UNK N   1      36.563  11.714   7.655  0.00  0.00     0.210 HD
ENDBRANCH   8  21
BRANCH  18  23
HETATM   23  O   UNK N   1      34.960  10.954  19.197  0.00  0.00    -0.361 OA
HETATM   24  H   UNK N   1      34.056  10.991  19.443  0.00  0.00     0.217 HD
ENDBRANCH  18  23
TORSDOF 3
ENDMDL
