MODEL 1
REMARK VINA RESULT:      -8.1      0.000      0.000
REMARK  5 active torsions:
REMARK  status: ('A' for Active; 'I' for Inactive)
REMARK    1  A    between atoms: N_5  and  C_13 
REMARK    2  A    between atoms: N_6  and  C_15 
REMARK    3  A    between atoms: N_7  and  C_14 
REMARK    4  A    between atoms: C_13  and  C_14 
REMARK    5  A    between atoms: C_21  and  C_28 
ROOT
HETATM    1  N   UNK N   1      34.081  15.428  10.111  0.00  0.00     0.093 N 
HETATM    2  N   UNK N   1      33.501  16.656   7.895  0.00  0.00    -0.377 N 
HETATM    3  C   UNK N   1      34.844  16.678   9.933  0.00  0.00     0.292 C 
HETATM    4  C   UNK N   1      34.214  14.578   8.921  0.00  0.00     0.292 C 
HETATM    5  C   UNK N   1      34.250  17.520   8.784  0.00  0.00     0.153 C 
HETATM    6  C   UNK N   1      34.048  15.350   7.612  0.00  0.00     0.153 C 
ENDROOT
BRANCH   1   7
HETATM    7  C   UNK N   1      34.527  14.578  11.223  0.00  0.00     0.292 C 
BRANCH   7   8
HETATM    8  C   UNK N   1      35.851  14.946  11.891  0.00  0.00     0.164 C 
BRANCH   8   9
HETATM    9  N   UNK N   1      36.536  13.749  12.374  0.00  0.00    -0.296 N 
HETATM   10  C   UNK N   1      36.381  13.160  13.568  0.00  0.00     0.065 A 
HETATM   11  C   UNK N   1      37.190  12.058  13.632  0.00  0.00     0.063 A 
HETATM   12  C   UNK N   1      35.551  13.532  14.622  0.00  0.00     0.032 A 
HETATM   13  N   UNK N   1      37.879  11.916  12.482  0.00  0.00    -0.306 N 
HETATM   14  C   UNK N   1      37.234  11.242  14.757  0.00  0.00     0.032 A 
HETATM   15  C   UNK N   1      37.452  12.970  11.724  0.00  0.00     0.327 A 
HETATM   16  H   UNK N   1      38.532  11.220  12.245  0.00  0.00     0.171 HD
HETATM   17  O   UNK N   1      37.852  13.189  10.594  0.00  0.00    -0.246 OA
HETATM   18  C   UNK N   1      36.407  11.589  15.844  0.00  0.00     0.002 A 
HETATM   19  C   UNK N   1      35.570  12.728  15.776  0.00  0.00     0.002 A 
ENDBRANCH   8   9
ENDBRANCH   7   8
ENDBRANCH   1   7
BRANCH   2  20
HETATM   20  C   UNK N   1      32.147  16.937   7.553  0.00  0.00     0.030 A 
HETATM   21  C   UNK N   1      31.257  17.350   8.552  0.00  0.00     0.045 A 
HETATM   22  C   UNK N   1      29.943  17.705   8.251  0.00  0.00     0.050 A 
HETATM   23  C   UNK N   1      29.495  17.616   6.925  0.00  0.00     0.016 A 
HETATM   24  C   UNK N   1      30.368  17.189   5.916  0.00  0.00     0.003 A 
HETATM   25  C   UNK N   1      31.697  16.869   6.224  0.00  0.00     0.029 A 
BRANCH  22  26
HETATM   26  C   UNK N   1      29.041  18.225   9.331  0.00  0.00     0.417 C 
HETATM   27  F   UNK N   1      28.444  17.172   9.996  0.00  0.00    -0.166 F 
HETATM   28  F   UNK N   1      28.062  19.021   8.764  0.00  0.00    -0.166 F 
HETATM   29  F   UNK N   1      29.750  18.988  10.246  0.00  0.00    -0.166 F 
ENDBRANCH  22  26
ENDBRANCH   2  20
TORSDOF 5
ENDMDL
MODEL 2
REMARK VINA RESULT:      -8.0      5.549      7.658
REMARK  5 active torsions:
REMARK  status: ('A' for Active; 'I' for Inactive)
REMARK    1  A    between atoms: N_5  and  C_13 
REMARK    2  A    between atoms: N_6  and  C_15 
REMARK    3  A    between atoms: N_7  and  C_14 
REMARK    4  A    between atoms: C_13  and  C_14 
REMARK    5  A    between atoms: C_21  and  C_28 
ROOT
HETATM    1  N   UNK N   1      30.663  17.646   7.833  0.00  0.00     0.093 N 
HETATM    2  N   UNK N   1      28.162  17.777   7.137  0.00  0.00    -0.377 N 
HETATM    3  C   UNK N   1      30.224  16.471   7.056  0.00  0.00     0.292 C 
HETATM    4  C   UNK N   1      29.754  17.876   8.963  0.00  0.00     0.292 C 
HETATM    5  C   UNK N   1      28.850  16.733   6.403  0.00  0.00     0.153 C 
HETATM    6  C   UNK N   1      28.279  17.772   8.575  0.00  0.00     0.153 C 
ENDROOT
BRANCH   1   7
HETATM    7  C   UNK N   1      31.992  17.525   8.447  0.00  0.00     0.292 C 
BRANCH   7   8
HETATM    8  C   UNK N   1      33.185  18.012   7.625  0.00  0.00     0.164 C 
BRANCH   8   9
HETATM    9  N   UNK N   1      33.716  16.933   6.797  0.00  0.00    -0.296 N 
HETATM   10  C   UNK N   1      33.485  16.729   5.493  0.00  0.00     0.065 A 
HETATM   11  C   UNK N   1      34.175  15.620   5.083  0.00  0.00     0.063 A 
HETATM   12  C   UNK N   1      32.697  17.476   4.621  0.00  0.00     0.032 A 
HETATM   13  N   UNK N   1      34.864  15.091   6.113  0.00  0.00    -0.306 N 
HETATM   14  C   UNK N   1      34.128  15.170   3.768  0.00  0.00     0.032 A 
HETATM   15  C   UNK N   1      34.566  15.923   7.156  0.00  0.00     0.327 A 
HETATM   16  H   UNK N   1      35.443  14.295   6.114  0.00  0.00     0.171 HD
HETATM   17  O   UNK N   1      35.009  15.773   8.280  0.00  0.00    -0.246 OA
HETATM   18  C   UNK N   1      33.340  15.901   2.857  0.00  0.00     0.002 A 
HETATM   19  C   UNK N   1      32.628  17.048   3.282  0.00  0.00     0.002 A 
ENDBRANCH   8   9
ENDBRANCH   7   8
ENDBRANCH   1   7
BRANCH   2  20
HETATM   20  C   UNK N   1      27.651  18.932   6.479  0.00  0.00     0.030 A 
HETATM   21  C   UNK N   1      26.928  18.782   5.288  0.00  0.00     0.045 A 
HETATM   22  C   UNK N   1      26.348  19.877   4.650  0.00  0.00     0.050 A 
HETATM   23  C   UNK N   1      26.520  21.158   5.193  0.00  0.00     0.016 A 
HETATM   24  C   UNK N   1      27.255  21.327   6.374  0.00  0.00     0.003 A 
HETATM   25  C   UNK N   1      27.802  20.216   7.028  0.00  0.00     0.029 A 
BRANCH  22  26
HETATM   26  C   UNK N   1      25.508  19.671   3.424  0.00  0.00     0.417 C 
HETATM   27  F   UNK N   1      24.178  19.900   3.718  0.00  0.00    -0.166 F 
HETATM   28  F   UNK N   1      25.662  18.370   2.980  0.00  0.00    -0.166 F 
HETATM   29  F   UNK N   1      25.896  20.529   2.407  0.00  0.00    -0.166 F 
ENDBRANCH  22  26
ENDBRANCH   2  20
TORSDOF 5
ENDMDL
MODEL 3
REMARK VINA RESULT:      -7.9      3.775      8.879
REMARK  5 active torsions:
REMARK  status: ('A' for Active; 'I' for Inactive)
REMARK    1  A    between atoms: N_5  and  C_13 
REMARK    2  A    between atoms: N_6  and  C_15 
REMARK    3  A    between atoms: N_7  and  C_14 
REMARK    4  A    between atoms: C_13  and  C_14 
REMARK    5  A    between atoms: C_21  and  C_28 
ROOT
HETATM    1  N   UNK N   1      34.039  14.812   9.910  0.00  0.00     0.093 N 
HETATM    2  N   UNK N   1      36.016  14.289  11.514  0.00  0.00    -0.377 N 
HETATM    3  C   UNK N   1      35.111  14.033   9.262  0.00  0.00     0.292 C 
HETATM    4  C   UNK N   1      34.599  16.006  10.555  0.00  0.00     0.292 C 
HETATM    5  C   UNK N   1      36.096  13.481  10.314  0.00  0.00     0.153 C 
HETATM    6  C   UNK N   1      35.870  15.716  11.353  0.00  0.00     0.153 C 
ENDROOT
BRANCH   1   7
HETATM    7  C   UNK N   1      33.009  15.332   9.001  0.00  0.00     0.292 C 
BRANCH   7   8
HETATM    8  C   UNK N   1      33.059  16.824   8.676  0.00  0.00     0.164 C 
BRANCH   8   9
HETATM    9  N   UNK N   1      32.649  17.067   7.295  0.00  0.00    -0.296 N 
HETATM   10  C   UNK N   1      31.396  17.114   6.823  0.00  0.00     0.065 A 
HETATM   11  C   UNK N   1      31.433  17.376   5.480  0.00  0.00     0.063 A 
HETATM   12  C   UNK N   1      30.199  16.947   7.513  0.00  0.00     0.032 A 
HETATM   13  N   UNK N   1      32.708  17.504   5.063  0.00  0.00    -0.306 N 
HETATM   14  C   UNK N   1      30.273  17.490   4.721  0.00  0.00     0.032 A 
HETATM   15  C   UNK N   1      33.436  17.312   6.204  0.00  0.00     0.327 A 
HETATM   16  H   UNK N   1      33.037  17.691   4.155  0.00  0.00     0.171 HD
HETATM   17  O   UNK N   1      34.653  17.353   6.237  0.00  0.00    -0.246 OA
HETATM   18  C   UNK N   1      29.042  17.326   5.386  0.00  0.00     0.002 A 
HETATM   19  C   UNK N   1      29.005  17.056   6.776  0.00  0.00     0.002 A 
ENDBRANCH   8   9
ENDBRANCH   7   8
ENDBRANCH   1   7
BRANCH   2  20
HETATM   20  C   UNK N   1      35.780  13.699  12.790  0.00  0.00     0.030 A 
HETATM   21  C   UNK N   1      34.954  12.572  12.885  0.00  0.00     0.045 A 
HETATM   22  C   UNK N   1      34.754  11.921  14.101  0.00  0.00     0.050 A 
HETATM   23  C   UNK N   1      35.367  12.424  15.257  0.00  0.00     0.016 A 
HETATM   24  C   UNK N   1      36.182  13.560  15.182  0.00  0.00     0.003 A 
HETATM   25  C   UNK N   1      36.407  14.186  13.949  0.00  0.00     0.029 A 
BRANCH  22  26
HETATM   26  C   UNK N   1      33.932  10.667  14.153  0.00  0.00     0.417 C 
HETATM   27  F   UNK N   1      34.696   9.620  14.630  0.00  0.00    -0.166 F 
HETATM   28  F   UNK N   1      33.484  10.363  12.880  0.00  0.00    -0.166 F 
HETATM   29  F   UNK N   1      32.830  10.829  14.977  0.00  0.00    -0.166 F 
ENDBRANCH  22  26
ENDBRANCH   2  20
TORSDOF 5
ENDMDL
MODEL 4
REMARK VINA RESULT:      -7.9      9.640     11.149
REMARK  5 active torsions:
REMARK  status: ('A' for Active; 'I' for Inactive)
REMARK    1  A    between atoms: N_5  and  C_13 
REMARK    2  A    between atoms: N_6  and  C_15 
REMARK    3  A    between atoms: N_7  and  C_14 
REMARK    4  A    between atoms: C_13  and  C_14 
REMARK    5  A    between atoms: C_21  and  C_28 
ROOT
HETATM    1  N   UNK N   1      23.077  16.242   5.946  0.00  0.00     0.093 N 
HETATM    2  N   UNK N   1      24.176  17.737   4.126  0.00  0.00    -0.377 N 
HETATM    3  C   UNK N   1      23.123  15.591   4.623  0.00  0.00     0.292 C 
HETATM    4  C   UNK N   1      22.465  17.572   5.837  0.00  0.00     0.292 C 
HETATM    5  C   UNK N   1      24.051  16.369   3.666  0.00  0.00     0.153 C 
HETATM    6  C   UNK N   1      22.993  18.378   4.650  0.00  0.00     0.153 C 
ENDROOT
BRANCH   1   7
HETATM    7  C   UNK N   1      22.268  15.545   6.955  0.00  0.00     0.292 C 
BRANCH   7   8
HETATM    8  C   UNK N   1      22.347  14.019   6.977  0.00  0.00     0.164 C 
BRANCH   8   9
HETATM    9  N   UNK N   1      23.167  13.560   8.095  0.00  0.00    -0.296 N 
HETATM   10  C   UNK N   1      22.732  13.066   9.263  0.00  0.00     0.065 A 
HETATM   11  C   UNK N   1      23.810  12.739  10.040  0.00  0.00     0.063 A 
HETATM   12  C   UNK N   1      21.422  12.873   9.693  0.00  0.00     0.032 A 
HETATM   13  N   UNK N   1      24.957  13.014   9.388  0.00  0.00    -0.306 N 
HETATM   14  C   UNK N   1      23.662  12.194  11.311  0.00  0.00     0.032 A 
HETATM   15  C   UNK N   1      24.530  13.515   8.190  0.00  0.00     0.327 A 
HETATM   16  H   UNK N   1      25.882  12.884   9.700  0.00  0.00     0.171 HD
HETATM   17  O   UNK N   1      25.286  13.883   7.309  0.00  0.00    -0.246 OA
HETATM   18  C   UNK N   1      22.350  11.985  11.780  0.00  0.00     0.002 A 
HETATM   19  C   UNK N   1      21.236  12.323  10.975  0.00  0.00     0.002 A 
ENDBRANCH   8   9
ENDBRANCH   7   8
ENDBRANCH   1   7
BRANCH   2  20
HETATM   20  C   UNK N   1      25.451  18.332   4.348  0.00  0.00     0.030 A 
HETATM   21  C   UNK N   1      25.557  19.432   5.209  0.00  0.00     0.045 A 
HETATM   22  C   UNK N   1      26.794  19.999   5.510  0.00  0.00     0.050 A 
HETATM   23  C   UNK N   1      27.951  19.479   4.913  0.00  0.00     0.016 A 
HETATM   24  C   UNK N   1      27.861  18.390   4.037  0.00  0.00     0.003 A 
HETATM   25  C   UNK N   1      26.617  17.804   3.769  0.00  0.00     0.029 A 
BRANCH  22  26
HETATM   26  C   UNK N   1      26.882  21.121   6.502  0.00  0.00     0.417 C 
HETATM   27  F   UNK N   1      28.119  21.728   6.422  0.00  0.00    -0.166 F 
HETATM   28  F   UNK N   1      26.702  20.617   7.777  0.00  0.00    -0.166 F 
HETATM   29  F   UNK N   1      25.901  22.071   6.265  0.00  0.00    -0.166 F 
ENDBRANCH  22  26
ENDBRANCH   2  20
TORSDOF 5
ENDMDL
MODEL 5
REMARK VINA RESULT:      -7.8      4.639      9.201
REMARK  5 active torsions:
REMARK  status: ('A' for Active; 'I' for Inactive)
REMARK    1  A    between atoms: N_5  and  C_13 
REMARK    2  A    between atoms: N_6  and  C_15 
REMARK    3  A    between atoms: N_7  and  C_14 
REMARK    4  A    between atoms: C_13  and  C_14 
REMARK    5  A    between atoms: C_21  and  C_28 
ROOT
HETATM    1  N   UNK N   1      35.625  13.641  10.958  0.00  0.00     0.093 N 
HETATM    2  N   UNK N   1      36.448  12.917  13.314  0.00  0.00    -0.377 N 
HETATM    3  C   UNK N   1      36.996  13.095  10.942  0.00  0.00     0.292 C 
HETATM    4  C   UNK N   1      35.513  14.702  11.967  0.00  0.00     0.292 C 
HETATM    5  C   UNK N   1      37.319  12.397  12.280  0.00  0.00     0.153 C 
HETATM    6  C   UNK N   1      36.162  14.332  13.300  0.00  0.00     0.153 C 
ENDROOT
BRANCH   1   7
HETATM    7  C   UNK N   1      35.193  14.275   9.705  0.00  0.00     0.292 C 
BRANCH   7   8
HETATM    8  C   UNK N   1      33.954  15.169   9.771  0.00  0.00     0.164 C 
BRANCH   8   9
HETATM    9  N   UNK N   1      34.020  16.218   8.755  0.00  0.00    -0.296 N 
HETATM   10  C   UNK N   1      33.452  16.200   7.542  0.00  0.00     0.065 A 
HETATM   11  C   UNK N   1      33.736  17.374   6.897  0.00  0.00     0.063 A 
HETATM   12  C   UNK N   1      32.677  15.202   6.957  0.00  0.00     0.032 A 
HETATM   13  N   UNK N   1      34.490  18.168   7.683  0.00  0.00    -0.306 N 
HETATM   14  C   UNK N   1      33.268  17.640   5.615  0.00  0.00     0.032 A 
HETATM   15  C   UNK N   1      34.646  17.432   8.824  0.00  0.00     0.327 A 
HETATM   16  H   UNK N   1      34.843  19.065   7.483  0.00  0.00     0.171 HD
HETATM   17  O   UNK N   1      35.278  17.818   9.790  0.00  0.00    -0.246 OA
HETATM   18  C   UNK N   1      32.481  16.652   4.991  0.00  0.00     0.002 A 
HETATM   19  C   UNK N   1      32.187  15.439   5.660  0.00  0.00     0.002 A 
ENDBRANCH   8   9
ENDBRANCH   7   8
ENDBRANCH   1   7
BRANCH   2  20
HETATM   20  C   UNK N   1      35.659  12.050  14.125  0.00  0.00     0.030 A 
HETATM   21  C   UNK N   1      35.965  11.912  15.484  0.00  0.00     0.045 A 
HETATM   22  C   UNK N   1      35.177  11.132  16.329  0.00  0.00     0.050 A 
HETATM   23  C   UNK N   1      34.075  10.446  15.799  0.00  0.00     0.016 A 
HETATM   24  C   UNK N   1      33.765  10.561  14.439  0.00  0.00     0.003 A 
HETATM   25  C   UNK N   1      34.541  11.376  13.605  0.00  0.00     0.029 A 
BRANCH  22  26
HETATM   26  C   UNK N   1      35.483  11.074  17.797  0.00  0.00     0.417 C 
HETATM   27  F   UNK N   1      35.490  12.348  18.329  0.00  0.00    -0.166 F 
HETATM   28  F   UNK N   1      36.726  10.495  17.981  0.00  0.00    -0.166 F 
HETATM   29  F   UNK N   1      34.542  10.313  18.471  0.00  0.00    -0.166 F 
ENDBRANCH  22  26
ENDBRANCH   2  20
TORSDOF 5
ENDMDL
MODEL 6
REMARK VINA RESULT:      -7.8      3.227      4.815
REMARK  5 active torsions:
REMARK  status: ('A' for Active; 'I' for Inactive)
REMARK    1  A    between atoms: N_5  and  C_13 
REMARK    2  A    between atoms: N_6  and  C_15 
REMARK    3  A    between atoms: N_7  and  C_14 
REMARK    4  A    between atoms: C_13  and  C_14 
REMARK    5  A    between atoms: C_21  and  C_28 
ROOT
HETATM    1  N   UNK N   1      32.546  15.577   5.529  0.00  0.00     0.093 N 
HETATM    2  N   UNK N   1      30.420  16.796   4.661  0.00  0.00    -0.377 N 
HETATM    3  C   UNK N   1      32.818  16.446   4.368  0.00  0.00     0.292 C 
HETATM    4  C   UNK N   1      31.432  14.667   5.231  0.00  0.00     0.292 C 
HETATM    5  C   UNK N   1      31.619  17.376   4.090  0.00  0.00     0.153 C 
HETATM    6  C   UNK N   1      30.253  15.366   4.554  0.00  0.00     0.153 C 
ENDROOT
BRANCH   1   7
HETATM    7  C   UNK N   1      33.651  14.692   5.918  0.00  0.00     0.292 C 
BRANCH   7   8
HETATM    8  C   UNK N   1      34.982  15.356   6.272  0.00  0.00     0.164 C 
BRANCH   8   9
HETATM    9  N   UNK N   1      34.893  16.039   7.560  0.00  0.00    -0.296 N 
HETATM   10  C   UNK N   1      35.106  15.505   8.771  0.00  0.00     0.065 A 
HETATM   11  C   UNK N   1      34.936  16.473   9.724  0.00  0.00     0.063 A 
HETATM   12  C   UNK N   1      35.456  14.198   9.097  0.00  0.00     0.032 A 
HETATM   13  N   UNK N   1      34.612  17.647   9.145  0.00  0.00    -0.306 N 
HETATM   14  C   UNK N   1      35.102  16.208  11.079  0.00  0.00     0.032 A 
HETATM   15  C   UNK N   1      34.596  17.350   7.811  0.00  0.00     0.327 A 
HETATM   16  H   UNK N   1      34.430  18.511   9.579  0.00  0.00     0.171 HD
HETATM   17  O   UNK N   1      34.342  18.168   6.945  0.00  0.00    -0.246 OA
HETATM   18  C   UNK N   1      35.455  14.895  11.446  0.00  0.00     0.002 A 
HETATM   19  C   UNK N   1      35.632  13.895  10.460  0.00  0.00     0.002 A 
ENDBRANCH   8   9
ENDBRANCH   7   8
ENDBRANCH   1   7
BRANCH   2  20
HETATM   20  C   UNK N   1      29.591  17.534   5.553  0.00  0.00     0.030 A 
HETATM   21  C   UNK N   1      29.689  17.306   6.931  0.00  0.00     0.045 A 
HETATM   22  C   UNK N   1      28.949  18.055   7.845  0.00  0.00     0.050 A 
HETATM   23  C   UNK N   1      28.065  19.036   7.371  0.00  0.00     0.016 A 
HETATM   24  C   UNK N   1      27.943  19.265   5.995  0.00  0.00     0.003 A 
HETATM   25  C   UNK N   1      28.718  18.532   5.087  0.00  0.00     0.029 A 
BRANCH  22  26
HETATM   26  C   UNK N   1      29.141  17.844   9.318  0.00  0.00     0.417 C 
HETATM   27  F   UNK N   1      30.127  16.902   9.535  0.00  0.00    -0.166 F 
HETATM   28  F   UNK N   1      27.954  17.399   9.873  0.00  0.00    -0.166 F 
HETATM   29  F   UNK N   1      29.502  19.025   9.946  0.00  0.00    -0.166 F 
ENDBRANCH  22  26
ENDBRANCH   2  20
TORSDOF 5
ENDMDL
MODEL 7
REMARK VINA RESULT:      -7.8      3.977      8.986
REMARK  5 active torsions:
REMARK  status: ('A' for Active; 'I' for Inactive)
REMARK    1  A    between atoms: N_5  and  C_13 
REMARK    2  A    between atoms: N_6  and  C_15 
REMARK    3  A    between atoms: N_7  and  C_14 
REMARK    4  A    between atoms: C_13  and  C_14 
REMARK    5  A    between atoms: C_21  and  C_28 
ROOT
HETATM    1  N   UNK N   1      35.437  12.254  11.590  0.00  0.00     0.093 N 
HETATM    2  N   UNK N   1      36.816  10.796  13.241  0.00  0.00    -0.377 N 
HETATM    3  C   UNK N   1      35.541  10.846  11.160  0.00  0.00     0.292 C 
HETATM    4  C   UNK N   1      36.771  12.798  11.874  0.00  0.00     0.292 C 
HETATM    5  C   UNK N   1      36.084   9.966  12.306  0.00  0.00     0.153 C 
HETATM    6  C   UNK N   1      37.641  11.849  12.699  0.00  0.00     0.153 C 
ENDROOT
BRANCH   1   7
HETATM    7  C   UNK N   1      34.870  13.170  10.591  0.00  0.00     0.292 C 
BRANCH   7   8
HETATM    8  C   UNK N   1      35.857  14.001   9.772  0.00  0.00     0.164 C 
BRANCH   8   9
HETATM    9  N   UNK N   1      35.348  15.356   9.569  0.00  0.00    -0.296 N 
HETATM   10  C   UNK N   1      34.878  15.877   8.428  0.00  0.00     0.065 A 
HETATM   11  C   UNK N   1      34.486  17.169   8.652  0.00  0.00     0.063 A 
HETATM   12  C   UNK N   1      34.762  15.274   7.178  0.00  0.00     0.032 A 
HETATM   13  N   UNK N   1      34.694  17.503   9.941  0.00  0.00    -0.306 N 
HETATM   14  C   UNK N   1      33.948  17.960   7.643  0.00  0.00     0.032 A 
HETATM   15  C   UNK N   1      35.222  16.364  10.484  0.00  0.00     0.327 A 
HETATM   16  H   UNK N   1      34.509  18.361  10.387  0.00  0.00     0.171 HD
HETATM   17  O   UNK N   1      35.546  16.267  11.653  0.00  0.00    -0.246 OA
HETATM   18  C   UNK N   1      33.816  17.384   6.365  0.00  0.00     0.002 A 
HETATM   19  C   UNK N   1      34.221  16.047   6.134  0.00  0.00     0.002 A 
ENDBRANCH   8   9
ENDBRANCH   7   8
ENDBRANCH   1   7
BRANCH   2  20
HETATM   20  C   UNK N   1      36.513  10.790  14.633  0.00  0.00     0.030 A 
HETATM   21  C   UNK N   1      36.059  11.966  15.243  0.00  0.00     0.045 A 
HETATM   22  C   UNK N   1      35.682  11.987  16.585  0.00  0.00     0.050 A 
HETATM   23  C   UNK N   1      35.790  10.815  17.347  0.00  0.00     0.016 A 
HETATM   24  C   UNK N   1      36.258   9.635  16.756  0.00  0.00     0.003 A 
HETATM   25  C   UNK N   1      36.599   9.615  15.397  0.00  0.00     0.029 A 
BRANCH  22  26
HETATM   26  C   UNK N   1      35.120  13.243  17.186  0.00  0.00     0.417 C 
HETATM   27  F   UNK N   1      33.922  13.562  16.578  0.00  0.00    -0.166 F 
HETATM   28  F   UNK N   1      36.018  14.278  16.999  0.00  0.00    -0.166 F 
HETATM   29  F   UNK N   1      34.905  13.089  18.546  0.00  0.00    -0.166 F 
ENDBRANCH  22  26
ENDBRANCH   2  20
TORSDOF 5
ENDMDL
MODEL 8
REMARK VINA RESULT:      -7.8      6.446      9.909
REMARK  5 active torsions:
REMARK  status: ('A' for Active; 'I' for Inactive)
REMARK    1  A    between atoms: N_5  and  C_13 
REMARK    2  A    between atoms: N_6  and  C_15 
REMARK    3  A    between atoms: N_7  and  C_14 
REMARK    4  A    between atoms: C_13  and  C_14 
REMARK    5  A    between atoms: C_21  and  C_28 
ROOT
HETATM    1  N   UNK N   1      25.852  15.413   6.507  0.00  0.00     0.093 N 
HETATM    2  N   UNK N   1      23.423  14.497   6.386  0.00  0.00    -0.377 N 
HETATM    3  C   UNK N   1      24.988  16.200   5.606  0.00  0.00     0.292 C 
HETATM    4  C   UNK N   1      25.783  13.988   6.160  0.00  0.00     0.292 C 
HETATM    5  C   UNK N   1      23.506  15.822   5.806  0.00  0.00     0.153 C 
HETATM    6  C   UNK N   1      24.355  13.501   5.915  0.00  0.00     0.153 C 
ENDROOT
BRANCH   1   7
HETATM    7  C   UNK N   1      27.283  15.739   6.440  0.00  0.00     0.292 C 
BRANCH   7   8
HETATM    8  C   UNK N   1      27.671  17.205   6.631  0.00  0.00     0.164 C 
BRANCH   8   9
HETATM    9  N   UNK N   1      28.789  17.327   7.564  0.00  0.00    -0.296 N 
HETATM   10  C   UNK N   1      30.094  17.322   7.262  0.00  0.00     0.065 A 
HETATM   11  C   UNK N   1      30.821  17.471   8.412  0.00  0.00     0.063 A 
HETATM   12  C   UNK N   1      30.699  17.200   6.014  0.00  0.00     0.032 A 
HETATM   13  N   UNK N   1      29.999  17.577   9.474  0.00  0.00    -0.306 N 
HETATM   14  C   UNK N   1      32.211  17.509   8.404  0.00  0.00     0.032 A 
HETATM   15  C   UNK N   1      28.752  17.489   8.921  0.00  0.00     0.327 A 
HETATM   16  H   UNK N   1      30.238  17.691  10.422  0.00  0.00     0.171 HD
HETATM   17  O   UNK N   1      27.724  17.545   9.572  0.00  0.00    -0.246 OA
HETATM   18  C   UNK N   1      32.858  17.388   7.158  0.00  0.00     0.002 A 
HETATM   19  C   UNK N   1      32.105  17.235   5.969  0.00  0.00     0.002 A 
ENDBRANCH   8   9
ENDBRANCH   7   8
ENDBRANCH   1   7
BRANCH   2  20
HETATM   20  C   UNK N   1      22.679  14.253   7.576  0.00  0.00     0.030 A 
HETATM   21  C   UNK N   1      23.154  13.320   8.506  0.00  0.00     0.045 A 
HETATM   22  C   UNK N   1      22.497  13.103   9.716  0.00  0.00     0.050 A 
HETATM   23  C   UNK N   1      21.318  13.810   9.992  0.00  0.00     0.016 A 
HETATM   24  C   UNK N   1      20.820  14.734   9.066  0.00  0.00     0.003 A 
HETATM   25  C   UNK N   1      21.508  14.972   7.869  0.00  0.00     0.029 A 
BRANCH  22  26
HETATM   26  C   UNK N   1      23.080  12.159  10.727  0.00  0.00     0.417 C 
HETATM   27  F   UNK N   1      24.431  12.402  10.876  0.00  0.00    -0.166 F 
HETATM   28  F   UNK N   1      22.893  10.858  10.295  0.00  0.00    -0.166 F 
HETATM   29  F   UNK N   1      22.460  12.305  11.958  0.00  0.00    -0.166 F 
ENDBRANCH  22  26
ENDBRANCH   2  20
TORSDOF 5
ENDMDL
MODEL 9
REMARK VINA RESULT:      -7.8      3.562      5.230
REMARK  5 active torsions:
REMARK  status: ('A' for Active; 'I' for Inactive)
REMARK    1  A    between atoms: N_5  and  C_13 
REMARK    2  A    between atoms: N_6  and  C_15 
REMARK    3  A    between atoms: N_7  and  C_14 
REMARK    4  A    between atoms: C_13  and  C_14 
REMARK    5  A    between atoms: C_21  and  C_28 
ROOT
HETATM    1  N   UNK N   1      32.160  15.559   5.897  0.00  0.00     0.093 N 
HETATM    2  N   UNK N   1      29.979  16.812   5.241  0.00  0.00    -0.377 N 
HETATM    3  C   UNK N   1      32.294  16.321   4.640  0.00  0.00     0.292 C 
HETATM    4  C   UNK N   1      30.980  14.686   5.837  0.00  0.00     0.292 C 
HETATM    5  C   UNK N   1      31.104  17.286   4.460  0.00  0.00     0.153 C 
HETATM    6  C   UNK N   1      29.743  15.389   5.279  0.00  0.00     0.153 C 
ENDROOT
BRANCH   1   7
HETATM    7  C   UNK N   1      33.275  14.651   6.197  0.00  0.00     0.292 C 
BRANCH   7   8
HETATM    8  C   UNK N   1      34.657  15.281   6.367  0.00  0.00     0.164 C 
BRANCH   8   9
HETATM    9  N   UNK N   1      34.734  16.030   7.619  0.00  0.00    -0.296 N 
HETATM   10  C   UNK N   1      34.984  15.535   8.839  0.00  0.00     0.065 A 
HETATM   11  C   UNK N   1      34.984  16.559   9.747  0.00  0.00     0.063 A 
HETATM   12  C   UNK N   1      35.228  14.215   9.210  0.00  0.00     0.032 A 
HETATM   13  N   UNK N   1      34.734  17.731   9.130  0.00  0.00    -0.306 N 
HETATM   14  C   UNK N   1      35.224  16.343  11.099  0.00  0.00     0.032 A 
HETATM   15  C   UNK N   1      34.588  17.375   7.818  0.00  0.00     0.327 A 
HETATM   16  H   UNK N   1      34.672  18.629   9.528  0.00  0.00     0.171 HD
HETATM   17  O   UNK N   1      34.351  18.173   6.929  0.00  0.00    -0.246 OA
HETATM   18  C   UNK N   1      35.473  15.019  11.512  0.00  0.00     0.002 A 
HETATM   19  C   UNK N   1      35.476  13.961  10.572  0.00  0.00     0.002 A 
ENDBRANCH   8   9
ENDBRANCH   7   8
ENDBRANCH   1   7
BRANCH   2  20
HETATM   20  C   UNK N   1      29.318  17.658   6.178  0.00  0.00     0.030 A 
HETATM   21  C   UNK N   1      28.456  18.658   5.712  0.00  0.00     0.045 A 
HETATM   22  C   UNK N   1      27.733  19.461   6.594  0.00  0.00     0.050 A 
HETATM   23  C   UNK N   1      27.898  19.283   7.975  0.00  0.00     0.016 A 
HETATM   24  C   UNK N   1      28.769  18.298   8.457  0.00  0.00     0.003 A 
HETATM   25  C   UNK N   1      29.463  17.473   7.563  0.00  0.00     0.029 A 
BRANCH  22  26
HETATM   26  C   UNK N   1      26.754  20.465   6.062  0.00  0.00     0.417 C 
HETATM   27  F   UNK N   1      27.325  21.180   5.027  0.00  0.00    -0.166 F 
HETATM   28  F   UNK N   1      26.397  21.335   7.076  0.00  0.00    -0.166 F 
HETATM   29  F   UNK N   1      25.607  19.842   5.595  0.00  0.00    -0.166 F 
ENDBRANCH  22  26
ENDBRANCH   2  20
TORSDOF 5
ENDMDL
