MODEL 1
REMARK VINA RESULT:      -5.5      0.000      0.000
REMARK  12 active torsions:
REMARK  status: ('A' for Active; 'I' for Inactive)
REMARK    1  A    between atoms: C_9  and  O_1 
REMARK    2  A    between atoms: C_12  and  O_2 
REMARK    3  A    between atoms: C_13  and  O_3 
REMARK    4  A    between atoms: C_14  and  O_4 
REMARK    5  A    between atoms: O_5  and  C_15 
REMARK    6  A    between atoms: O_6  and  C_17 
REMARK    7  A    between atoms: O_7  and  C_18 
REMARK    8  A    between atoms: C_10  and  N_8 
REMARK    9  A    between atoms: N_8  and  C_16 
REMARK   10  A    between atoms: C_9  and  C_15 
REMARK   11  A    between atoms: C_16  and  C_17 
REMARK   12  A    between atoms: C_16  and  C_18 
ROOT
HETATM    1  C   UNK N   1      28.132  17.454   7.270  0.00  0.00     0.109 C 
HETATM    2  C   UNK N   1      30.620  17.166   7.136  0.00  0.00     0.111 C 
HETATM    3  C   UNK N   1      29.267  16.544   6.794  0.00  0.00     0.070 C 
HETATM    4  C   UNK N   1      28.272  17.686   8.788  0.00  0.00     0.185 C 
HETATM    5  C   UNK N   1      30.760  17.294   8.651  0.00  0.00     0.171 C 
HETATM    6  C   UNK N   1      29.660  18.224   9.172  0.00  0.00     0.180 C 
ENDROOT
BRANCH   2   7
HETATM    7  N   UNK N   1      31.696  16.381   6.554  0.00  0.00    -0.406 N 
HETATM    8  H   UNK N   1      31.858  15.382   6.684  0.00  0.00     0.154 HD
BRANCH   7   9
HETATM    9  C   UNK N   1      32.499  17.297   5.748  0.00  0.00     0.124 C 
BRANCH   9  10
HETATM   10  C   UNK N   1      33.982  17.161   6.073  0.00  0.00     0.191 C 
BRANCH  10  11
HETATM   11  O   UNK N   1      34.391  18.141   6.979  0.00  0.00    -0.399 OA
HETATM   12  H   UNK N   1      34.167  18.834   7.620  0.00  0.00     0.209 HD
ENDBRANCH  10  11
ENDBRANCH   9  10
BRANCH   9  13
HETATM   13  C   UNK N   1      32.216  17.142   4.250  0.00  0.00     0.191 C 
BRANCH  13  14
HETATM   14  O   UNK N   1      31.365  18.150   3.792  0.00  0.00    -0.399 OA
HETATM   15  H   UNK N   1      31.211  19.044   3.447  0.00  0.00     0.209 HD
ENDBRANCH  13  14
ENDBRANCH   9  13
ENDBRANCH   7   9
ENDBRANCH   2   7
BRANCH   5  16
HETATM   16  O   UNK N   1      32.011  17.830   8.969  0.00  0.00    -0.391 OA
HETATM   17  H   UNK N   1      32.554  17.744   9.768  0.00  0.00     0.210 HD
ENDBRANCH   5  16
BRANCH   1  18
HETATM   18  O   UNK N   1      26.912  16.816   7.024  0.00  0.00    -0.385 OA
HETATM   19  H   UNK N   1      26.459  16.510   6.223  0.00  0.00     0.210 HD
ENDBRANCH   1  18
BRANCH   1  20
HETATM   20  C   UNK N   1      28.161  18.780   6.500  0.00  0.00     0.204 C 
BRANCH  20  21
HETATM   21  O   UNK N   1      26.924  19.425   6.580  0.00  0.00    -0.398 OA
HETATM   22  H   UNK N   1      26.116  18.968   6.297  0.00  0.00     0.209 HD
ENDBRANCH  20  21
ENDBRANCH   1  20
BRANCH   6  23
HETATM   23  O   UNK N   1      29.753  18.335  10.560  0.00  0.00    -0.390 OA
HETATM   24  H   UNK N   1      30.452  17.862  11.039  0.00  0.00     0.210 HD
ENDBRANCH   6  23
BRANCH   4  25
HETATM   25  O   UNK N   1      27.277  18.551   9.248  0.00  0.00    -0.390 OA
HETATM   26  H   UNK N   1      26.822  18.478  10.102  0.00  0.00     0.210 HD
ENDBRANCH   4  25
TORSDOF 12
ENDMDL
MODEL 2
REMARK VINA RESULT:      -5.4      1.593      2.338
REMARK  12 active torsions:
REMARK  status: ('A' for Active; 'I' for Inactive)
REMARK    1  A    between atoms: C_9  and  O_1 
REMARK    2  A    between atoms: C_12  and  O_2 
REMARK    3  A    between atoms: C_13  and  O_3 
REMARK    4  A    between atoms: C_14  and  O_4 
REMARK    5  A    between atoms: O_5  and  C_15 
REMARK    6  A    between atoms: O_6  and  C_17 
REMARK    7  A    between atoms: O_7  and  C_18 
REMARK    8  A    between atoms: C_10  and  N_8 
REMARK    9  A    between atoms: N_8  and  C_16 
REMARK   10  A    between atoms: C_9  and  C_15 
REMARK   11  A    between atoms: C_16  and  C_17 
REMARK   12  A    between atoms: C_16  and  C_18 
ROOT
HETATM    1  C   UNK N   1      29.173  16.742   6.320  0.00  0.00     0.109 C 
HETATM    2  C   UNK N   1      30.851  17.467   8.037  0.00  0.00     0.111 C 
HETATM    3  C   UNK N   1      30.445  16.351   7.076  0.00  0.00     0.070 C 
HETATM    4  C   UNK N   1      28.051  17.040   7.336  0.00  0.00     0.185 C 
HETATM    5  C   UNK N   1      29.757  17.670   9.083  0.00  0.00     0.171 C 
HETATM    6  C   UNK N   1      28.468  18.094   8.374  0.00  0.00     0.180 C 
ENDROOT
BRANCH   2   7
HETATM    7  N   UNK N   1      32.137  17.165   8.645  0.00  0.00    -0.406 N 
HETATM    8  H   UNK N   1      32.313  16.489   9.389  0.00  0.00     0.154 HD
BRANCH   7   9
HETATM    9  C   UNK N   1      33.126  18.014   7.985  0.00  0.00     0.124 C 
BRANCH   9  10
HETATM   10  C   UNK N   1      34.465  17.964   8.711  0.00  0.00     0.191 C 
BRANCH  10  11
HETATM   11  O   UNK N   1      35.207  19.123   8.480  0.00  0.00    -0.399 OA
HETATM   12  H   UNK N   1      35.984  19.556   8.093  0.00  0.00     0.209 HD
ENDBRANCH  10  11
ENDBRANCH   9  10
BRANCH   9  13
HETATM   13  C   UNK N   1      33.260  17.687   6.494  0.00  0.00     0.191 C 
BRANCH  13  14
HETATM   14  O   UNK N   1      34.585  17.403   6.158  0.00  0.00    -0.399 OA
HETATM   15  H   UNK N   1      35.537  17.582   6.220  0.00  0.00     0.209 HD
ENDBRANCH  13  14
ENDBRANCH   9  13
ENDBRANCH   7   9
ENDBRANCH   2   7
BRANCH   5  16
HETATM   16  O   UNK N   1      30.141  18.666   9.986  0.00  0.00    -0.391 OA
HETATM   17  H   UNK N   1      30.568  19.525   9.840  0.00  0.00     0.210 HD
ENDBRANCH   5  16
BRANCH   1  18
HETATM   18  O   UNK N   1      28.779  15.667   5.519  0.00  0.00    -0.385 OA
HETATM   19  H   UNK N   1      28.728  15.520   4.561  0.00  0.00     0.210 HD
ENDBRANCH   1  18
BRANCH   1  20
HETATM   20  C   UNK N   1      29.445  17.954   5.422  0.00  0.00     0.204 C 
BRANCH  20  21
HETATM   21  O   UNK N   1      28.702  17.872   4.241  0.00  0.00    -0.398 OA
HETATM   22  H   UNK N   1      29.067  17.419   3.465  0.00  0.00     0.209 HD
ENDBRANCH  20  21
ENDBRANCH   1  20
BRANCH   6  23
HETATM   23  O   UNK N   1      27.446  18.260   9.311  0.00  0.00    -0.390 OA
HETATM   24  H   UNK N   1      27.471  17.770  10.148  0.00  0.00     0.210 HD
ENDBRANCH   6  23
BRANCH   4  25
HETATM   25  O   UNK N   1      26.887  17.445   6.679  0.00  0.00    -0.390 OA
HETATM   26  H   UNK N   1      26.402  16.920   6.024  0.00  0.00     0.210 HD
ENDBRANCH   4  25
TORSDOF 12
ENDMDL
MODEL 3
REMARK VINA RESULT:      -5.2      4.416      6.430
REMARK  12 active torsions:
REMARK  status: ('A' for Active; 'I' for Inactive)
REMARK    1  A    between atoms: C_9  and  O_1 
REMARK    2  A    between atoms: C_12  and  O_2 
REMARK    3  A    between atoms: C_13  and  O_3 
REMARK    4  A    between atoms: C_14  and  O_4 
REMARK    5  A    between atoms: O_5  and  C_15 
REMARK    6  A    between atoms: O_6  and  C_17 
REMARK    7  A    between atoms: O_7  and  C_18 
REMARK    8  A    between atoms: C_10  and  N_8 
REMARK    9  A    between atoms: N_8  and  C_16 
REMARK   10  A    between atoms: C_9  and  C_15 
REMARK   11  A    between atoms: C_16  and  C_17 
REMARK   12  A    between atoms: C_16  and  C_18 
ROOT
HETATM    1  C   UNK N   1      33.382  16.015   7.270  0.00  0.00     0.109 C 
HETATM    2  C   UNK N   1      34.315  15.705   9.578  0.00  0.00     0.111 C 
HETATM    3  C   UNK N   1      33.098  15.490   8.679  0.00  0.00     0.070 C 
HETATM    4  C   UNK N   1      33.757  17.509   7.354  0.00  0.00     0.185 C 
HETATM    5  C   UNK N   1      34.598  17.200   9.711  0.00  0.00     0.171 C 
HETATM    6  C   UNK N   1      34.920  17.767   8.325  0.00  0.00     0.180 C 
ENDROOT
BRANCH   2   7
HETATM    7  N   UNK N   1      34.104  15.074  10.870  0.00  0.00    -0.406 N 
HETATM    8  H   UNK N   1      33.371  15.296  11.543  0.00  0.00     0.154 HD
BRANCH   7   9
HETATM    9  C   UNK N   1      35.146  14.060  11.019  0.00  0.00     0.124 C 
BRANCH   9  10
HETATM   10  C   UNK N   1      36.182  14.167   9.906  0.00  0.00     0.191 C 
BRANCH  10  11
HETATM   11  O   UNK N   1      37.366  14.740  10.372  0.00  0.00    -0.399 OA
HETATM   12  H   UNK N   1      37.845  15.230  11.060  0.00  0.00     0.209 HD
ENDBRANCH  10  11
ENDBRANCH   9  10
BRANCH   9  13
HETATM   13  C   UNK N   1      35.784  14.092  12.412  0.00  0.00     0.191 C 
BRANCH  13  14
HETATM   14  O   UNK N   1      36.220  15.378  12.736  0.00  0.00    -0.399 OA
HETATM   15  H   UNK N   1      36.897  16.073  12.736  0.00  0.00     0.209 HD
ENDBRANCH  13  14
ENDBRANCH   9  13
ENDBRANCH   7   9
ENDBRANCH   2   7
BRANCH   5  16
HETATM   16  O   UNK N   1      35.689  17.403  10.561  0.00  0.00    -0.391 OA
HETATM   17  H   UNK N   1      35.985  18.195  11.035  0.00  0.00     0.210 HD
ENDBRANCH   5  16
BRANCH   1  18
HETATM   18  O   UNK N   1      32.222  15.886   6.501  0.00  0.00    -0.385 OA
HETATM   19  H   UNK N   1      31.878  16.340   5.715  0.00  0.00     0.210 HD
ENDBRANCH   1  18
BRANCH   1  20
HETATM   20  C   UNK N   1      34.503  15.198   6.618  0.00  0.00     0.204 C 
BRANCH  20  21
HETATM   21  O   UNK N   1      34.500  15.372   5.231  0.00  0.00    -0.398 OA
HETATM   22  H   UNK N   1      34.549  16.263   4.852  0.00  0.00     0.209 HD
ENDBRANCH  20  21
ENDBRANCH   1  20
BRANCH   6  23
HETATM   23  O   UNK N   1      35.157  19.139   8.420  0.00  0.00    -0.390 OA
HETATM   24  H   UNK N   1      35.996  19.463   8.785  0.00  0.00     0.210 HD
ENDBRANCH   6  23
BRANCH   4  25
HETATM   25  O   UNK N   1      34.067  18.010   6.088  0.00  0.00    -0.390 OA
HETATM   26  H   UNK N   1      34.415  17.488   5.348  0.00  0.00     0.210 HD
ENDBRANCH   4  25
TORSDOF 12
ENDMDL
MODEL 4
REMARK VINA RESULT:      -5.2      2.016      3.419
REMARK  12 active torsions:
REMARK  status: ('A' for Active; 'I' for Inactive)
REMARK    1  A    between atoms: C_9  and  O_1 
REMARK    2  A    between atoms: C_12  and  O_2 
REMARK    3  A    between atoms: C_13  and  O_3 
REMARK    4  A    between atoms: C_14  and  O_4 
REMARK    5  A    between atoms: O_5  and  C_15 
REMARK    6  A    between atoms: O_6  and  C_17 
REMARK    7  A    between atoms: O_7  and  C_18 
REMARK    8  A    between atoms: C_10  and  N_8 
REMARK    9  A    between atoms: N_8  and  C_16 
REMARK   10  A    between atoms: C_9  and  C_15 
REMARK   11  A    between atoms: C_16  and  C_17 
REMARK   12  A    between atoms: C_16  and  C_18 
ROOT
HETATM    1  C   UNK N   1      30.167  16.392   6.135  0.00  0.00     0.109 C 
HETATM    2  C   UNK N   1      31.356  17.173   8.200  0.00  0.00     0.111 C 
HETATM    3  C   UNK N   1      31.146  16.000   7.244  0.00  0.00     0.070 C 
HETATM    4  C   UNK N   1      28.835  16.840   6.770  0.00  0.00     0.185 C 
HETATM    5  C   UNK N   1      30.035  17.528   8.879  0.00  0.00     0.171 C 
HETATM    6  C   UNK N   1      29.029  17.957   7.808  0.00  0.00     0.180 C 
ENDROOT
BRANCH   2   7
HETATM    7  N   UNK N   1      32.396  16.856   9.165  0.00  0.00    -0.406 N 
HETATM    8  H   UNK N   1      32.259  16.554  10.130  0.00  0.00     0.154 HD
BRANCH   7   9
HETATM    9  C   UNK N   1      33.675  17.051   8.487  0.00  0.00     0.124 C 
BRANCH   9  10
HETATM   10  C   UNK N   1      33.824  18.486   7.994  0.00  0.00     0.191 C 
BRANCH  10  11
HETATM   11  O   UNK N   1      35.047  19.030   8.388  0.00  0.00    -0.399 OA
HETATM   12  H   UNK N   1      35.821  19.014   8.974  0.00  0.00     0.209 HD
ENDBRANCH  10  11
ENDBRANCH   9  10
BRANCH   9  13
HETATM   13  C   UNK N   1      34.859  16.608   9.353  0.00  0.00     0.191 C 
BRANCH  13  14
HETATM   14  O   UNK N   1      34.789  17.173  10.628  0.00  0.00    -0.399 OA
HETATM   15  H   UNK N   1      34.459  17.845  11.245  0.00  0.00     0.209 HD
ENDBRANCH  13  14
ENDBRANCH   9  13
ENDBRANCH   7   9
ENDBRANCH   2   7
BRANCH   5  16
HETATM   16  O   UNK N   1      30.231  18.577   9.781  0.00  0.00    -0.391 OA
HETATM   17  H   UNK N   1      29.812  19.450   9.840  0.00  0.00     0.210 HD
ENDBRANCH   5  16
BRANCH   1  18
HETATM   18  O   UNK N   1      29.927  15.273   5.332  0.00  0.00    -0.385 OA
HETATM   19  H   UNK N   1      30.384  14.428   5.197  0.00  0.00     0.210 HD
ENDBRANCH   1  18
BRANCH   1  20
HETATM   20  C   UNK N   1      30.770  17.503   5.267  0.00  0.00     0.204 C 
BRANCH  20  21
HETATM   21  O   UNK N   1      30.182  17.514   3.999  0.00  0.00    -0.398 OA
HETATM   22  H   UNK N   1      29.219  17.581   3.909  0.00  0.00     0.209 HD
ENDBRANCH  20  21
ENDBRANCH   1  20
BRANCH   6  23
HETATM   23  O   UNK N   1      27.804  18.262   8.404  0.00  0.00    -0.390 OA
HETATM   24  H   UNK N   1      27.029  17.704   8.233  0.00  0.00     0.210 HD
ENDBRANCH   6  23
BRANCH   4  25
HETATM   25  O   UNK N   1      27.933  17.249   5.786  0.00  0.00    -0.390 OA
HETATM   26  H   UNK N   1      26.966  17.239   5.872  0.00  0.00     0.210 HD
ENDBRANCH   4  25
TORSDOF 12
ENDMDL
MODEL 5
REMARK VINA RESULT:      -4.9      1.595      5.847
REMARK  12 active torsions:
REMARK  status: ('A' for Active; 'I' for Inactive)
REMARK    1  A    between atoms: C_9  and  O_1 
REMARK    2  A    between atoms: C_12  and  O_2 
REMARK    3  A    between atoms: C_13  and  O_3 
REMARK    4  A    between atoms: C_14  and  O_4 
REMARK    5  A    between atoms: O_5  and  C_15 
REMARK    6  A    between atoms: O_6  and  C_17 
REMARK    7  A    between atoms: O_7  and  C_18 
REMARK    8  A    between atoms: C_10  and  N_8 
REMARK    9  A    between atoms: N_8  and  C_16 
REMARK   10  A    between atoms: C_9  and  C_15 
REMARK   11  A    between atoms: C_16  and  C_17 
REMARK   12  A    between atoms: C_16  and  C_18 
ROOT
HETATM    1  C   UNK N   1      33.249  16.811   7.809  0.00  0.00     0.109 C 
HETATM    2  C   UNK N   1      30.902  17.180   7.005  0.00  0.00     0.111 C 
HETATM    3  C   UNK N   1      31.769  16.535   8.086  0.00  0.00     0.070 C 
HETATM    4  C   UNK N   1      33.611  16.274   6.410  0.00  0.00     0.185 C 
HETATM    5  C   UNK N   1      31.223  16.558   5.649  0.00  0.00     0.171 C 
HETATM    6  C   UNK N   1      32.691  16.835   5.313  0.00  0.00     0.180 C 
ENDROOT
BRANCH   2   7
HETATM    7  N   UNK N   1      29.494  17.048   7.345  0.00  0.00    -0.406 N 
HETATM    8  H   UNK N   1      28.937  16.195   7.307  0.00  0.00     0.154 HD
BRANCH   7   9
HETATM    9  C   UNK N   1      29.033  18.373   7.752  0.00  0.00     0.124 C 
BRANCH   9  10
HETATM   10  C   UNK N   1      27.900  18.861   6.855  0.00  0.00     0.191 C 
BRANCH  10  11
HETATM   11  O   UNK N   1      27.177  19.885   7.469  0.00  0.00    -0.399 OA
HETATM   12  H   UNK N   1      26.897  20.814   7.492  0.00  0.00     0.209 HD
ENDBRANCH  10  11
ENDBRANCH   9  10
BRANCH   9  13
HETATM   13  C   UNK N   1      28.660  18.421   9.237  0.00  0.00     0.191 C 
BRANCH  13  14
HETATM   14  O   UNK N   1      27.400  17.863   9.459  0.00  0.00    -0.399 OA
HETATM   15  H   UNK N   1      26.752  17.422  10.030  0.00  0.00     0.209 HD
ENDBRANCH  13  14
ENDBRANCH   9  13
ENDBRANCH   7   9
ENDBRANCH   2   7
BRANCH   5  16
HETATM   16  O   UNK N   1      30.407  17.119   4.663  0.00  0.00    -0.391 OA
HETATM   17  H   UNK N   1      29.441  17.172   4.593  0.00  0.00     0.210 HD
ENDBRANCH   5  16
BRANCH   1  18
HETATM   18  O   UNK N   1      34.017  16.135   8.762  0.00  0.00    -0.385 OA
HETATM   19  H   UNK N   1      34.305  15.215   8.868  0.00  0.00     0.210 HD
ENDBRANCH   1  18
BRANCH   1  20
HETATM   20  C   UNK N   1      33.535  18.313   7.920  0.00  0.00     0.204 C 
BRANCH  20  21
HETATM   21  O   UNK N   1      34.911  18.556   7.916  0.00  0.00    -0.398 OA
HETATM   22  H   UNK N   1      35.251  19.441   8.121  0.00  0.00     0.209 HD
ENDBRANCH  20  21
ENDBRANCH   1  20
BRANCH   6  23
HETATM   23  O   UNK N   1      33.014  16.252   4.087  0.00  0.00    -0.390 OA
HETATM   24  H   UNK N   1      32.668  16.631   3.263  0.00  0.00     0.210 HD
ENDBRANCH   6  23
BRANCH   4  25
HETATM   25  O   UNK N   1      34.945  16.551   6.107  0.00  0.00    -0.390 OA
HETATM   26  H   UNK N   1      35.678  15.919   6.175  0.00  0.00     0.210 HD
ENDBRANCH   4  25
TORSDOF 12
ENDMDL
MODEL 6
REMARK VINA RESULT:      -4.8      5.386      7.978
REMARK  12 active torsions:
REMARK  status: ('A' for Active; 'I' for Inactive)
REMARK    1  A    between atoms: C_9  and  O_1 
REMARK    2  A    between atoms: C_12  and  O_2 
REMARK    3  A    between atoms: C_13  and  O_3 
REMARK    4  A    between atoms: C_14  and  O_4 
REMARK    5  A    between atoms: O_5  and  C_15 
REMARK    6  A    between atoms: O_6  and  C_17 
REMARK    7  A    between atoms: O_7  and  C_18 
REMARK    8  A    between atoms: C_10  and  N_8 
REMARK    9  A    between atoms: N_8  and  C_16 
REMARK   10  A    between atoms: C_9  and  C_15 
REMARK   11  A    between atoms: C_16  and  C_17 
REMARK   12  A    between atoms: C_16  and  C_18 
ROOT
HETATM    1  C   UNK N   1      37.240  13.567  10.611  0.00  0.00     0.109 C 
HETATM    2  C   UNK N   1      35.269  14.970   9.950  0.00  0.00     0.111 C 
HETATM    3  C   UNK N   1      36.792  14.924  10.064  0.00  0.00     0.070 C 
HETATM    4  C   UNK N   1      36.571  13.326  11.979  0.00  0.00     0.185 C 
HETATM    5  C   UNK N   1      34.644  14.821  11.336  0.00  0.00     0.171 C 
HETATM    6  C   UNK N   1      35.041  13.459  11.913  0.00  0.00     0.180 C 
ENDROOT
BRANCH   2   7
HETATM    7  N   UNK N   1      34.850  16.197   9.293  0.00  0.00    -0.406 N 
HETATM    8  H   UNK N   1      35.017  17.149   9.620  0.00  0.00     0.154 HD
BRANCH   7   9
HETATM    9  C   UNK N   1      34.145  15.804   8.076  0.00  0.00     0.124 C 
BRANCH   9  10
HETATM   10  C   UNK N   1      32.635  15.825   8.283  0.00  0.00     0.191 C 
BRANCH  10  11
HETATM   11  O   UNK N   1      32.252  16.898   9.091  0.00  0.00    -0.399 OA
HETATM   12  H   UNK N   1      31.646  17.633   9.274  0.00  0.00     0.209 HD
ENDBRANCH  10  11
ENDBRANCH   9  10
BRANCH   9  13
HETATM   13  C   UNK N   1      34.577  16.639   6.866  0.00  0.00     0.191 C 
BRANCH  13  14
HETATM   14  O   UNK N   1      34.583  18.001   7.171  0.00  0.00    -0.399 OA
HETATM   15  H   UNK N   1      34.303  18.754   7.715  0.00  0.00     0.209 HD
ENDBRANCH  13  14
ENDBRANCH   9  13
ENDBRANCH   7   9
ENDBRANCH   2   7
BRANCH   5  16
HETATM   16  O   UNK N   1      33.252  14.898  11.240  0.00  0.00    -0.391 OA
HETATM   17  H   UNK N   1      32.623  14.392  10.702  0.00  0.00     0.210 HD
ENDBRANCH   5  16
BRANCH   1  18
HETATM   18  O   UNK N   1      38.627  13.590  10.788  0.00  0.00    -0.385 OA
HETATM   19  H   UNK N   1      39.382  13.327  10.239  0.00  0.00     0.210 HD
ENDBRANCH   1  18
BRANCH   1  20
HETATM   20  C   UNK N   1      36.887  12.455   9.616  0.00  0.00     0.204 C 
BRANCH  20  21
HETATM   21  O   UNK N   1      37.546  12.651   8.400  0.00  0.00    -0.398 OA
HETATM   22  H   UNK N   1      37.472  13.499   7.936  0.00  0.00     0.209 HD
ENDBRANCH  20  21
ENDBRANCH   1  20
BRANCH   6  23
HETATM   23  O   UNK N   1      34.501  13.313  13.192  0.00  0.00    -0.390 OA
HETATM   24  H   UNK N   1      34.830  12.614  13.780  0.00  0.00     0.210 HD
ENDBRANCH   6  23
BRANCH   4  25
HETATM   25  O   UNK N   1      36.923  12.073  12.486  0.00  0.00    -0.390 OA
HETATM   26  H   UNK N   1      36.401  11.261  12.386  0.00  0.00     0.210 HD
ENDBRANCH   4  25
TORSDOF 12
ENDMDL
MODEL 7
REMARK VINA RESULT:      -4.7      2.761      5.846
REMARK  12 active torsions:
REMARK  status: ('A' for Active; 'I' for Inactive)
REMARK    1  A    between atoms: C_9  and  O_1 
REMARK    2  A    between atoms: C_12  and  O_2 
REMARK    3  A    between atoms: C_13  and  O_3 
REMARK    4  A    between atoms: C_14  and  O_4 
REMARK    5  A    between atoms: O_5  and  C_15 
REMARK    6  A    between atoms: O_6  and  C_17 
REMARK    7  A    between atoms: O_7  and  C_18 
REMARK    8  A    between atoms: C_10  and  N_8 
REMARK    9  A    between atoms: N_8  and  C_16 
REMARK   10  A    between atoms: C_9  and  C_15 
REMARK   11  A    between atoms: C_16  and  C_17 
REMARK   12  A    between atoms: C_16  and  C_18 
ROOT
HETATM    1  C   UNK N   1      33.156  14.446   8.878  0.00  0.00     0.109 C 
HETATM    2  C   UNK N   1      32.708  16.899   8.606  0.00  0.00     0.111 C 
HETATM    3  C   UNK N   1      32.073  15.527   8.827  0.00  0.00     0.070 C 
HETATM    4  C   UNK N   1      33.967  14.481   7.567  0.00  0.00     0.185 C 
HETATM    5  C   UNK N   1      33.423  16.924   7.257  0.00  0.00     0.171 C 
HETATM    6  C   UNK N   1      34.540  15.876   7.270  0.00  0.00     0.180 C 
ENDROOT
BRANCH   2   7
HETATM    7  N   UNK N   1      31.700  17.942   8.707  0.00  0.00    -0.406 N 
HETATM    8  H   UNK N   1      31.867  18.936   8.860  0.00  0.00     0.154 HD
BRANCH   7   9
HETATM    9  C   UNK N   1      30.402  17.290   8.546  0.00  0.00     0.124 C 
BRANCH   9  10
HETATM   10  C   UNK N   1      29.516  17.522   9.765  0.00  0.00     0.191 C 
BRANCH  10  11
HETATM   11  O   UNK N   1      29.728  18.790  10.309  0.00  0.00    -0.399 OA
HETATM   12  H   UNK N   1      29.400  19.682  10.506  0.00  0.00     0.209 HD
ENDBRANCH  10  11
ENDBRANCH   9  10
BRANCH   9  13
HETATM   13  C   UNK N   1      29.712  17.697   7.240  0.00  0.00     0.191 C 
BRANCH  13  14
HETATM   14  O   UNK N   1      28.395  18.097   7.470  0.00  0.00    -0.399 OA
HETATM   15  H   UNK N   1      27.443  17.915   7.505  0.00  0.00     0.209 HD
ENDBRANCH  13  14
ENDBRANCH   9  13
ENDBRANCH   7   9
ENDBRANCH   2   7
BRANCH   5  16
HETATM   16  O   UNK N   1      33.975  18.189   7.034  0.00  0.00    -0.391 OA
HETATM   17  H   UNK N   1      34.693  18.474   6.448  0.00  0.00     0.210 HD
ENDBRANCH   5  16
BRANCH   1  18
HETATM   18  O   UNK N   1      32.538  13.197   8.991  0.00  0.00    -0.385 OA
HETATM   19  H   UNK N   1      31.942  12.794   9.641  0.00  0.00     0.210 HD
ENDBRANCH   1  18
BRANCH   1  20
HETATM   20  C   UNK N   1      34.060  14.662  10.097  0.00  0.00     0.204 C 
BRANCH  20  21
HETATM   21  O   UNK N   1      33.297  14.828  11.256  0.00  0.00    -0.398 OA
HETATM   22  H   UNK N   1      33.387  15.634  11.788  0.00  0.00     0.209 HD
ENDBRANCH  20  21
ENDBRANCH   1  20
BRANCH   6  23
HETATM   23  O   UNK N   1      35.191  15.863   6.036  0.00  0.00    -0.390 OA
HETATM   24  H   UNK N   1      35.017  15.149   5.402  0.00  0.00     0.210 HD
ENDBRANCH   6  23
BRANCH   4  25
HETATM   25  O   UNK N   1      34.995  13.536   7.599  0.00  0.00    -0.390 OA
HETATM   26  H   UNK N   1      34.873  12.574   7.562  0.00  0.00     0.210 HD
ENDBRANCH   4  25
TORSDOF 12
ENDMDL
MODEL 8
REMARK VINA RESULT:      -4.7      4.876      7.572
REMARK  12 active torsions:
REMARK  status: ('A' for Active; 'I' for Inactive)
REMARK    1  A    between atoms: C_9  and  O_1 
REMARK    2  A    between atoms: C_12  and  O_2 
REMARK    3  A    between atoms: C_13  and  O_3 
REMARK    4  A    between atoms: C_14  and  O_4 
REMARK    5  A    between atoms: O_5  and  C_15 
REMARK    6  A    between atoms: O_6  and  C_17 
REMARK    7  A    between atoms: O_7  and  C_18 
REMARK    8  A    between atoms: C_10  and  N_8 
REMARK    9  A    between atoms: N_8  and  C_16 
REMARK   10  A    between atoms: C_9  and  C_15 
REMARK   11  A    between atoms: C_16  and  C_17 
REMARK   12  A    between atoms: C_16  and  C_18 
ROOT
HETATM    1  C   UNK N   1      36.558  14.980  10.283  0.00  0.00     0.109 C 
HETATM    2  C   UNK N   1      34.705  14.164   8.803  0.00  0.00     0.111 C 
HETATM    3  C   UNK N   1      35.444  15.398   9.320  0.00  0.00     0.070 C 
HETATM    4  C   UNK N   1      35.946  14.170  11.443  0.00  0.00     0.185 C 
HETATM    5  C   UNK N   1      34.035  13.440   9.968  0.00  0.00     0.171 C 
HETATM    6  C   UNK N   1      35.116  12.975  10.948  0.00  0.00     0.180 C 
ENDROOT
BRANCH   2   7
HETATM    7  N   UNK N   1      33.748  14.545   7.777  0.00  0.00    -0.406 N 
HETATM    8  H   UNK N   1      33.308  13.925   7.096  0.00  0.00     0.154 HD
BRANCH   7   9
HETATM    9  C   UNK N   1      33.539  15.985   7.907  0.00  0.00     0.124 C 
BRANCH   9  10
HETATM   10  C   UNK N   1      33.726  16.692   6.570  0.00  0.00     0.191 C 
BRANCH  10  11
HETATM   11  O   UNK N   1      34.454  17.873   6.721  0.00  0.00    -0.399 OA
HETATM   12  H   UNK N   1      34.478  18.821   6.927  0.00  0.00     0.209 HD
ENDBRANCH  10  11
ENDBRANCH   9  10
BRANCH   9  13
HETATM   13  C   UNK N   1      32.191  16.314   8.555  0.00  0.00     0.191 C 
BRANCH  13  14
HETATM   14  O   UNK N   1      32.134  17.652   8.950  0.00  0.00    -0.399 OA
HETATM   15  H   UNK N   1      32.104  18.337   9.636  0.00  0.00     0.209 HD
ENDBRANCH  13  14
ENDBRANCH   9  13
ENDBRANCH   7   9
ENDBRANCH   2   7
BRANCH   5  16
HETATM   16  O   UNK N   1      33.328  12.331   9.495  0.00  0.00    -0.391 OA
HETATM   17  H   UNK N   1      32.793  12.213   8.695  0.00  0.00     0.210 HD
ENDBRANCH   5  16
BRANCH   1  18
HETATM   18  O   UNK N   1      37.154  16.132  10.805  0.00  0.00    -0.385 OA
HETATM   19  H   UNK N   1      36.817  16.924  11.252  0.00  0.00     0.210 HD
ENDBRANCH   1  18
BRANCH   1  20
HETATM   20  C   UNK N   1      37.623  14.167   9.538  0.00  0.00     0.204 C 
BRANCH  20  21
HETATM   21  O   UNK N   1      38.845  14.217  10.212  0.00  0.00    -0.398 OA
HETATM   22  H   UNK N   1      38.871  14.159  11.180  0.00  0.00     0.209 HD
ENDBRANCH  20  21
ENDBRANCH   1  20
BRANCH   6  23
HETATM   23  O   UNK N   1      34.524  12.331  12.035  0.00  0.00    -0.390 OA
HETATM   24  H   UNK N   1      33.586  12.085  12.002  0.00  0.00     0.210 HD
ENDBRANCH   6  23
BRANCH   4  25
HETATM   25  O   UNK N   1      36.943  13.734  12.318  0.00  0.00    -0.390 OA
HETATM   26  H   UNK N   1      37.810  14.154  12.434  0.00  0.00     0.210 HD
ENDBRANCH   4  25
TORSDOF 12
ENDMDL
MODEL 9
REMARK VINA RESULT:      -4.7      6.446      8.882
REMARK  12 active torsions:
REMARK  status: ('A' for Active; 'I' for Inactive)
REMARK    1  A    between atoms: C_9  and  O_1 
REMARK    2  A    between atoms: C_12  and  O_2 
REMARK    3  A    between atoms: C_13  and  O_3 
REMARK    4  A    between atoms: C_14  and  O_4 
REMARK    5  A    between atoms: O_5  and  C_15 
REMARK    6  A    between atoms: O_6  and  C_17 
REMARK    7  A    between atoms: O_7  and  C_18 
REMARK    8  A    between atoms: C_10  and  N_8 
REMARK    9  A    between atoms: N_8  and  C_16 
REMARK   10  A    between atoms: C_9  and  C_15 
REMARK   11  A    between atoms: C_16  and  C_17 
REMARK   12  A    between atoms: C_16  and  C_18 
ROOT
HETATM    1  C   UNK N   1      34.765  15.821  10.252  0.00  0.00     0.109 C 
HETATM    2  C   UNK N   1      36.181  14.360  11.717  0.00  0.00     0.111 C 
HETATM    3  C   UNK N   1      35.651  15.776  11.499  0.00  0.00     0.070 C 
HETATM    4  C   UNK N   1      35.578  15.336   9.035  0.00  0.00     0.185 C 
HETATM    5  C   UNK N   1      37.057  13.950  10.535  0.00  0.00     0.171 C 
HETATM    6  C   UNK N   1      36.203  13.951   9.264  0.00  0.00     0.180 C 
ENDROOT
BRANCH   2   7
HETATM    7  N   UNK N   1      36.898  14.280  12.979  0.00  0.00    -0.406 N 
HETATM    8  H   UNK N   1      37.890  14.470  13.128  0.00  0.00     0.154 HD
BRANCH   7   9
HETATM    9  C   UNK N   1      35.926  13.876  13.992  0.00  0.00     0.124 C 
BRANCH   9  10
HETATM   10  C   UNK N   1      35.133  12.656  13.538  0.00  0.00     0.191 C 
BRANCH  10  11
HETATM   11  O   UNK N   1      34.184  12.287  14.493  0.00  0.00    -0.399 OA
HETATM   12  H   UNK N   1      33.853  11.643  15.139  0.00  0.00     0.209 HD
ENDBRANCH  10  11
ENDBRANCH   9  10
BRANCH   9  13
HETATM   13  C   UNK N   1      36.578  13.669  15.363  0.00  0.00     0.191 C 
BRANCH  13  14
HETATM   14  O   UNK N   1      37.632  14.562  15.560  0.00  0.00    -0.399 OA
HETATM   15  H   UNK N   1      38.553  14.837  15.425  0.00  0.00     0.209 HD
ENDBRANCH  13  14
ENDBRANCH   9  13
ENDBRANCH   7   9
ENDBRANCH   2   7
BRANCH   5  16
HETATM   16  O   UNK N   1      37.573  12.668  10.748  0.00  0.00    -0.391 OA
HETATM   17  H   UNK N   1      37.276  11.953  11.331  0.00  0.00     0.210 HD
ENDBRANCH   5  16
BRANCH   1  18
HETATM   18  O   UNK N   1      34.370  17.144  10.030  0.00  0.00    -0.385 OA
HETATM   19  H   UNK N   1      33.970  17.613   9.281  0.00  0.00     0.210 HD
ENDBRANCH   1  18
BRANCH   1  20
HETATM   20  C   UNK N   1      33.513  14.961  10.463  0.00  0.00     0.204 C 
BRANCH  20  21
HETATM   21  O   UNK N   1      32.413  15.520   9.807  0.00  0.00    -0.398 OA
HETATM   22  H   UNK N   1      31.523  15.165   9.958  0.00  0.00     0.209 HD
ENDBRANCH  20  21
ENDBRANCH   1  20
BRANCH   6  23
HETATM   23  O   UNK N   1      36.990  13.603   8.165  0.00  0.00    -0.390 OA
HETATM   24  H   UNK N   1      36.808  12.785   7.677  0.00  0.00     0.210 HD
ENDBRANCH   6  23
BRANCH   4  25
HETATM   25  O   UNK N   1      34.784  15.322   7.886  0.00  0.00    -0.390 OA
HETATM   26  H   UNK N   1      35.104  15.153   6.986  0.00  0.00     0.210 HD
ENDBRANCH   4  25
TORSDOF 12
ENDMDL
