REMARK  30 active torsions:
REMARK  status: ('A' for Active; 'I' for Inactive)
REMARK    1  A    between atoms: C_43  and  O_5 
REMARK    2  A    between atoms: C_46  and  O_5 
REMARK    3  A    between atoms: C_41  and  O_6 
REMARK    4  A    between atoms: C_47  and  O_8 
REMARK    5  A    between atoms: C_48  and  O_9 
REMARK    6  A    between atoms: O_9  and  C_61 
REMARK    7  A    between atoms: C_50  and  O_10 
REMARK    8  A    between atoms: C_59  and  O_12 
REMARK    9  A    between atoms: C_65  and  O_12 
REMARK   10  A    between atoms: C_54  and  O_13 
REMARK   11  A    between atoms: O_14  and  C_55 
REMARK   12  A    between atoms: O_21  and  C_103 
REMARK   13  A    between atoms: O_23  and  C_107 
REMARK   14  A    between atoms: C_111  and  O_24 
REMARK   15  A    between atoms: O_25  and  C_112 
REMARK   16  A    between atoms: O_26  and  C_115 
REMARK   17  A    between atoms: C_40  and  N_30 
REMARK   18  A    between atoms: N_30  and  C_52 
REMARK   19  A    between atoms: C_53  and  N_31 
REMARK   20  A    between atoms: C_113  and  N_37 
REMARK       I    between atoms: N_37  and  C_119 
REMARK       I    between atoms: N_38  and  C_118 
REMARK   21  A    between atoms: C_120  and  N_39 
REMARK   22  A    between atoms: C_51  and  C_55 
REMARK   23  A    between atoms: C_52  and  C_56 
REMARK   24  A    between atoms: C_71  and  C_78 
REMARK   25  A    between atoms: C_87  and  C_103 
REMARK   26  A    between atoms: C_99  and  C_114 
REMARK   27  A    between atoms: C_114  and  C_118 
REMARK   28  A    between atoms: C_119  and  C_120 
REMARK   29  A    between atoms: C_120  and  C_121 
REMARK   30  A    between atoms: C_121  and  C_122 
ROOT
HETATM    1 Cl   UNK N   1       6.340   0.956   3.325  0.00  0.00    -0.081 Cl
HETATM    2 Cl   UNK N   1      15.413   1.647  -2.266  0.00  0.00    -0.081 Cl
HETATM    3  O   UNK N   1       8.606   1.059   1.307  0.00  0.00    -0.306 OA
HETATM    4  O   UNK N   1      13.073   0.857  -0.522  0.00  0.00    -0.306 OA
HETATM    5  O   UNK N   1       2.032  -3.452   0.440  0.00  0.00    -0.271 OA
HETATM    6  O   UNK N   1       6.527  -3.093   1.691  0.00  0.00    -0.271 OA
HETATM    7  O   UNK N   1      10.433  -3.912   2.774  0.00  0.00    -0.271 OA
HETATM    8  O   UNK N   1      12.748  -5.031   1.152  0.00  0.00    -0.271 OA
HETATM    9  O   UNK N   1      15.286  -4.750   0.674  0.00  0.00    -0.271 OA
HETATM   10  N   UNK N   1       5.594  -3.391  -0.314  0.00  0.00    -0.343 N 
HETATM   11  N   UNK N   1       3.227  -5.201  -0.146  0.00  0.00    -0.341 N 
HETATM   12  N   UNK N   1       8.796  -4.098   1.326  0.00  0.00    -0.342 N 
HETATM   13  N   UNK N   1      11.500  -3.950  -0.361  0.00  0.00    -0.342 N 
HETATM   14  N   UNK N   1      14.475  -5.010  -1.413  0.00  0.00    -0.345 N 
HETATM   15  C   UNK N   1      10.884   1.077   0.478  0.00  0.00     0.139 C 
HETATM   16  C   UNK N   1       4.052  -1.512  -0.662  0.00  0.00     0.189 C 
HETATM   17  C   UNK N   1       4.289  -2.852   0.114  0.00  0.00     0.210 C 
HETATM   18  C   UNK N   1       9.701   0.397   0.855  0.00  0.00     0.113 C 
HETATM   19  C   UNK N   1      11.875   0.322  -0.185  0.00  0.00     0.113 C 
HETATM   20  C   UNK N   1       5.099  -0.524  -0.226  0.00  0.00    -0.025 A 
HETATM   21  C   UNK N   1       9.629  -0.994   0.758  0.00  0.00     0.050 C 
HETATM   22  C   UNK N   1      10.650  -1.710   0.176  0.00  0.00    -0.021 C 
HETATM   23  C   UNK N   1      11.704  -1.038  -0.370  0.00  0.00     0.050 C 
HETATM   24  C   UNK N   1       3.126  -3.864   0.106  0.00  0.00     0.244 C 
HETATM   25  C   UNK N   1      10.974  -3.072   0.658  0.00  0.00     0.210 C 
HETATM   26  C   UNK N   1       5.146  -0.089   1.113  0.00  0.00     0.036 A 
HETATM   27  C   UNK N   1       6.173  -0.289  -1.070  0.00  0.00     0.012 A 
HETATM   28  C   UNK N   1       7.406   0.658   0.803  0.00  0.00     0.098 A 
HETATM   29  C   UNK N   1       6.286   0.522   1.627  0.00  0.00     0.068 A 
HETATM   30  C   UNK N   1       7.315   0.304  -0.561  0.00  0.00     0.040 A 
HETATM   31  C   UNK N   1       6.668  -3.452   0.529  0.00  0.00     0.245 C 
HETATM   32  C   UNK N   1       8.062  -3.973   0.091  0.00  0.00     0.210 C 
HETATM   33  C   UNK N   1      10.041  -3.716   1.635  0.00  0.00     0.246 C 
HETATM   34  C   UNK N   1       4.412  -5.934  -0.509  0.00  0.00     0.217 C 
HETATM   35  C   UNK N   1      14.202   0.133  -0.316  0.00  0.00     0.098 C 
HETATM   36  C   UNK N   1       8.104  -5.379  -0.412  0.00  0.00    -0.025 A 
HETATM   37  C   UNK N   1       4.465  -7.359   0.089  0.00  0.00    -0.009 A 
HETATM   38  C   UNK N   1      12.437  -4.872  -0.021  0.00  0.00     0.241 C 
HETATM   39  C   UNK N   1       7.028  -6.166  -0.154  0.00  0.00     0.025 A 
HETATM   40  C   UNK N   1       5.683  -8.161   0.155  0.00  0.00     0.019 A 
HETATM   41  C   UNK N   1       7.017  -7.540  -0.229  0.00  0.00     0.011 A 
HETATM   42  C   UNK N   1      13.186  -5.606  -1.080  0.00  0.00     0.185 C 
HETATM   43  C   UNK N   1      15.341   0.360  -1.086  0.00  0.00     0.068 C 
HETATM   44  C   UNK N   1      14.207  -0.900   0.644  0.00  0.00     0.040 C 
HETATM   45  C   UNK N   1       9.311  -5.986  -0.777  0.00  0.00     0.012 A 
HETATM   46  C   UNK N   1       3.257  -7.912   0.525  0.00  0.00     0.047 A 
HETATM   47  C   UNK N   1      16.333  -1.629  -0.119  0.00  0.00    -0.025 C 
HETATM   48  C   UNK N   1       8.262  -8.171  -0.565  0.00  0.00     0.076 A 
HETATM   49  C   UNK N   1       9.383  -7.377  -0.866  0.00  0.00     0.038 A 
HETATM   50  C   UNK N   1      16.401  -0.535  -0.994  0.00  0.00     0.036 C 
HETATM   51  C   UNK N   1      15.249  -1.785   0.728  0.00  0.00     0.012 C 
HETATM   52  C   UNK N   1      17.301  -2.740  -0.240  0.00  0.00     0.183 C 
HETATM   53  C   UNK N   1       5.570  -9.492   0.655  0.00  0.00     0.080 A 
HETATM   54  C   UNK N   1      16.660  -3.892  -1.059  0.00  0.00     0.210 C 
HETATM   55  C   UNK N   1       3.191  -9.210   1.007  0.00  0.00     0.069 A 
HETATM   56  C   UNK N   1      15.421  -4.578  -0.527  0.00  0.00     0.244 C 
HETATM   57  C   UNK N   1       4.335  -9.991   1.063  0.00  0.00     0.074 A 
HETATM   58  H   UNK N   1       5.694  -3.719  -1.237  0.00  0.00     0.163 HD
HETATM   59  H   UNK N   1       2.396  -5.723  -0.071  0.00  0.00     0.163 HD
HETATM   60  H   UNK N   1       8.303  -4.533   2.059  0.00  0.00     0.163 HD
HETATM   61  H   UNK N   1      11.182  -3.882  -1.290  0.00  0.00     0.163 HD
HETATM   62  H   UNK N   1      14.684  -4.909  -2.369  0.00  0.00     0.163 HD
ENDROOT
BRANCH  15  63
HETATM   63  O   UNK N   1      11.033   2.386   0.772  0.00  0.00    -0.312 OA
BRANCH  63  64
HETATM   64  C   UNK N   1      12.022   3.260   0.332  0.00  0.00     0.298 C 
HETATM   65  O   UNK N   1      13.301   2.928   0.824  0.00  0.00    -0.348 OA
HETATM   66  C   UNK N   1      14.208   3.982   0.548  0.00  0.00     0.179 C 
HETATM   67  C   UNK N   1      14.288   4.306  -0.969  0.00  0.00     0.180 C 
HETATM   68  C   UNK N   1      12.919   4.559  -1.580  0.00  0.00     0.183 C 
HETATM   69  C   UNK N   1      12.037   3.383  -1.219  0.00  0.00     0.211 C 
BRANCH  66  70
HETATM   70  C   UNK N   1      15.579   3.515   1.033  0.00  0.00     0.198 C 
BRANCH  70  71
HETATM   71  O   UNK N   1      16.560   4.486   0.822  0.00  0.00    -0.398 OA
HETATM   72  H   UNK N   1      17.485   4.233   0.675  0.00  0.00     0.209 HD
ENDBRANCH  70  71
ENDBRANCH  66  70
BRANCH  67  73
HETATM   73  O   UNK N   1      15.102   5.414  -1.210  0.00  0.00    -0.390 OA
HETATM   74  H   UNK N   1      16.052   5.309  -1.377  0.00  0.00     0.210 HD
ENDBRANCH  67  73
BRANCH  68  75
HETATM   75  O   UNK N   1      12.377   5.745  -1.072  0.00  0.00    -0.390 OA
HETATM   76  H   UNK N   1      12.901   6.481  -0.720  0.00  0.00     0.210 HD
ENDBRANCH  68  75
BRANCH  69  77
HETATM   77  O   UNK N   1      10.788   3.440  -1.885  0.00  0.00    -0.348 OA
BRANCH  77  78
HETATM   78  C   UNK N   1       9.905   4.142  -1.073  0.00  0.00     0.263 C 
HETATM   79  O   UNK N   1       9.466   5.363  -1.581  0.00  0.00    -0.354 OA
HETATM   80  C   UNK N   1       9.326   6.096  -0.394  0.00  0.00     0.151 C 
HETATM   81  C   UNK N   1       8.176   5.568   0.489  0.00  0.00     0.174 C 
HETATM   82  C   UNK N   1       9.277   7.588  -0.631  0.00  0.00     0.042 C 
HETATM   83  C   UNK N   1       7.679   4.153   0.021  0.00  0.00     0.055 C 
HETATM   84  C   UNK N   1       8.809   3.287  -0.473  0.00  0.00     0.093 C 
HETATM   85  C   UNK N   1       6.791   4.277  -1.215  0.00  0.00     0.041 C 
BRANCH  81  86
HETATM   86  O   UNK N   1       8.614   5.555   1.816  0.00  0.00    -0.391 OA
HETATM   87  H   UNK N   1       8.758   5.288   2.737  0.00  0.00     0.210 HD
ENDBRANCH  81  86
BRANCH  83  88
HETATM   88  N   UNK N   1       6.985   3.401   1.080  0.00  0.00    -0.406 N 
HETATM   89  H   UNK N   1       7.170   2.412   1.247  0.00  0.00     0.154 HD
BRANCH  88  90
HETATM   90  C   UNK N   1       6.021   4.148   1.876  0.00  0.00     0.153 C 
BRANCH  90  91
HETATM   91  C   UNK N   1       5.069   4.845   1.001  0.00  0.00    -0.041 C 
HETATM   92  C   UNK N   1       3.986   4.179   0.422  0.00  0.00     0.009 C 
HETATM   93  C   UNK N   1       3.097   4.903  -0.370  0.00  0.00     0.013 C 
HETATM   94  C   UNK N   1       3.343   6.264  -0.638  0.00  0.00    -0.026 C 
HETATM   95  C   UNK N   1       4.511   6.860  -0.156  0.00  0.00     0.013 C 
HETATM   96  C   UNK N   1       5.352   6.162   0.669  0.00  0.00     0.009 C 
BRANCH  94  97
HETATM   97  C   UNK N   1       2.215   7.181  -0.818  0.00  0.00    -0.026 A 
HETATM   98  C   UNK N   1       0.958   6.713  -0.413  0.00  0.00     0.014 A 
HETATM   99  C   UNK N   1       0.032   7.594   0.136  0.00  0.00     0.024 A 
HETATM  100  C   UNK N   1       0.358   8.945   0.279  0.00  0.00     0.034 A 
HETATM  101 Cl   UNK N   1      -0.682   9.996   1.202  0.00  0.00    -0.084 Cl
HETATM  102  C   UNK N   1       1.558   9.439  -0.229  0.00  0.00     0.024 A 
HETATM  103  C   UNK N   1       2.485   8.562  -0.771  0.00  0.00     0.014 A 
ENDBRANCH  94  97
ENDBRANCH  90  91
ENDBRANCH  88  90
ENDBRANCH  83  88
ENDBRANCH  77  78
ENDBRANCH  69  77
ENDBRANCH  63  64
ENDBRANCH  15  63
BRANCH  16 104
HETATM  104  O   UNK N   1       2.739  -0.981  -0.710  0.00  0.00    -0.349 OA
BRANCH 104 105
HETATM  105  C   UNK N   1       2.298  -0.497   0.545  0.00  0.00     0.263 C 
HETATM  106  O   UNK N   1       1.076  -1.100   0.914  0.00  0.00    -0.354 OA
HETATM  107  C   UNK N   1       0.149  -0.869  -0.125  0.00  0.00     0.151 C 
HETATM  108  C   UNK N   1      -0.269   0.606  -0.129  0.00  0.00     0.174 C 
HETATM  109  C   UNK N   1      -1.035  -1.803   0.020  0.00  0.00     0.042 C 
HETATM  110  C   UNK N   1       0.982   1.479  -0.368  0.00  0.00     0.052 C 
HETATM  111  C   UNK N   1       2.132   1.038   0.553  0.00  0.00     0.093 C 
HETATM  112  C   UNK N   1       1.430   1.367  -1.817  0.00  0.00     0.041 C 
BRANCH 108 113
HETATM  113  O   UNK N   1      -0.865   0.920   1.097  0.00  0.00    -0.391 OA
HETATM  114  H   UNK N   1      -0.883   1.387   1.947  0.00  0.00     0.210 HD
ENDBRANCH 108 113
BRANCH 110 115
HETATM  115  N   UNK N   1       0.661   2.872  -0.107  0.00  0.00    -0.420 N 
HETATM  116  H   UNK N   1       1.395   3.556   0.075  0.00  0.00     0.150 HD
HETATM  117  H   UNK N   1      -0.314   3.171  -0.107  0.00  0.00     0.150 HD
ENDBRANCH 110 115
ENDBRANCH 104 105
ENDBRANCH  16 104
BRANCH  42 118
HETATM  118  C   UNK N   1      13.135  -7.143  -1.097  0.00  0.00     0.137 C 
BRANCH 118 119
HETATM  119  C   UNK N   1      13.007  -7.817   0.243  0.00  0.00     0.217 C 
HETATM  120  O   UNK N   1      12.024  -7.623   0.942  0.00  0.00    -0.274 OA
HETATM  121  N   UNK N   1      13.939  -8.703   0.639  0.00  0.00    -0.370 N 
HETATM  122  H   UNK N   1      13.719  -9.618   0.929  0.00  0.00     0.159 HD
HETATM  123  H   UNK N   1      14.883  -8.424   0.639  0.00  0.00     0.159 HD
ENDBRANCH 118 119
ENDBRANCH  42 118
BRANCH  52 124
HETATM  124  O   UNK N   1      18.447  -2.280  -0.892  0.00  0.00    -0.388 OA
HETATM  125  H   UNK N   1      19.122  -2.811  -1.345  0.00  0.00     0.210 HD
ENDBRANCH  52 124
BRANCH  54 126
HETATM  126  N   UNK N   1      17.596  -4.862  -1.574  0.00  0.00    -0.343 N 
HETATM  127  C   UNK N   1      18.302  -5.745  -0.821  0.00  0.00     0.240 C 
HETATM  128  O   UNK N   1      18.979  -6.584  -1.392  0.00  0.00    -0.271 OA
HETATM  129  H   UNK N   1      17.735  -4.886  -2.549  0.00  0.00     0.163 HD
BRANCH 127 130
HETATM  130  C   UNK N   1      18.269  -5.725   0.698  0.00  0.00     0.169 C 
BRANCH 130 131
HETATM  131  N   UNK N   1      18.894  -6.905   1.274  0.00  0.00    -0.413 N 
HETATM  132  C   UNK N   1      17.845  -7.900   1.422  0.00  0.00     0.140 C 
HETATM  133  H   UNK N   1      19.877  -7.013   1.524  0.00  0.00     0.153 HD
ENDBRANCH 130 131
BRANCH 130 134
HETATM  134  C   UNK N   1      18.866  -4.454   1.320  0.00  0.00     0.038 C 
BRANCH 134 135
HETATM  135  C   UNK N   1      20.334  -4.117   1.030  0.00  0.00    -0.020 C 
HETATM  136  C   UNK N   1      20.605  -2.735   1.592  0.00  0.00     0.009 C 
HETATM  137  C   UNK N   1      20.675  -4.077  -0.450  0.00  0.00     0.009 C 
ENDBRANCH 134 135
ENDBRANCH 130 134
ENDBRANCH 127 130
ENDBRANCH  54 126
BRANCH  34 138
HETATM  138  C   UNK N   1       4.501  -5.943  -2.010  0.00  0.00     0.168 C 
HETATM  139  O   UNK N   1       4.436  -6.990  -2.633  0.00  0.00    -0.648 OA
BRANCH 138 140
HETATM  140  O   UNK N   1       4.604  -4.778  -2.677  0.00  0.00    -0.775 OA
HETATM  141  H   UNK N   1       5.343  -4.436  -3.141  0.00  0.00     0.167 HD
ENDBRANCH 138 140
ENDBRANCH  34 138
BRANCH  48 142
HETATM  142  O   UNK N   1       8.412  -9.500  -0.627  0.00  0.00    -0.360 OA
HETATM  143  H   UNK N   1       7.659 -10.056  -0.671  0.00  0.00     0.217 HD
ENDBRANCH  48 142
BRANCH  53 144
HETATM  144  O   UNK N   1       6.631 -10.294   0.804  0.00  0.00    -0.360 OA
HETATM  145  H   UNK N   1       6.515 -11.219   0.908  0.00  0.00     0.217 HD
ENDBRANCH  53 144
BRANCH  55 146
HETATM  146  O   UNK N   1       2.017  -9.711   1.417  0.00  0.00    -0.361 OA
HETATM  147  H   UNK N   1       1.303  -9.176   1.703  0.00  0.00     0.217 HD
ENDBRANCH  55 146
TORSDOF 30
