MODEL 1
REMARK VINA RESULT:      -7.8      0.000      0.000
REMARK  8 active torsions:
REMARK  status: ('A' for Active; 'I' for Inactive)
REMARK    1  A    between atoms: C_16  and  C_13 
REMARK    2  A    between atoms: C_26  and  C_13 
REMARK    3  A    between atoms: N_38  and  C_16 
REMARK    4  A    between atoms: C_27  and  C_19 
REMARK    5  A    between atoms: C_26  and  C_21 
REMARK    6  A    between atoms: C_28  and  C_22 
REMARK    7  A    between atoms: C_25  and  N_39 
REMARK    8  A    between atoms: C_26  and  N_32 
ROOT
HETATM    1  C   UNK N   1      24.531  13.433   6.664  0.00  0.00     0.116 C 
HETATM    2  N   UNK N   1      23.955  13.968   7.689  0.00  0.00    -0.365 N 
ATOM      3  HN  UNK N   1      24.421  14.784   8.087  1.00  0.00     0.162 HD
HETATM    4  O   UNK N   1      23.966  12.407   5.990  0.00  0.00    -0.349 OA
HETATM    5  H   UNK N   1      23.505  11.774   5.476  0.00  0.00     0.219 HD
ENDROOT
BRANCH   1   6
HETATM    6  C   UNK N   1      25.871  13.963   6.249  0.00  0.00     0.060 C 
HETATM    7  C   UNK N   1      26.008  15.476   6.434  0.00  0.00     0.019 C 
HETATM    8  C   UNK N   1      25.228  16.249   5.371  0.00  0.00     0.080 C 
HETATM    9  C   UNK N   1      25.652  15.829   3.963  0.00  0.00     0.243 C 
HETATM   10  C   UNK N   1      25.437  14.328   3.780  0.00  0.00     0.080 C 
HETATM   11  F   UNK N   1      26.985  16.141   3.755  0.00  0.00    -0.206 F 
HETATM   12  F   UNK N   1      24.884  16.511   3.041  0.00  0.00    -0.206 F 
HETATM   13  C   UNK N   1      26.235  13.540   4.820  0.00  0.00     0.019 C 
ENDBRANCH   1   6
BRANCH   2  14
HETATM   14  C   UNK N   1      22.722  13.552   8.344  0.00  0.00     0.118 C 
BRANCH  14  15
HETATM   15  C   UNK N   1      21.630  14.647   8.354  0.00  0.00     0.060 C 
BRANCH  15  16
HETATM   16  C   UNK N   1      21.702  15.571   7.139  0.00  0.00     0.276 C 
BRANCH  16  17
HETATM   17  N   UNK N   1      20.541  15.300   6.289  0.00  0.00     0.098 N 
HETATM   18  C   UNK N   1      19.933  16.475   5.674  0.00  0.00     0.225 C 
HETATM   19  C   UNK N   1      18.874  15.874   4.757  0.00  0.00     0.038 C 
HETATM   20  C   UNK N   1      20.990  17.254   4.869  0.00  0.00     0.061 C 
HETATM   21  C   UNK N   1      19.403  14.465   4.463  0.00  0.00     0.038 C 
HETATM   22  C   UNK N   1      20.763  14.426   5.146  0.00  0.00     0.225 C 
HETATM   23  C   UNK N   1      21.878  14.989   4.215  0.00  0.00     0.061 C 
HETATM   24  C   UNK N   1      21.629  16.439   3.731  0.00  0.00     0.097 C 
BRANCH  24  25
HETATM   25  N   UNK N   1      20.851  16.558   2.469  0.00  0.00    -0.319 N 
HETATM   26  C   UNK N   1      20.023  17.549   2.037  0.00  0.00     0.095 A 
HETATM   27  C   UNK N   1      19.661  18.796   2.769  0.00  0.00     0.091 C 
HETATM   28  N   UNK N   1      19.478  17.240   0.848  0.00  0.00    -0.288 N 
HETATM   29  N   UNK N   1      19.929  16.047   0.501  0.00  0.00    -0.287 N 
ATOM     30  HN  UNK N   1      18.833  17.821   0.312  1.00  0.00     0.188 HD
HETATM   31  C   UNK N   1      20.753  15.626   1.477  0.00  0.00     0.103 A 
ATOM     32  HN  UNK N   1      19.696  15.539  -0.351  1.00  0.00     0.188 HD
BRANCH  31  33
HETATM   33  C   UNK N   1      21.397  14.267   1.423  0.00  0.00     0.047 C 
HETATM   34  C   UNK N   1      22.787  14.309   0.821  0.00  0.00     0.017 C 
HETATM   35  C   UNK N   1      20.536  13.204   0.771  0.00  0.00     0.017 C 
ENDBRANCH  31  33
ENDBRANCH  24  25
ENDBRANCH  16  17
ENDBRANCH  15  16
ENDBRANCH  14  15
BRANCH  14  36
HETATM   36  C   UNK N   1      22.958  12.957   9.710  0.00  0.00    -0.035 A 
HETATM   37  C   UNK N   1      24.250  12.630  10.151  0.00  0.00     0.009 A 
HETATM   38  C   UNK N   1      24.442  12.043  11.405  0.00  0.00     0.001 A 
HETATM   39  C   UNK N   1      23.344  11.772  12.226  0.00  0.00     0.000 A 
HETATM   40  C   UNK N   1      22.055  12.093  11.797  0.00  0.00     0.001 A 
HETATM   41  C   UNK N   1      21.862  12.681  10.544  0.00  0.00     0.009 A 
ENDBRANCH  14  36
ENDBRANCH   2  14
TORSDOF 8
ENDMDL
MODEL 2
REMARK VINA RESULT:      -7.4     14.343     16.842
REMARK  8 active torsions:
REMARK  status: ('A' for Active; 'I' for Inactive)
REMARK    1  A    between atoms: C_16  and  C_13 
REMARK    2  A    between atoms: C_26  and  C_13 
REMARK    3  A    between atoms: N_38  and  C_16 
REMARK    4  A    between atoms: C_27  and  C_19 
REMARK    5  A    between atoms: C_26  and  C_21 
REMARK    6  A    between atoms: C_28  and  C_22 
REMARK    7  A    between atoms: C_25  and  N_39 
REMARK    8  A    between atoms: C_26  and  N_32 
ROOT
HETATM    1  C   UNK N   1      31.400  21.580  -6.758  0.00  0.00     0.116 C 
HETATM    2  N   UNK N   1      30.440  20.791  -7.109  0.00  0.00    -0.365 N 
ATOM      3  HN  UNK N   1      30.299  19.970  -6.520  1.00  0.00     0.162 HD
HETATM    4  O   UNK N   1      31.628  22.746  -7.400  0.00  0.00    -0.349 OA
HETATM    5  H   UNK N   1      31.697  23.597  -7.787  0.00  0.00     0.219 HD
ENDROOT
BRANCH   1   6
HETATM    6  C   UNK N   1      32.287  21.155  -5.627  0.00  0.00     0.060 C 
HETATM    7  C   UNK N   1      31.586  20.238  -4.620  0.00  0.00     0.019 C 
HETATM    8  C   UNK N   1      30.610  21.012  -3.736  0.00  0.00     0.080 C 
HETATM    9  C   UNK N   1      31.309  22.172  -3.026  0.00  0.00     0.243 C 
HETATM   10  C   UNK N   1      31.938  23.110  -4.055  0.00  0.00     0.080 C 
HETATM   11  F   UNK N   1      32.288  21.688  -2.174  0.00  0.00    -0.206 F 
HETATM   12  F   UNK N   1      30.378  22.872  -2.285  0.00  0.00    -0.206 F 
HETATM   13  C   UNK N   1      32.940  22.355  -4.929  0.00  0.00     0.019 C 
ENDBRANCH   1   6
BRANCH   2  14
HETATM   14  C   UNK N   1      29.532  20.931  -8.241  0.00  0.00     0.118 C 
BRANCH  14  15
HETATM   15  C   UNK N   1      28.057  21.138  -7.825  0.00  0.00     0.060 C 
BRANCH  15  16
HETATM   16  C   UNK N   1      27.669  22.613  -7.719  0.00  0.00     0.276 C 
BRANCH  16  17
HETATM   17  N   UNK N   1      27.380  22.911  -6.315  0.00  0.00     0.098 N 
HETATM   18  C   UNK N   1      28.452  23.583  -5.589  0.00  0.00     0.225 C 
HETATM   19  C   UNK N   1      27.815  23.884  -4.237  0.00  0.00     0.038 C 
HETATM   20  C   UNK N   1      28.849  24.880  -6.318  0.00  0.00     0.061 C 
HETATM   21  C   UNK N   1      26.314  23.937  -4.544  0.00  0.00     0.038 C 
HETATM   22  C   UNK N   1      26.235  23.772  -6.056  0.00  0.00     0.225 C 
HETATM   23  C   UNK N   1      26.386  25.142  -6.783  0.00  0.00     0.061 C 
HETATM   24  C   UNK N   1      27.700  25.894  -6.453  0.00  0.00     0.097 C 
BRANCH  24  25
HETATM   25  N   UNK N   1      27.629  26.800  -5.275  0.00  0.00    -0.319 N 
HETATM   26  C   UNK N   1      26.560  27.432  -4.716  0.00  0.00     0.095 A 
HETATM   27  C   UNK N   1      25.147  27.388  -5.188  0.00  0.00     0.091 C 
HETATM   28  N   UNK N   1      26.939  28.202  -3.681  0.00  0.00    -0.288 N 
HETATM   29  N   UNK N   1      28.251  28.092  -3.564  0.00  0.00    -0.287 N 
ATOM     30  HN  UNK N   1      26.326  28.768  -3.095  1.00  0.00     0.188 HD
HETATM   31  C   UNK N   1      28.675  27.253  -4.526  0.00  0.00     0.103 A 
ATOM     32  HN  UNK N   1      28.835  28.558  -2.870  1.00  0.00     0.188 HD
BRANCH  31  33
HETATM   33  C   UNK N   1      30.138  26.954  -4.711  0.00  0.00     0.047 C 
HETATM   34  C   UNK N   1      30.813  26.543  -3.417  0.00  0.00     0.017 C 
HETATM   35  C   UNK N   1      30.907  28.051  -5.420  0.00  0.00     0.017 C 
ENDBRANCH  31  33
ENDBRANCH  24  25
ENDBRANCH  16  17
ENDBRANCH  15  16
ENDBRANCH  14  15
BRANCH  14  36
HETATM   36  C   UNK N   1      29.696  19.833  -9.262  0.00  0.00    -0.035 A 
HETATM   37  C   UNK N   1      30.281  18.602  -8.922  0.00  0.00     0.009 A 
HETATM   38  C   UNK N   1      30.460  17.612  -9.893  0.00  0.00     0.001 A 
HETATM   39  C   UNK N   1      30.062  17.847 -11.212  0.00  0.00     0.000 A 
HETATM   40  C   UNK N   1      29.481  19.068 -11.561  0.00  0.00     0.001 A 
HETATM   41  C   UNK N   1      29.300  20.057 -10.590  0.00  0.00     0.009 A 
ENDBRANCH  14  36
ENDBRANCH   2  14
TORSDOF 8
ENDMDL
MODEL 3
REMARK VINA RESULT:      -7.4      2.472      3.308
REMARK  8 active torsions:
REMARK  status: ('A' for Active; 'I' for Inactive)
REMARK    1  A    between atoms: C_16  and  C_13 
REMARK    2  A    between atoms: C_26  and  C_13 
REMARK    3  A    between atoms: N_38  and  C_16 
REMARK    4  A    between atoms: C_27  and  C_19 
REMARK    5  A    between atoms: C_26  and  C_21 
REMARK    6  A    between atoms: C_28  and  C_22 
REMARK    7  A    between atoms: C_25  and  N_39 
REMARK    8  A    between atoms: C_26  and  N_32 
ROOT
HETATM    1  C   UNK N   1      21.552  11.381   6.252  0.00  0.00     0.116 C 
HETATM    2  N   UNK N   1      22.451  11.924   7.003  0.00  0.00    -0.365 N 
ATOM      3  HN  UNK N   1      23.389  11.530   6.934  1.00  0.00     0.162 HD
HETATM    4  O   UNK N   1      20.295  11.871   6.183  0.00  0.00    -0.349 OA
HETATM    5  H   UNK N   1      19.467  12.293   6.068  0.00  0.00     0.219 HD
ENDROOT
BRANCH   1   6
HETATM    6  C   UNK N   1      21.930  10.160   5.468  0.00  0.00     0.060 C 
HETATM    7  C   UNK N   1      23.440  10.021   5.254  0.00  0.00     0.019 C 
HETATM    8  C   UNK N   1      23.955  11.010   4.209  0.00  0.00     0.080 C 
HETATM    9  C   UNK N   1      23.199  10.862   2.889  0.00  0.00     0.243 C 
HETATM   10  C   UNK N   1      21.704  11.076   3.117  0.00  0.00     0.080 C 
HETATM   11  F   UNK N   1      23.416   9.602   2.356  0.00  0.00    -0.206 F 
HETATM   12  F   UNK N   1      23.660  11.810   1.998  0.00  0.00    -0.206 F 
HETATM   13  C   UNK N   1      21.167  10.073   4.140  0.00  0.00     0.019 C 
ENDBRANCH   1   6
BRANCH   2  14
HETATM   14  C   UNK N   1      22.289  13.033   7.936  0.00  0.00     0.118 C 
BRANCH  14  15
HETATM   15  C   UNK N   1      22.986  14.333   7.473  0.00  0.00     0.060 C 
BRANCH  15  16
HETATM   16  C   UNK N   1      22.018  15.344   6.861  0.00  0.00     0.276 C 
BRANCH  16  17
HETATM   17  N   UNK N   1      22.637  15.897   5.654  0.00  0.00     0.098 N 
HETATM   18  C   UNK N   1      22.444  15.111   4.441  0.00  0.00     0.225 C 
HETATM   19  C   UNK N   1      23.057  15.993   3.359  0.00  0.00     0.038 C 
HETATM   20  C   UNK N   1      20.941  14.887   4.191  0.00  0.00     0.061 C 
HETATM   21  C   UNK N   1      22.952  17.409   3.939  0.00  0.00     0.038 C 
HETATM   22  C   UNK N   1      22.192  17.222   5.246  0.00  0.00     0.225 C 
HETATM   23  C   UNK N   1      20.652  17.251   5.013  0.00  0.00     0.061 C 
HETATM   24  C   UNK N   1      20.141  16.188   4.008  0.00  0.00     0.097 C 
BRANCH  24  25
HETATM   25  N   UNK N   1      20.122  16.623   2.586  0.00  0.00    -0.319 N 
HETATM   26  C   UNK N   1      20.018  17.871   2.050  0.00  0.00     0.095 A 
HETATM   27  C   UNK N   1      19.866  19.154   2.793  0.00  0.00     0.091 C 
HETATM   28  N   UNK N   1      19.993  17.822   0.707  0.00  0.00    -0.288 N 
HETATM   29  N   UNK N   1      20.064  16.549   0.356  0.00  0.00    -0.287 N 
ATOM     30  HN  UNK N   1      19.929  18.620   0.076  1.00  0.00     0.188 HD
HETATM   31  C   UNK N   1      20.135  15.820   1.483  0.00  0.00     0.103 A 
ATOM     32  HN  UNK N   1      20.065  16.187  -0.598  1.00  0.00     0.188 HD
BRANCH  31  33
HETATM   33  C   UNK N   1      20.168  14.316   1.440  0.00  0.00     0.047 C 
HETATM   34  C   UNK N   1      21.364  13.786   0.674  0.00  0.00     0.017 C 
HETATM   35  C   UNK N   1      18.875  13.685   0.965  0.00  0.00     0.017 C 
ENDBRANCH  31  33
ENDBRANCH  24  25
ENDBRANCH  16  17
ENDBRANCH  15  16
ENDBRANCH  14  15
BRANCH  14  36
HETATM   36  C   UNK N   1      22.642  12.659   9.354  0.00  0.00    -0.035 A 
HETATM   37  C   UNK N   1      23.973  12.429   9.739  0.00  0.00     0.009 A 
HETATM   38  C   UNK N   1      24.274  12.045  11.049  0.00  0.00     0.001 A 
HETATM   39  C   UNK N   1      23.247  11.882  11.983  0.00  0.00     0.000 A 
HETATM   40  C   UNK N   1      21.921  12.107  11.611  0.00  0.00     0.001 A 
HETATM   41  C   UNK N   1      21.619  12.493  10.302  0.00  0.00     0.009 A 
ENDBRANCH  14  36
ENDBRANCH   2  14
TORSDOF 8
ENDMDL
MODEL 4
REMARK VINA RESULT:      -7.4      9.402     14.123
REMARK  8 active torsions:
REMARK  status: ('A' for Active; 'I' for Inactive)
REMARK    1  A    between atoms: C_16  and  C_13 
REMARK    2  A    between atoms: C_26  and  C_13 
REMARK    3  A    between atoms: N_38  and  C_16 
REMARK    4  A    between atoms: C_27  and  C_19 
REMARK    5  A    between atoms: C_26  and  C_21 
REMARK    6  A    between atoms: C_28  and  C_22 
REMARK    7  A    between atoms: C_25  and  N_39 
REMARK    8  A    between atoms: C_26  and  N_32 
ROOT
HETATM    1  C   UNK N   1      33.396  16.776   5.551  0.00  0.00     0.116 C 
HETATM    2  N   UNK N   1      32.724  16.444   6.603  0.00  0.00    -0.365 N 
ATOM      3  HN  UNK N   1      32.326  15.504   6.600  1.00  0.00     0.162 HD
HETATM    4  O   UNK N   1      34.049  17.956   5.472  0.00  0.00    -0.349 OA
HETATM    5  H   UNK N   1      34.581  18.727   5.484  0.00  0.00     0.219 HD
ENDROOT
BRANCH   1   6
HETATM    6  C   UNK N   1      33.412  15.825   4.392  0.00  0.00     0.060 C 
HETATM    7  C   UNK N   1      32.797  16.412   3.119  0.00  0.00     0.019 C 
HETATM    8  C   UNK N   1      31.273  16.482   3.208  0.00  0.00     0.080 C 
HETATM    9  C   UNK N   1      30.675  15.110   3.523  0.00  0.00     0.243 C 
HETATM   10  C   UNK N   1      31.251  14.580   4.834  0.00  0.00     0.080 C 
HETATM   11  F   UNK N   1      30.953  14.224   2.496  0.00  0.00    -0.206 F 
HETATM   12  F   UNK N   1      29.306  15.236   3.647  0.00  0.00    -0.206 F 
HETATM   13  C   UNK N   1      32.775  14.477   4.750  0.00  0.00     0.019 C 
ENDBRANCH   1   6
BRANCH   2  14
HETATM   14  C   UNK N   1      32.467  17.245   7.793  0.00  0.00     0.118 C 
BRANCH  14  15
HETATM   15  C   UNK N   1      33.159  16.699   9.063  0.00  0.00     0.060 C 
BRANCH  15  16
HETATM   16  C   UNK N   1      33.564  15.230   8.937  0.00  0.00     0.276 C 
BRANCH  16  17
HETATM   17  N   UNK N   1      35.005  15.130   9.182  0.00  0.00     0.098 N 
HETATM   18  C   UNK N   1      35.416  15.352  10.564  0.00  0.00     0.225 C 
HETATM   19  C   UNK N   1      36.909  15.043  10.531  0.00  0.00     0.038 C 
HETATM   20  C   UNK N   1      34.668  14.384  11.499  0.00  0.00     0.061 C 
HETATM   21  C   UNK N   1      37.058  14.089   9.339  0.00  0.00     0.038 C 
HETATM   22  C   UNK N   1      35.630  13.854   8.868  0.00  0.00     0.225 C 
HETATM   23  C   UNK N   1      34.959  12.690   9.657  0.00  0.00     0.061 C 
HETATM   24  C   UNK N   1      34.926  12.899  11.192  0.00  0.00     0.097 C 
BRANCH  24  25
HETATM   25  N   UNK N   1      36.117  12.388  11.923  0.00  0.00    -0.319 N 
HETATM   26  C   UNK N   1      37.038  11.454  11.558  0.00  0.00     0.095 A 
HETATM   27  C   UNK N   1      37.060  10.666  10.293  0.00  0.00     0.091 C 
HETATM   28  N   UNK N   1      37.935  11.250  12.538  0.00  0.00    -0.288 N 
HETATM   29  N   UNK N   1      37.603  12.032  13.550  0.00  0.00    -0.287 N 
ATOM     30  HN  UNK N   1      38.727  10.608  12.506  1.00  0.00     0.188 HD
HETATM   31  C   UNK N   1      36.503  12.717  13.190  0.00  0.00     0.103 A 
ATOM     32  HN  UNK N   1      38.092  12.104  14.442  1.00  0.00     0.188 HD
BRANCH  31  33
HETATM   33  C   UNK N   1      35.824  13.662  14.144  0.00  0.00     0.047 C 
HETATM   34  C   UNK N   1      36.794  14.639  14.778  0.00  0.00     0.017 C 
HETATM   35  C   UNK N   1      34.962  12.973  15.183  0.00  0.00     0.017 C 
ENDBRANCH  31  33
ENDBRANCH  24  25
ENDBRANCH  16  17
ENDBRANCH  15  16
ENDBRANCH  14  15
BRANCH  14  36
HETATM   36  C   UNK N   1      30.999  17.519   8.007  0.00  0.00    -0.035 A 
HETATM   37  C   UNK N   1      30.032  17.075   7.090  0.00  0.00     0.009 A 
HETATM   38  C   UNK N   1      28.681  17.375   7.288  0.00  0.00     0.001 A 
HETATM   39  C   UNK N   1      28.286  18.127   8.398  0.00  0.00     0.000 A 
HETATM   40  C   UNK N   1      29.239  18.574   9.315  0.00  0.00     0.001 A 
HETATM   41  C   UNK N   1      30.590  18.273   9.120  0.00  0.00     0.009 A 
ENDBRANCH  14  36
ENDBRANCH   2  14
TORSDOF 8
ENDMDL
MODEL 5
REMARK VINA RESULT:      -7.3     12.127     15.254
REMARK  8 active torsions:
REMARK  status: ('A' for Active; 'I' for Inactive)
REMARK    1  A    between atoms: C_16  and  C_13 
REMARK    2  A    between atoms: C_26  and  C_13 
REMARK    3  A    between atoms: N_38  and  C_16 
REMARK    4  A    between atoms: C_27  and  C_19 
REMARK    5  A    between atoms: C_26  and  C_21 
REMARK    6  A    between atoms: C_28  and  C_22 
REMARK    7  A    between atoms: C_25  and  N_39 
REMARK    8  A    between atoms: C_26  and  N_32 
ROOT
HETATM    1  C   UNK N   1      34.991  10.259  13.649  0.00  0.00     0.116 C 
HETATM    2  N   UNK N   1      35.826  10.943  14.358  0.00  0.00    -0.365 N 
ATOM      3  HN  UNK N   1      36.719  10.492  14.556  1.00  0.00     0.162 HD
HETATM    4  O   UNK N   1      33.814  10.782  13.240  0.00  0.00    -0.349 OA
HETATM    5  H   UNK N   1      33.058  11.201  12.877  0.00  0.00     0.219 HD
ENDROOT
BRANCH   1   6
HETATM    6  C   UNK N   1      35.347   8.843  13.308  0.00  0.00     0.060 C 
HETATM    7  C   UNK N   1      36.856   8.600  13.234  0.00  0.00     0.019 C 
HETATM    8  C   UNK N   1      37.463   9.195  11.964  0.00  0.00     0.080 C 
HETATM    9  C   UNK N   1      36.760   8.662  10.715  0.00  0.00     0.243 C 
HETATM   10  C   UNK N   1      35.268   8.981  10.780  0.00  0.00     0.080 C 
HETATM   11  F   UNK N   1      36.942   7.292  10.615  0.00  0.00    -0.206 F 
HETATM   12  F   UNK N   1      37.304   9.268   9.601  0.00  0.00    -0.206 F 
HETATM   13  C   UNK N   1      34.641   8.367  12.033  0.00  0.00     0.019 C 
ENDBRANCH   1   6
BRANCH   2  14
HETATM   14  C   UNK N   1      35.650  12.283  14.907  0.00  0.00     0.118 C 
BRANCH  14  15
HETATM   15  C   UNK N   1      36.715  13.292  14.418  0.00  0.00     0.060 C 
BRANCH  15  16
HETATM   16  C   UNK N   1      36.153  14.326  13.444  0.00  0.00     0.276 C 
BRANCH  16  17
HETATM   17  N   UNK N   1      35.423  13.616  12.392  0.00  0.00     0.098 N 
HETATM   18  C   UNK N   1      34.495  14.434  11.619  0.00  0.00     0.225 C 
HETATM   19  C   UNK N   1      34.013  13.475  10.536  0.00  0.00     0.038 C 
HETATM   20  C   UNK N   1      35.235  15.637  11.007  0.00  0.00     0.061 C 
HETATM   21  C   UNK N   1      35.154  12.458  10.414  0.00  0.00     0.038 C 
HETATM   22  C   UNK N   1      36.228  12.987  11.354  0.00  0.00     0.225 C 
HETATM   23  C   UNK N   1      37.141  14.029  10.641  0.00  0.00     0.061 C 
HETATM   24  C   UNK N   1      36.379  15.245  10.056  0.00  0.00     0.097 C 
BRANCH  24  25
HETATM   25  N   UNK N   1      35.894  15.073   8.660  0.00  0.00    -0.319 N 
HETATM   26  C   UNK N   1      36.349  14.261   7.666  0.00  0.00     0.095 A 
HETATM   27  C   UNK N   1      37.509  13.327   7.733  0.00  0.00     0.091 C 
HETATM   28  N   UNK N   1      35.653  14.447   6.532  0.00  0.00    -0.288 N 
HETATM   29  N   UNK N   1      34.753  15.386   6.767  0.00  0.00    -0.287 N 
ATOM     30  HN  UNK N   1      35.795  13.954   5.650  1.00  0.00     0.188 HD
HETATM   31  C   UNK N   1      34.897  15.774   8.047  0.00  0.00     0.103 A 
ATOM     32  HN  UNK N   1      34.074  15.751   6.100  1.00  0.00     0.188 HD
BRANCH  31  33
HETATM   33  C   UNK N   1      34.059  16.880   8.627  0.00  0.00     0.047 C 
HETATM   34  C   UNK N   1      32.574  16.634   8.449  0.00  0.00     0.017 C 
HETATM   35  C   UNK N   1      34.458  18.265   8.157  0.00  0.00     0.017 C 
ENDBRANCH  31  33
ENDBRANCH  24  25
ENDBRANCH  16  17
ENDBRANCH  15  16
ENDBRANCH  14  15
BRANCH  14  36
HETATM   36  C   UNK N   1      35.496  12.284  16.407  0.00  0.00    -0.035 A 
HETATM   37  C   UNK N   1      35.251  13.471  17.115  0.00  0.00     0.009 A 
HETATM   38  C   UNK N   1      35.152  13.455  18.510  0.00  0.00     0.001 A 
HETATM   39  C   UNK N   1      35.304  12.254  19.208  0.00  0.00     0.000 A 
HETATM   40  C   UNK N   1      35.549  11.068  18.513  0.00  0.00     0.001 A 
HETATM   41  C   UNK N   1      35.646  11.082  17.119  0.00  0.00     0.009 A 
ENDBRANCH  14  36
ENDBRANCH   2  14
TORSDOF 8
ENDMDL
MODEL 6
REMARK VINA RESULT:      -7.3     10.856     14.321
REMARK  8 active torsions:
REMARK  status: ('A' for Active; 'I' for Inactive)
REMARK    1  A    between atoms: C_16  and  C_13 
REMARK    2  A    between atoms: C_26  and  C_13 
REMARK    3  A    between atoms: N_38  and  C_16 
REMARK    4  A    between atoms: C_27  and  C_19 
REMARK    5  A    between atoms: C_26  and  C_21 
REMARK    6  A    between atoms: C_28  and  C_22 
REMARK    7  A    between atoms: C_25  and  N_39 
REMARK    8  A    between atoms: C_26  and  N_32 
ROOT
HETATM    1  C   UNK N   1      35.734  13.431  14.906  0.00  0.00     0.116 C 
HETATM    2  N   UNK N   1      35.497  13.562  13.643  0.00  0.00    -0.365 N 
ATOM      3  HN  UNK N   1      34.558  13.308  13.336  1.00  0.00     0.162 HD
HETATM    4  O   UNK N   1      36.907  13.822  15.450  0.00  0.00    -0.349 OA
HETATM    5  H   UNK N   1      37.680  14.200  15.821  0.00  0.00     0.219 HD
ENDROOT
BRANCH   1   6
HETATM    6  C   UNK N   1      34.677  12.800  15.762  0.00  0.00     0.060 C 
HETATM    7  C   UNK N   1      35.199  12.332  17.123  0.00  0.00     0.019 C 
HETATM    8  C   UNK N   1      36.040  11.063  16.999  0.00  0.00     0.080 C 
HETATM    9  C   UNK N   1      35.259   9.950  16.300  0.00  0.00     0.243 C 
HETATM   10  C   UNK N   1      34.811  10.416  14.916  0.00  0.00     0.080 C 
HETATM   11  F   UNK N   1      34.153   9.598  17.056  0.00  0.00    -0.206 F 
HETATM   12  F   UNK N   1      36.076   8.846  16.163  0.00  0.00    -0.206 F 
HETATM   13  C   UNK N   1      33.944  11.671  15.027  0.00  0.00     0.019 C 
ENDBRANCH   1   6
BRANCH   2  14
HETATM   14  C   UNK N   1      36.405  14.032  12.604  0.00  0.00     0.118 C 
BRANCH  14  15
HETATM   15  C   UNK N   1      35.936  15.337  11.921  0.00  0.00     0.060 C 
BRANCH  15  16
HETATM   16  C   UNK N   1      34.641  15.164  11.129  0.00  0.00     0.276 C 
BRANCH  16  17
HETATM   17  N   UNK N   1      34.885  15.596   9.751  0.00  0.00     0.098 N 
HETATM   18  C   UNK N   1      35.140  14.520   8.800  0.00  0.00     0.225 C 
HETATM   19  C   UNK N   1      35.207  15.252   7.464  0.00  0.00     0.038 C 
HETATM   20  C   UNK N   1      33.978  13.510   8.823  0.00  0.00     0.061 C 
HETATM   21  C   UNK N   1      34.372  16.517   7.699  0.00  0.00     0.038 C 
HETATM   22  C   UNK N   1      33.815  16.342   9.105  0.00  0.00     0.225 C 
HETATM   23  C   UNK N   1      32.489  15.525   9.090  0.00  0.00     0.061 C 
HETATM   24  C   UNK N   1      32.616  14.120   8.449  0.00  0.00     0.097 C 
BRANCH  24  25
HETATM   25  N   UNK N   1      32.380  14.073   6.981  0.00  0.00    -0.319 N 
HETATM   26  C   UNK N   1      31.628  14.883   6.186  0.00  0.00     0.095 A 
HETATM   27  C   UNK N   1      30.804  16.047   6.619  0.00  0.00     0.091 C 
HETATM   28  N   UNK N   1      31.647  14.463   4.910  0.00  0.00    -0.288 N 
HETATM   29  N   UNK N   1      32.394  13.373   4.861  0.00  0.00    -0.287 N 
ATOM     30  HN  UNK N   1      31.171  14.903   4.122  1.00  0.00     0.188 HD
HETATM   31  C   UNK N   1      32.834  13.127   6.108  0.00  0.00     0.103 A 
ATOM     32  HN  UNK N   1      32.599  12.819   4.030  1.00  0.00     0.188 HD
BRANCH  31  33
HETATM   33  C   UNK N   1      33.670  11.915   6.417  0.00  0.00     0.047 C 
HETATM   34  C   UNK N   1      34.983  11.910   5.658  0.00  0.00     0.017 C 
HETATM   35  C   UNK N   1      32.930  10.601   6.264  0.00  0.00     0.017 C 
ENDBRANCH  31  33
ENDBRANCH  24  25
ENDBRANCH  16  17
ENDBRANCH  15  16
ENDBRANCH  14  15
BRANCH  14  36
HETATM   36  C   UNK N   1      36.763  12.955  11.610  0.00  0.00    -0.035 A 
HETATM   37  C   UNK N   1      36.009  11.774  11.510  0.00  0.00     0.009 A 
HETATM   38  C   UNK N   1      36.382  10.771  10.610  0.00  0.00     0.001 A 
HETATM   39  C   UNK N   1      37.514  10.938   9.808  0.00  0.00     0.000 A 
HETATM   40  C   UNK N   1      38.271  12.107   9.900  0.00  0.00     0.001 A 
HETATM   41  C   UNK N   1      37.898  13.111  10.799  0.00  0.00     0.009 A 
ENDBRANCH  14  36
ENDBRANCH   2  14
TORSDOF 8
ENDMDL
MODEL 7
REMARK VINA RESULT:      -7.3     10.809     14.309
REMARK  8 active torsions:
REMARK  status: ('A' for Active; 'I' for Inactive)
REMARK    1  A    between atoms: C_16  and  C_13 
REMARK    2  A    between atoms: C_26  and  C_13 
REMARK    3  A    between atoms: N_38  and  C_16 
REMARK    4  A    between atoms: C_27  and  C_19 
REMARK    5  A    between atoms: C_26  and  C_21 
REMARK    6  A    between atoms: C_28  and  C_22 
REMARK    7  A    between atoms: C_25  and  N_39 
REMARK    8  A    between atoms: C_26  and  N_32 
ROOT
HETATM    1  C   UNK N   1      35.759  13.428  14.906  0.00  0.00     0.116 C 
HETATM    2  N   UNK N   1      35.518  13.609  13.650  0.00  0.00    -0.365 N 
ATOM      3  HN  UNK N   1      34.566  13.407  13.344  1.00  0.00     0.162 HD
HETATM    4  O   UNK N   1      36.952  13.750  15.451  0.00  0.00    -0.349 OA
HETATM    5  H   UNK N   1      37.744  14.082  15.826  0.00  0.00     0.219 HD
ENDROOT
BRANCH   1   6
HETATM    6  C   UNK N   1      34.682  12.819  15.752  0.00  0.00     0.060 C 
HETATM    7  C   UNK N   1      35.176  12.367  17.128  0.00  0.00     0.019 C 
HETATM    8  C   UNK N   1      36.009  11.089  17.038  0.00  0.00     0.080 C 
HETATM    9  C   UNK N   1      35.231   9.972  16.342  0.00  0.00     0.243 C 
HETATM   10  C   UNK N   1      34.812  10.421  14.944  0.00  0.00     0.080 C 
HETATM   11  F   UNK N   1      34.109   9.641  17.084  0.00  0.00    -0.206 F 
HETATM   12  F   UNK N   1      36.042   8.860  16.236  0.00  0.00    -0.206 F 
HETATM   13  C   UNK N   1      33.953  11.685  15.020  0.00  0.00     0.019 C 
ENDBRANCH   1   6
BRANCH   2  14
HETATM   14  C   UNK N   1      36.438  14.070  12.617  0.00  0.00     0.118 C 
BRANCH  14  15
HETATM   15  C   UNK N   1      35.948  15.336  11.877  0.00  0.00     0.060 C 
BRANCH  15  16
HETATM   16  C   UNK N   1      34.705  15.084  11.023  0.00  0.00     0.276 C 
BRANCH  16  17
HETATM   17  N   UNK N   1      35.050  15.348   9.625  0.00  0.00     0.098 N 
HETATM   18  C   UNK N   1      35.172  14.163   8.782  0.00  0.00     0.225 C 
HETATM   19  C   UNK N   1      35.384  14.752   7.392  0.00  0.00     0.038 C 
HETATM   20  C   UNK N   1      33.876  13.335   8.844  0.00  0.00     0.061 C 
HETATM   21  C   UNK N   1      34.736  16.139   7.480  0.00  0.00     0.038 C 
HETATM   22  C   UNK N   1      34.119  16.176   8.871  0.00  0.00     0.225 C 
HETATM   23  C   UNK N   1      32.689  15.558   8.872  0.00  0.00     0.061 C 
HETATM   24  C   UNK N   1      32.629  14.096   8.362  0.00  0.00     0.097 C 
BRANCH  24  25
HETATM   25  N   UNK N   1      32.431  13.948   6.895  0.00  0.00    -0.319 N 
HETATM   26  C   UNK N   1      32.812  12.947   6.054  0.00  0.00     0.095 A 
HETATM   27  C   UNK N   1      33.575  11.718   6.413  0.00  0.00     0.091 C 
HETATM   28  N   UNK N   1      32.474  13.227   4.784  0.00  0.00    -0.288 N 
HETATM   29  N   UNK N   1      31.888  14.412   4.780  0.00  0.00    -0.287 N 
ATOM     30  HN  UNK N   1      32.642  12.634   3.970  1.00  0.00     0.188 HD
HETATM   31  C   UNK N   1      31.864  14.856   6.049  0.00  0.00     0.103 A 
ATOM     32  HN  UNK N   1      31.520  14.900   3.964  1.00  0.00     0.188 HD
BRANCH  31  33
HETATM   33  C   UNK N   1      31.312  16.214   6.391  0.00  0.00     0.047 C 
HETATM   34  C   UNK N   1      29.797  16.250   6.344  0.00  0.00     0.017 C 
HETATM   35  C   UNK N   1      31.925  17.347   5.592  0.00  0.00     0.017 C 
ENDBRANCH  31  33
ENDBRANCH  24  25
ENDBRANCH  16  17
ENDBRANCH  15  16
ENDBRANCH  14  15
BRANCH  14  36
HETATM   36  C   UNK N   1      36.852  12.971  11.671  0.00  0.00    -0.035 A 
HETATM   37  C   UNK N   1      37.994  13.095  10.863  0.00  0.00     0.009 A 
HETATM   38  C   UNK N   1      38.337  12.080   9.964  0.00  0.00     0.001 A 
HETATM   39  C   UNK N   1      37.539  10.937   9.861  0.00  0.00     0.000 A 
HETATM   40  C   UNK N   1      36.401  10.805  10.659  0.00  0.00     0.001 A 
HETATM   41  C   UNK N   1      36.058  11.818  11.559  0.00  0.00     0.009 A 
ENDBRANCH  14  36
ENDBRANCH   2  14
TORSDOF 8
ENDMDL
MODEL 8
REMARK VINA RESULT:      -7.3      3.184      3.787
REMARK  8 active torsions:
REMARK  status: ('A' for Active; 'I' for Inactive)
REMARK    1  A    between atoms: C_16  and  C_13 
REMARK    2  A    between atoms: C_26  and  C_13 
REMARK    3  A    between atoms: N_38  and  C_16 
REMARK    4  A    between atoms: C_27  and  C_19 
REMARK    5  A    between atoms: C_26  and  C_21 
REMARK    6  A    between atoms: C_28  and  C_22 
REMARK    7  A    between atoms: C_25  and  N_39 
REMARK    8  A    between atoms: C_26  and  N_32 
ROOT
HETATM    1  C   UNK N   1      21.947  11.419   6.419  0.00  0.00     0.116 C 
HETATM    2  N   UNK N   1      22.482  12.279   7.220  0.00  0.00    -0.365 N 
ATOM      3  HN  UNK N   1      23.483  12.438   7.101  1.00  0.00     0.162 HD
HETATM    4  O   UNK N   1      20.615  11.190   6.414  0.00  0.00    -0.349 OA
HETATM    5  H   UNK N   1      19.682  11.129   6.352  0.00  0.00     0.219 HD
ENDROOT
BRANCH   1   6
HETATM    6  C   UNK N   1      22.849  10.649   5.502  0.00  0.00     0.060 C 
HETATM    7  C   UNK N   1      22.164   9.446   4.849  0.00  0.00     0.019 C 
HETATM    8  C   UNK N   1      21.973   8.298   5.838  0.00  0.00     0.080 C 
HETATM    9  C   UNK N   1      23.303   7.892   6.474  0.00  0.00     0.243 C 
HETATM   10  C   UNK N   1      23.931   9.091   7.181  0.00  0.00     0.080 C 
HETATM   11  F   UNK N   1      24.168   7.414   5.504  0.00  0.00    -0.206 F 
HETATM   12  F   UNK N   1      23.072   6.892   7.398  0.00  0.00    -0.206 F 
HETATM   13  C   UNK N   1      24.154  10.239   6.196  0.00  0.00     0.019 C 
ENDBRANCH   1   6
BRANCH   2  14
HETATM   14  C   UNK N   1      21.832  13.053   8.271  0.00  0.00     0.118 C 
BRANCH  14  15
HETATM   15  C   UNK N   1      21.887  14.580   8.034  0.00  0.00     0.060 C 
BRANCH  15  16
HETATM   16  C   UNK N   1      22.045  14.949   6.560  0.00  0.00     0.276 C 
BRANCH  16  17
HETATM   17  N   UNK N   1      20.708  15.101   5.980  0.00  0.00     0.098 N 
HETATM   18  C   UNK N   1      20.430  16.409   5.396  0.00  0.00     0.225 C 
HETATM   19  C   UNK N   1      19.058  16.216   4.761  0.00  0.00     0.038 C 
HETATM   20  C   UNK N   1      21.492  16.749   4.335  0.00  0.00     0.061 C 
HETATM   21  C   UNK N   1      18.988  14.708   4.493  0.00  0.00     0.038 C 
HETATM   22  C   UNK N   1      20.363  14.193   4.896  0.00  0.00     0.225 C 
HETATM   23  C   UNK N   1      21.378  14.308   3.720  0.00  0.00     0.061 C 
HETATM   24  C   UNK N   1      21.550  15.746   3.169  0.00  0.00     0.097 C 
BRANCH  24  25
HETATM   25  N   UNK N   1      20.611  16.121   2.078  0.00  0.00    -0.319 N 
HETATM   26  C   UNK N   1      20.110  17.338   1.730  0.00  0.00     0.095 A 
HETATM   27  C   UNK N   1      20.373  18.641   2.403  0.00  0.00     0.091 C 
HETATM   28  N   UNK N   1      19.249  17.231   0.703  0.00  0.00    -0.288 N 
HETATM   29  N   UNK N   1      19.168  15.951   0.384  0.00  0.00    -0.287 N 
ATOM     30  HN  UNK N   1      18.748  17.998   0.254  1.00  0.00     0.188 HD
HETATM   31  C   UNK N   1      19.982  15.274   1.214  0.00  0.00     0.103 A 
ATOM     32  HN  UNK N   1      18.594  15.549  -0.357  1.00  0.00     0.188 HD
BRANCH  31  33
HETATM   33  C   UNK N   1      20.081  13.773   1.157  0.00  0.00     0.047 C 
HETATM   34  C   UNK N   1      21.342  13.304   0.458  0.00  0.00     0.017 C 
HETATM   35  C   UNK N   1      18.846  13.095   0.600  0.00  0.00     0.017 C 
ENDBRANCH  31  33
ENDBRANCH  24  25
ENDBRANCH  16  17
ENDBRANCH  15  16
ENDBRANCH  14  15
BRANCH  14  36
HETATM   36  C   UNK N   1      22.294  12.664   9.653  0.00  0.00    -0.035 A 
HETATM   37  C   UNK N   1      23.651  12.436   9.932  0.00  0.00     0.009 A 
HETATM   38  C   UNK N   1      24.053  12.038  11.211  0.00  0.00     0.001 A 
HETATM   39  C   UNK N   1      23.101  11.859  12.219  0.00  0.00     0.000 A 
HETATM   40  C   UNK N   1      21.749  12.082  11.951  0.00  0.00     0.001 A 
HETATM   41  C   UNK N   1      21.347  12.482  10.674  0.00  0.00     0.009 A 
ENDBRANCH  14  36
ENDBRANCH   2  14
TORSDOF 8
ENDMDL
MODEL 9
REMARK VINA RESULT:      -7.2     14.503     17.201
REMARK  8 active torsions:
REMARK  status: ('A' for Active; 'I' for Inactive)
REMARK    1  A    between atoms: C_16  and  C_13 
REMARK    2  A    between atoms: C_26  and  C_13 
REMARK    3  A    between atoms: N_38  and  C_16 
REMARK    4  A    between atoms: C_27  and  C_19 
REMARK    5  A    between atoms: C_26  and  C_21 
REMARK    6  A    between atoms: C_28  and  C_22 
REMARK    7  A    between atoms: C_25  and  N_39 
REMARK    8  A    between atoms: C_26  and  N_32 
ROOT
HETATM    1  C   UNK N   1      26.425  27.796  -3.966  0.00  0.00     0.116 C 
HETATM    2  N   UNK N   1      26.768  26.760  -4.656  0.00  0.00    -0.365 N 
ATOM      3  HN  UNK N   1      27.481  26.913  -5.369  1.00  0.00     0.162 HD
HETATM    4  O   UNK N   1      25.561  27.704  -2.932  0.00  0.00    -0.349 OA
HETATM    5  H   UNK N   1      25.049  27.598  -2.154  0.00  0.00     0.219 HD
ENDROOT
BRANCH   1   6
HETATM    6  C   UNK N   1      26.992  29.127  -4.361  0.00  0.00     0.060 C 
HETATM    7  C   UNK N   1      28.400  29.033  -4.953  0.00  0.00     0.019 C 
HETATM    8  C   UNK N   1      29.449  28.761  -3.876  0.00  0.00     0.080 C 
HETATM    9  C   UNK N   1      29.389  29.813  -2.769  0.00  0.00     0.243 C 
HETATM   10  C   UNK N   1      27.995  29.836  -2.146  0.00  0.00     0.080 C 
HETATM   11  F   UNK N   1      29.693  31.062  -3.284  0.00  0.00    -0.206 F 
HETATM   12  F   UNK N   1      30.315  29.494  -1.796  0.00  0.00    -0.206 F 
HETATM   13  C   UNK N   1      26.936  30.137  -3.208  0.00  0.00     0.019 C 
ENDBRANCH   1   6
BRANCH   2  14
HETATM   14  C   UNK N   1      26.263  25.397  -4.538  0.00  0.00     0.118 C 
BRANCH  14  15
HETATM   15  C   UNK N   1      27.110  24.506  -3.599  0.00  0.00     0.060 C 
BRANCH  15  16
HETATM   16  C   UNK N   1      28.604  24.817  -3.671  0.00  0.00     0.276 C 
BRANCH  16  17
HETATM   17  N   UNK N   1      29.342  23.603  -3.313  0.00  0.00     0.098 N 
HETATM   18  C   UNK N   1      29.137  22.467  -4.206  0.00  0.00     0.225 C 
HETATM   19  C   UNK N   1      30.122  21.432  -3.674  0.00  0.00     0.038 C 
HETATM   20  C   UNK N   1      29.476  22.866  -5.654  0.00  0.00     0.061 C 
HETATM   21  C   UNK N   1      31.199  22.274  -2.980  0.00  0.00     0.038 C 
HETATM   22  C   UNK N   1      30.792  23.713  -3.271  0.00  0.00     0.225 C 
HETATM   23  C   UNK N   1      31.361  24.196  -4.638  0.00  0.00     0.061 C 
HETATM   24  C   UNK N   1      30.931  23.326  -5.847  0.00  0.00     0.097 C 
BRANCH  24  25
HETATM   25  N   UNK N   1      31.831  22.181  -6.151  0.00  0.00    -0.319 N 
HETATM   26  C   UNK N   1      33.152  22.004  -5.871  0.00  0.00     0.095 A 
HETATM   27  C   UNK N   1      34.060  22.968  -5.187  0.00  0.00     0.091 C 
HETATM   28  N   UNK N   1      33.599  20.836  -6.365  0.00  0.00    -0.288 N 
HETATM   29  N   UNK N   1      32.586  20.251  -6.980  0.00  0.00    -0.287 N 
ATOM     30  HN  UNK N   1      34.548  20.470  -6.281  1.00  0.00     0.188 HD
HETATM   31  C   UNK N   1      31.518  21.059  -6.861  0.00  0.00     0.103 A 
ATOM     32  HN  UNK N   1      32.610  19.350  -7.458  1.00  0.00     0.188 HD
BRANCH  31  33
HETATM   33  C   UNK N   1      30.203  20.714  -7.505  0.00  0.00     0.047 C 
HETATM   34  C   UNK N   1      29.897  19.231  -7.438  0.00  0.00     0.017 C 
HETATM   35  C   UNK N   1      30.046  21.255  -8.912  0.00  0.00     0.017 C 
ENDBRANCH  31  33
ENDBRANCH  24  25
ENDBRANCH  16  17
ENDBRANCH  15  16
ENDBRANCH  14  15
BRANCH  14  36
HETATM   36  C   UNK N   1      26.010  24.750  -5.877  0.00  0.00    -0.035 A 
HETATM   37  C   UNK N   1      25.906  23.356  -6.006  0.00  0.00     0.009 A 
HETATM   38  C   UNK N   1      25.711  22.775  -7.263  0.00  0.00     0.001 A 
HETATM   39  C   UNK N   1      25.625  23.582  -8.401  0.00  0.00     0.000 A 
HETATM   40  C   UNK N   1      25.728  24.969  -8.283  0.00  0.00     0.001 A 
HETATM   41  C   UNK N   1      25.921  25.551  -7.027  0.00  0.00     0.009 A 
ENDBRANCH  14  36
ENDBRANCH   2  14
TORSDOF 8
ENDMDL
