MODEL 1
REMARK VINA RESULT:      -7.6      0.000      0.000
REMARK  3 active torsions:
REMARK  status: ('A' for Active; 'I' for Inactive)
REMARK    1  A    between atoms: C_15  and  C_20 
REMARK    2  A    between atoms: C_15  and  O_23 
REMARK    3  A    between atoms: O_23  and  C_27 
ROOT
HETATM    1  C   UNK N   1      33.026  21.957  -4.338  0.00  0.00     0.011 A 
HETATM    2  C   UNK N   1      34.196  20.995  -4.622  0.00  0.00     0.065 A 
HETATM    3  C   UNK N   1      33.861  19.872  -5.549  0.00  0.00     0.154 C 
HETATM    4  C   UNK N   1      32.547  19.773  -6.203  0.00  0.00     0.060 C 
HETATM    5  C   UNK N   1      31.493  20.539  -5.884  0.00  0.00    -0.024 C 
HETATM    6  C   UNK N   1      31.561  21.592  -4.770  0.00  0.00    -0.006 C 
HETATM    7  C   UNK N   1      30.787  22.848  -5.311  0.00  0.00     0.007 C 
HETATM    8  C   UNK N   1      30.254  20.426  -6.727  0.00  0.00     0.037 C 
HETATM    9  C   UNK N   1      29.258  21.326  -6.619  0.00  0.00     0.003 C 
HETATM   10  C   UNK N   1      29.299  22.408  -5.575  0.00  0.00     0.020 C 
HETATM   11  C   UNK N   1      29.894  25.191  -4.685  0.00  0.00     0.013 C 
HETATM   12  C   UNK N   1      30.875  24.050  -4.338  0.00  0.00     0.007 C 
HETATM   13  C   UNK N   1      28.372  23.609  -5.843  0.00  0.00     0.005 C 
HETATM   14  C   UNK N   1      28.477  24.614  -4.688  0.00  0.00    -0.001 C 
HETATM   15  C   UNK N   1      27.283  25.551  -4.967  0.00  0.00     0.138 C 
HETATM   16  C   UNK N   1      26.871  23.299  -5.888  0.00  0.00     0.009 C 
HETATM   17  C   UNK N   1      26.174  24.508  -5.222  0.00  0.00     0.048 C 
HETATM   18  O   UNK N   1      34.713  19.039  -5.802  0.00  0.00    -0.293 OA
HETATM   19 Cl   UNK N   1      30.135  19.204  -7.992  0.00  0.00    -0.084 Cl
HETATM   20  C   UNK N   1      28.236  23.947  -3.304  0.00  0.00     0.019 C 
HETATM   21  C   UNK N   1      30.806  21.046  -3.538  0.00  0.00     0.021 C 
HETATM   22  C   UNK N   1      33.532  20.924  -3.304  0.00  0.00     0.019 A 
ENDROOT
BRANCH  15  23
HETATM   23  C   UNK N   1      27.019  26.483  -3.791  0.00  0.00     0.158 C 
HETATM   24  C   UNK N   1      27.790  27.757  -3.653  0.00  0.00     0.094 C 
HETATM   25  O   UNK N   1      26.188  26.194  -2.944  0.00  0.00    -0.295 OA
ENDBRANCH  15  23
BRANCH  15  26
HETATM   26  O   UNK N   1      27.440  26.278  -6.142  0.00  0.00    -0.302 OA
BRANCH  26  27
HETATM   27  C   UNK N   1      26.379  26.672  -6.904  0.00  0.00     0.256 C 
HETATM   28  C   UNK N   1      26.255  26.250  -8.333  0.00  0.00     0.126 C 
HETATM   29  O   UNK N   1      25.525  27.394  -6.422  0.00  0.00    -0.266 OA
ENDBRANCH  26  27
ENDBRANCH  15  26
TORSDOF 3
ENDMDL
MODEL 2
REMARK VINA RESULT:      -7.5     21.581     24.817
REMARK  3 active torsions:
REMARK  status: ('A' for Active; 'I' for Inactive)
REMARK    1  A    between atoms: C_15  and  C_20 
REMARK    2  A    between atoms: C_15  and  O_23 
REMARK    3  A    between atoms: O_23  and  C_27 
ROOT
HETATM    1  C   UNK N   1      34.596   8.719  17.459  0.00  0.00     0.011 A 
HETATM    2  C   UNK N   1      34.186   8.119  18.818  0.00  0.00     0.065 A 
HETATM    3  C   UNK N   1      34.247   9.081  19.960  0.00  0.00     0.154 C 
HETATM    4  C   UNK N   1      34.575  10.500  19.761  0.00  0.00     0.060 C 
HETATM    5  C   UNK N   1      35.034  11.008  18.607  0.00  0.00    -0.024 C 
HETATM    6  C   UNK N   1      35.284  10.128  17.375  0.00  0.00    -0.006 C 
HETATM    7  C   UNK N   1      34.767  10.951  16.140  0.00  0.00     0.007 C 
HETATM    8  C   UNK N   1      35.196  12.498  18.502  0.00  0.00     0.037 C 
HETATM    9  C   UNK N   1      35.415  13.090  17.312  0.00  0.00     0.003 C 
HETATM   10  C   UNK N   1      35.619  12.273  16.065  0.00  0.00     0.020 C 
HETATM   11  C   UNK N   1      34.626  10.996  13.561  0.00  0.00     0.013 C 
HETATM   12  C   UNK N   1      34.840  10.136  14.825  0.00  0.00     0.007 C 
HETATM   13  C   UNK N   1      35.402  13.035  14.744  0.00  0.00     0.005 C 
HETATM   14  C   UNK N   1      35.681  12.105  13.556  0.00  0.00    -0.001 C 
HETATM   15  C   UNK N   1      35.726  13.096  12.375  0.00  0.00     0.138 C 
HETATM   16  C   UNK N   1      36.351  14.211  14.486  0.00  0.00     0.009 C 
HETATM   17  C   UNK N   1      36.648  14.183  12.968  0.00  0.00     0.048 C 
HETATM   18  O   UNK N   1      33.977   8.686  21.081  0.00  0.00    -0.293 OA
HETATM   19 Cl   UNK N   1      34.948  13.531  19.909  0.00  0.00    -0.084 Cl
HETATM   20  C   UNK N   1      37.078  11.427  13.654  0.00  0.00     0.019 C 
HETATM   21  C   UNK N   1      36.807   9.924  17.224  0.00  0.00     0.021 C 
HETATM   22  C   UNK N   1      35.501   7.749  18.255  0.00  0.00     0.019 A 
ENDROOT
BRANCH  15  23
HETATM   23  C   UNK N   1      36.260  12.433  11.110  0.00  0.00     0.158 C 
HETATM   24  C   UNK N   1      37.545  12.896  10.503  0.00  0.00     0.094 C 
HETATM   25  O   UNK N   1      35.637  11.529  10.573  0.00  0.00    -0.295 OA
ENDBRANCH  15  23
BRANCH  15  26
HETATM   26  O   UNK N   1      34.493  13.692  12.131  0.00  0.00    -0.302 OA
BRANCH  26  27
HETATM   27  C   UNK N   1      34.322  14.651  11.176  0.00  0.00     0.256 C 
HETATM   28  C   UNK N   1      33.559  14.367   9.922  0.00  0.00     0.126 C 
HETATM   29  O   UNK N   1      34.814  15.755  11.335  0.00  0.00    -0.266 OA
ENDBRANCH  26  27
ENDBRANCH  15  26
TORSDOF 3
ENDMDL
MODEL 3
REMARK VINA RESULT:      -7.5     11.361     14.844
REMARK  3 active torsions:
REMARK  status: ('A' for Active; 'I' for Inactive)
REMARK    1  A    between atoms: C_15  and  C_20 
REMARK    2  A    between atoms: C_15  and  O_23 
REMARK    3  A    between atoms: O_23  and  C_27 
ROOT
HETATM    1  C   UNK N   1      28.040  19.120   4.582  0.00  0.00     0.011 A 
HETATM    2  C   UNK N   1      27.105  20.268   5.009  0.00  0.00     0.065 A 
HETATM    3  C   UNK N   1      27.005  20.464   6.487  0.00  0.00     0.154 C 
HETATM    4  C   UNK N   1      27.818  19.683   7.430  0.00  0.00     0.060 C 
HETATM    5  C   UNK N   1      28.552  18.616   7.079  0.00  0.00    -0.024 C 
HETATM    6  C   UNK N   1      28.588  18.093   5.636  0.00  0.00    -0.006 C 
HETATM    7  C   UNK N   1      30.085  17.712   5.349  0.00  0.00     0.007 C 
HETATM    8  C   UNK N   1      29.444  17.996   8.118  0.00  0.00     0.037 C 
HETATM    9  C   UNK N   1      30.378  17.088   7.776  0.00  0.00     0.003 C 
HETATM   10  C   UNK N   1      30.487  16.578   6.365  0.00  0.00     0.020 C 
HETATM   11  C   UNK N   1      31.679  16.622   3.632  0.00  0.00     0.013 C 
HETATM   12  C   UNK N   1      30.304  17.280   3.878  0.00  0.00     0.007 C 
HETATM   13  C   UNK N   1      31.836  15.925   6.009  0.00  0.00     0.005 C 
HETATM   14  C   UNK N   1      31.800  15.413   4.563  0.00  0.00    -0.001 C 
HETATM   15  C   UNK N   1      33.069  14.538   4.500  0.00  0.00     0.138 C 
HETATM   16  C   UNK N   1      32.201  14.667   6.806  0.00  0.00     0.009 C 
HETATM   17  C   UNK N   1      32.902  13.723   5.800  0.00  0.00     0.048 C 
HETATM   18  O   UNK N   1      26.258  21.325   6.920  0.00  0.00    -0.293 OA
HETATM   19 Cl   UNK N   1      29.400  18.553   9.789  0.00  0.00    -0.084 Cl
HETATM   20  C   UNK N   1      30.578  14.488   4.296  0.00  0.00     0.019 C 
HETATM   21  C   UNK N   1      27.734  16.809   5.563  0.00  0.00     0.021 C 
HETATM   22  C   UNK N   1      26.499  19.015   4.513  0.00  0.00     0.019 A 
ENDROOT
BRANCH  15  23
HETATM   23  C   UNK N   1      33.105  13.700   3.227  0.00  0.00     0.158 C 
HETATM   24  C   UNK N   1      32.908  12.219   3.296  0.00  0.00     0.094 C 
HETATM   25  O   UNK N   1      33.310  14.225   2.143  0.00  0.00    -0.295 OA
ENDBRANCH  15  23
BRANCH  15  26
HETATM   26  O   UNK N   1      34.236  15.282   4.628  0.00  0.00    -0.302 OA
BRANCH  26  27
HETATM   27  C   UNK N   1      35.349  14.793   5.250  0.00  0.00     0.256 C 
HETATM   28  C   UNK N   1      36.125  13.657   4.665  0.00  0.00     0.126 C 
HETATM   29  O   UNK N   1      35.709  15.276   6.309  0.00  0.00    -0.266 OA
ENDBRANCH  26  27
ENDBRANCH  15  26
TORSDOF 3
ENDMDL
MODEL 4
REMARK VINA RESULT:      -7.3     20.613     23.997
REMARK  3 active torsions:
REMARK  status: ('A' for Active; 'I' for Inactive)
REMARK    1  A    between atoms: C_15  and  C_20 
REMARK    2  A    between atoms: C_15  and  O_23 
REMARK    3  A    between atoms: O_23  and  C_27 
ROOT
HETATM    1  C   UNK N   1      34.586   9.431  17.148  0.00  0.00     0.011 A 
HETATM    2  C   UNK N   1      34.311   9.293  18.658  0.00  0.00     0.065 A 
HETATM    3  C   UNK N   1      34.623  10.517  19.456  0.00  0.00     0.154 C 
HETATM    4  C   UNK N   1      35.057  11.769  18.818  0.00  0.00     0.060 C 
HETATM    5  C   UNK N   1      35.399  11.870  17.525  0.00  0.00    -0.024 C 
HETATM    6  C   UNK N   1      35.390  10.657  16.584  0.00  0.00    -0.006 C 
HETATM    7  C   UNK N   1      34.791  11.166  15.224  0.00  0.00     0.007 C 
HETATM    8  C   UNK N   1      35.689  13.237  16.973  0.00  0.00     0.037 C 
HETATM    9  C   UNK N   1      35.799  13.440  15.646  0.00  0.00     0.003 C 
HETATM   10  C   UNK N   1      35.748  12.290  14.677  0.00  0.00     0.020 C 
HETATM   11  C   UNK N   1      34.300  10.510  12.773  0.00  0.00     0.013 C 
HETATM   12  C   UNK N   1      34.602  10.015  14.204  0.00  0.00     0.007 C 
HETATM   13  C   UNK N   1      35.427  12.676  13.221  0.00  0.00     0.005 C 
HETATM   14  C   UNK N   1      35.447  11.424  12.335  0.00  0.00    -0.001 C 
HETATM   15  C   UNK N   1      35.425  12.032  10.917  0.00  0.00     0.138 C 
HETATM   16  C   UNK N   1      36.441  13.596  12.533  0.00  0.00     0.009 C 
HETATM   17  C   UNK N   1      36.522  13.108  11.068  0.00  0.00     0.048 C 
HETATM   18  O   UNK N   1      34.473  10.490  20.665  0.00  0.00    -0.293 OA
HETATM   19 Cl   UNK N   1      35.739  14.643  18.034  0.00  0.00    -0.084 Cl
HETATM   20  C   UNK N   1      36.772  10.621  12.481  0.00  0.00     0.019 C 
HETATM   21  C   UNK N   1      36.851  10.218  16.343  0.00  0.00     0.021 C 
HETATM   22  C   UNK N   1      35.493   8.610  18.094  0.00  0.00     0.019 A 
ENDROOT
BRANCH  15  23
HETATM   23  C   UNK N   1      35.713  10.979   9.854  0.00  0.00     0.158 C 
HETATM   24  C   UNK N   1      36.984  11.029   9.070  0.00  0.00     0.094 C 
HETATM   25  O   UNK N   1      34.903  10.094   9.622  0.00  0.00    -0.295 OA
ENDBRANCH  15  23
BRANCH  15  26
HETATM   26  O   UNK N   1      34.235  12.695  10.640  0.00  0.00    -0.302 OA
BRANCH  26  27
HETATM   27  C   UNK N   1      34.151  13.685   9.705  0.00  0.00     0.256 C 
HETATM   28  C   UNK N   1      33.949  15.112  10.106  0.00  0.00     0.126 C 
HETATM   29  O   UNK N   1      34.224  13.405   8.521  0.00  0.00    -0.266 OA
ENDBRANCH  26  27
ENDBRANCH  15  26
TORSDOF 3
ENDMDL
MODEL 5
REMARK VINA RESULT:      -7.2     16.626     19.662
REMARK  3 active torsions:
REMARK  status: ('A' for Active; 'I' for Inactive)
REMARK    1  A    between atoms: C_15  and  C_20 
REMARK    2  A    between atoms: C_15  and  O_23 
REMARK    3  A    between atoms: O_23  and  C_27 
ROOT
HETATM    1  C   UNK N   1      36.026  10.632  12.043  0.00  0.00     0.011 A 
HETATM    2  C   UNK N   1      36.486   9.748  13.219  0.00  0.00     0.065 A 
HETATM    3  C   UNK N   1      36.993  10.510  14.401  0.00  0.00     0.154 C 
HETATM    4  C   UNK N   1      36.951  11.978  14.453  0.00  0.00     0.060 C 
HETATM    5  C   UNK N   1      36.653  12.756  13.401  0.00  0.00    -0.024 C 
HETATM    6  C   UNK N   1      36.347  12.168  12.016  0.00  0.00    -0.006 C 
HETATM    7  C   UNK N   1      35.143  13.002  11.447  0.00  0.00     0.007 C 
HETATM    8  C   UNK N   1      36.510  14.235  13.630  0.00  0.00     0.037 C 
HETATM    9  C   UNK N   1      35.981  15.035  12.684  0.00  0.00     0.003 C 
HETATM   10  C   UNK N   1      35.619  14.498  11.326  0.00  0.00     0.020 C 
HETATM   11  C   UNK N   1      33.664  13.394   9.365  0.00  0.00     0.013 C 
HETATM   12  C   UNK N   1      34.636  12.442  10.094  0.00  0.00     0.007 C 
HETATM   13  C   UNK N   1      34.629  15.364  10.525  0.00  0.00     0.005 C 
HETATM   14  C   UNK N   1      34.379  14.730   9.150  0.00  0.00    -0.001 C 
HETATM   15  C   UNK N   1      33.648  15.863   8.401  0.00  0.00     0.138 C 
HETATM   16  C   UNK N   1      35.113  16.774  10.165  0.00  0.00     0.009 C 
HETATM   17  C   UNK N   1      34.569  17.053   8.744  0.00  0.00     0.048 C 
HETATM   18  O   UNK N   1      37.414   9.894  15.365  0.00  0.00    -0.293 OA
HETATM   19 Cl   UNK N   1      36.886  14.942  15.200  0.00  0.00    -0.084 Cl
HETATM   20  C   UNK N   1      35.702  14.439   8.386  0.00  0.00     0.019 C 
HETATM   21  C   UNK N   1      37.575  12.399  11.109  0.00  0.00     0.021 C 
HETATM   22  C   UNK N   1      37.347   9.828  12.021  0.00  0.00     0.019 A 
ENDROOT
BRANCH  15  23
HETATM   23  C   UNK N   1      33.531  15.562   6.911  0.00  0.00     0.158 C 
HETATM   24  C   UNK N   1      34.158  16.475   5.908  0.00  0.00     0.094 C 
HETATM   25  O   UNK N   1      32.913  14.582   6.523  0.00  0.00    -0.295 OA
ENDBRANCH  15  23
BRANCH  15  26
HETATM   26  O   UNK N   1      32.398  16.141   8.943  0.00  0.00    -0.302 OA
BRANCH  26  27
HETATM   27  C   UNK N   1      31.591  17.125   8.451  0.00  0.00     0.256 C 
HETATM   28  C   UNK N   1      30.386  16.798   7.628  0.00  0.00     0.126 C 
HETATM   29  O   UNK N   1      31.864  18.293   8.667  0.00  0.00    -0.266 OA
ENDBRANCH  26  27
ENDBRANCH  15  26
TORSDOF 3
ENDMDL
MODEL 6
REMARK VINA RESULT:      -6.9      3.896      7.312
REMARK  3 active torsions:
REMARK  status: ('A' for Active; 'I' for Inactive)
REMARK    1  A    between atoms: C_15  and  C_20 
REMARK    2  A    between atoms: C_15  and  O_23 
REMARK    3  A    between atoms: O_23  and  C_27 
ROOT
HETATM    1  C   UNK N   1      26.389  28.306  -4.982  0.00  0.00     0.011 A 
HETATM    2  C   UNK N   1      26.664  29.623  -4.230  0.00  0.00     0.065 A 
HETATM    3  C   UNK N   1      27.950  29.642  -3.471  0.00  0.00     0.154 C 
HETATM    4  C   UNK N   1      28.905  28.526  -3.534  0.00  0.00     0.060 C 
HETATM    5  C   UNK N   1      28.632  27.339  -4.096  0.00  0.00    -0.024 C 
HETATM    6  C   UNK N   1      27.262  27.028  -4.714  0.00  0.00    -0.006 C 
HETATM    7  C   UNK N   1      27.551  26.237  -6.040  0.00  0.00     0.007 C 
HETATM    8  C   UNK N   1      29.746  26.337  -4.215  0.00  0.00     0.037 C 
HETATM    9  C   UNK N   1      29.609  25.234  -4.976  0.00  0.00     0.003 C 
HETATM   10  C   UNK N   1      28.300  24.909  -5.643  0.00  0.00     0.020 C 
HETATM   11  C   UNK N   1      26.458  24.938  -7.988  0.00  0.00     0.013 C 
HETATM   12  C   UNK N   1      26.258  25.957  -6.846  0.00  0.00     0.007 C 
HETATM   13  C   UNK N   1      28.395  23.917  -6.818  0.00  0.00     0.005 C 
HETATM   14  C   UNK N   1      26.994  23.640  -7.378  0.00  0.00    -0.001 C 
HETATM   15  C   UNK N   1      27.248  22.426  -8.296  0.00  0.00     0.138 C 
HETATM   16  C   UNK N   1      28.905  22.514  -6.470  0.00  0.00     0.009 C 
HETATM   17  C   UNK N   1      28.084  21.541  -7.348  0.00  0.00     0.048 C 
HETATM   18  O   UNK N   1      28.235  30.629  -2.814  0.00  0.00    -0.293 OA
HETATM   19 Cl   UNK N   1      31.320  26.652  -3.487  0.00  0.00    -0.084 Cl
HETATM   20  C   UNK N   1      25.995  23.192  -6.272  0.00  0.00     0.019 C 
HETATM   21  C   UNK N   1      26.492  26.101  -3.748  0.00  0.00     0.021 C 
HETATM   22  C   UNK N   1      25.643  28.703  -3.686  0.00  0.00     0.019 A 
ENDROOT
BRANCH  15  23
HETATM   23  C   UNK N   1      25.941  21.797  -8.763  0.00  0.00     0.158 C 
HETATM   24  C   UNK N   1      25.510  20.471  -8.223  0.00  0.00     0.094 C 
HETATM   25  O   UNK N   1      25.242  22.359  -9.591  0.00  0.00    -0.295 OA
ENDBRANCH  15  23
BRANCH  15  26
HETATM   26  O   UNK N   1      28.055  22.740  -9.384  0.00  0.00    -0.302 OA
BRANCH  26  27
HETATM   27  C   UNK N   1      28.765  21.794 -10.063  0.00  0.00     0.256 C 
HETATM   28  C   UNK N   1      30.258  21.757 -10.005  0.00  0.00     0.126 C 
HETATM   29  O   UNK N   1      28.176  20.973 -10.746  0.00  0.00    -0.266 OA
ENDBRANCH  26  27
ENDBRANCH  15  26
TORSDOF 3
ENDMDL
MODEL 7
REMARK VINA RESULT:      -6.9     11.451     14.881
REMARK  3 active torsions:
REMARK  status: ('A' for Active; 'I' for Inactive)
REMARK    1  A    between atoms: C_15  and  C_20 
REMARK    2  A    between atoms: C_15  and  O_23 
REMARK    3  A    between atoms: O_23  and  C_27 
ROOT
HETATM    1  C   UNK N   1      26.278  18.198   5.084  0.00  0.00     0.011 A 
HETATM    2  C   UNK N   1      24.776  18.221   4.743  0.00  0.00     0.065 A 
HETATM    3  C   UNK N   1      24.237  16.920   4.241  0.00  0.00     0.154 C 
HETATM    4  C   UNK N   1      25.067  15.707   4.186  0.00  0.00     0.060 C 
HETATM    5  C   UNK N   1      26.395  15.699   4.379  0.00  0.00    -0.024 C 
HETATM    6  C   UNK N   1      27.183  16.987   4.658  0.00  0.00    -0.006 C 
HETATM    7  C   UNK N   1      28.228  16.624   5.774  0.00  0.00     0.007 C 
HETATM    8  C   UNK N   1      27.096  14.371   4.431  0.00  0.00     0.037 C 
HETATM    9  C   UNK N   1      28.370  14.276   4.859  0.00  0.00     0.003 C 
HETATM   10  C   UNK N   1      29.171  15.506   5.192  0.00  0.00     0.020 C 
HETATM   11  C   UNK N   1      30.247  17.506   7.122  0.00  0.00     0.013 C 
HETATM   12  C   UNK N   1      29.022  17.864   6.253  0.00  0.00     0.007 C 
HETATM   13  C   UNK N   1      30.405  15.259   6.081  0.00  0.00     0.005 C 
HETATM   14  C   UNK N   1      31.153  16.579   6.308  0.00  0.00    -0.001 C 
HETATM   15  C   UNK N   1      32.482  16.094   6.924  0.00  0.00     0.138 C 
HETATM   16  C   UNK N   1      31.488  14.353   5.485  0.00  0.00     0.009 C 
HETATM   17  C   UNK N   1      32.837  14.958   5.940  0.00  0.00     0.048 C 
HETATM   18  O   UNK N   1      23.066  16.853   3.909  0.00  0.00    -0.293 OA
HETATM   19 Cl   UNK N   1      26.224  12.880   4.083  0.00  0.00    -0.084 Cl
HETATM   20  C   UNK N   1      31.490  17.303   4.973  0.00  0.00     0.019 C 
HETATM   21  C   UNK N   1      27.951  17.374   3.376  0.00  0.00     0.021 C 
HETATM   22  C   UNK N   1      25.717  18.892   3.822  0.00  0.00     0.019 A 
ENDROOT
BRANCH  15  23
HETATM   23  C   UNK N   1      33.509  17.219   6.990  0.00  0.00     0.158 C 
HETATM   24  C   UNK N   1      33.432  18.244   8.076  0.00  0.00     0.094 C 
HETATM   25  O   UNK N   1      34.393  17.302   6.152  0.00  0.00    -0.295 OA
ENDBRANCH  15  23
BRANCH  15  26
HETATM   26  O   UNK N   1      32.309  15.515   8.176  0.00  0.00    -0.302 OA
BRANCH  26  27
HETATM   27  C   UNK N   1      33.055  14.453   8.597  0.00  0.00     0.256 C 
HETATM   28  C   UNK N   1      34.496  14.615   8.961  0.00  0.00     0.126 C 
HETATM   29  O   UNK N   1      32.546  13.347   8.663  0.00  0.00    -0.266 OA
ENDBRANCH  26  27
ENDBRANCH  15  26
TORSDOF 3
ENDMDL
MODEL 8
REMARK VINA RESULT:      -6.8     16.717     19.798
REMARK  3 active torsions:
REMARK  status: ('A' for Active; 'I' for Inactive)
REMARK    1  A    between atoms: C_15  and  C_20 
REMARK    2  A    between atoms: C_15  and  O_23 
REMARK    3  A    between atoms: O_23  and  C_27 
ROOT
HETATM    1  C   UNK N   1      37.425  11.972  13.434  0.00  0.00     0.011 A 
HETATM    2  C   UNK N   1      38.072  10.821  14.229  0.00  0.00     0.065 A 
HETATM    3  C   UNK N   1      37.605   9.459  13.833  0.00  0.00     0.154 C 
HETATM    4  C   UNK N   1      36.682   9.252  12.707  0.00  0.00     0.060 C 
HETATM    5  C   UNK N   1      36.034  10.246  12.078  0.00  0.00    -0.024 C 
HETATM    6  C   UNK N   1      36.185  11.712  12.506  0.00  0.00    -0.006 C 
HETATM    7  C   UNK N   1      36.272  12.545  11.177  0.00  0.00     0.007 C 
HETATM    8  C   UNK N   1      35.230   9.906  10.855  0.00  0.00     0.037 C 
HETATM    9  C   UNK N   1      34.759  10.873  10.045  0.00  0.00     0.003 C 
HETATM   10  C   UNK N   1      34.924  12.327  10.393  0.00  0.00     0.020 C 
HETATM   11  C   UNK N   1      36.352  14.937  10.203  0.00  0.00     0.013 C 
HETATM   12  C   UNK N   1      36.552  14.045  11.446  0.00  0.00     0.007 C 
HETATM   13  C   UNK N   1      34.768  13.303   9.212  0.00  0.00     0.005 C 
HETATM   14  C   UNK N   1      34.916  14.747   9.708  0.00  0.00    -0.001 C 
HETATM   15  C   UNK N   1      34.426  15.558   8.491  0.00  0.00     0.138 C 
HETATM   16  C   UNK N   1      33.395  13.317   8.531  0.00  0.00     0.009 C 
HETATM   17  C   UNK N   1      33.125  14.794   8.163  0.00  0.00     0.048 C 
HETATM   18  O   UNK N   1      38.033   8.488  14.433  0.00  0.00    -0.293 OA
HETATM   19 Cl   UNK N   1      35.012   8.229  10.360  0.00  0.00    -0.084 Cl
HETATM   20  C   UNK N   1      33.963  15.062  10.897  0.00  0.00     0.019 C 
HETATM   21  C   UNK N   1      34.907  12.132  13.264  0.00  0.00     0.021 C 
HETATM   22  C   UNK N   1      37.050  11.651  14.899  0.00  0.00     0.019 A 
ENDROOT
BRANCH  15  23
HETATM   23  C   UNK N   1      34.226  17.028   8.843  0.00  0.00     0.158 C 
HETATM   24  C   UNK N   1      32.907  17.687   8.598  0.00  0.00     0.094 C 
HETATM   25  O   UNK N   1      35.143  17.683   9.314  0.00  0.00    -0.295 OA
ENDBRANCH  15  23
BRANCH  15  26
HETATM   26  O   UNK N   1      35.266  15.429   7.391  0.00  0.00    -0.302 OA
BRANCH  26  27
HETATM   27  C   UNK N   1      34.829  15.616   6.112  0.00  0.00     0.256 C 
HETATM   28  C   UNK N   1      34.744  14.475   5.149  0.00  0.00     0.126 C 
HETATM   29  O   UNK N   1      34.518  16.733   5.738  0.00  0.00    -0.266 OA
ENDBRANCH  26  27
ENDBRANCH  15  26
TORSDOF 3
ENDMDL
MODEL 9
REMARK VINA RESULT:      -6.5     25.004     28.535
REMARK  3 active torsions:
REMARK  status: ('A' for Active; 'I' for Inactive)
REMARK    1  A    between atoms: C_15  and  C_20 
REMARK    2  A    between atoms: C_15  and  O_23 
REMARK    3  A    between atoms: O_23  and  C_27 
ROOT
HETATM    1  C   UNK N   1      36.458  11.017  14.782  0.00  0.00     0.011 A 
HETATM    2  C   UNK N   1      36.730  12.071  13.692  0.00  0.00     0.065 A 
HETATM    3  C   UNK N   1      36.401  13.472  14.093  0.00  0.00     0.154 C 
HETATM    4  C   UNK N   1      35.954  13.805  15.453  0.00  0.00     0.060 C 
HETATM    5  C   UNK N   1      35.614  12.889  16.374  0.00  0.00    -0.024 C 
HETATM    6  C   UNK N   1      35.641  11.385  16.072  0.00  0.00    -0.006 C 
HETATM    7  C   UNK N   1      36.238  10.695  17.351  0.00  0.00     0.007 C 
HETATM    8  C   UNK N   1      35.309  13.364  17.767  0.00  0.00     0.037 C 
HETATM    9  C   UNK N   1      35.201  12.492  18.788  0.00  0.00     0.003 C 
HETATM   10  C   UNK N   1      35.268  11.007  18.552  0.00  0.00     0.020 C 
HETATM   11  C   UNK N   1      36.744   8.418  18.463  0.00  0.00     0.013 C 
HETATM   12  C   UNK N   1      36.443   9.173  17.150  0.00  0.00     0.007 C 
HETATM   13  C   UNK N   1      35.590  10.163  19.799  0.00  0.00     0.005 C 
HETATM   14  C   UNK N   1      35.587   8.673  19.433  0.00  0.00    -0.001 C 
HETATM   15  C   UNK N   1      35.606   7.999  20.820  0.00  0.00     0.138 C 
HETATM   16  C   UNK N   1      34.566  10.234  20.938  0.00  0.00     0.009 C 
HETATM   17  C   UNK N   1      34.496   8.806  21.528  0.00  0.00     0.048 C 
HETATM   18  O   UNK N   1      36.548  14.370  13.281  0.00  0.00    -0.293 OA
HETATM   19 Cl   UNK N   1      35.239  15.086  18.135  0.00  0.00    -0.084 Cl
HETATM   20  C   UNK N   1      34.272   8.244  18.720  0.00  0.00     0.019 C 
HETATM   21  C   UNK N   1      34.186  10.900  15.888  0.00  0.00     0.021 C 
HETATM   22  C   UNK N   1      35.557  11.185  13.536  0.00  0.00     0.019 A 
ENDROOT
BRANCH  15  23
HETATM   23  C   UNK N   1      35.335   6.503  20.718  0.00  0.00     0.158 C 
HETATM   24  C   UNK N   1      36.403   5.577  20.232  0.00  0.00     0.094 C 
HETATM   25  O   UNK N   1      34.241   6.048  21.017  0.00  0.00    -0.295 OA
ENDBRANCH  15  23
BRANCH  15  26
HETATM   26  O   UNK N   1      36.789   8.235  21.511  0.00  0.00    -0.302 OA
BRANCH  26  27
HETATM   27  C   UNK N   1      36.849   8.247  22.874  0.00  0.00     0.256 C 
HETATM   28  C   UNK N   1      37.146   9.505  23.625  0.00  0.00     0.126 C 
HETATM   29  O   UNK N   1      36.676   7.212  23.495  0.00  0.00    -0.266 OA
ENDBRANCH  26  27
ENDBRANCH  15  26
TORSDOF 3
ENDMDL
