MODEL 1
REMARK VINA RESULT:      -6.5      0.000      0.000
REMARK  4 active torsions:
REMARK  status: ('A' for Active; 'I' for Inactive)
REMARK    1  A    between atoms: O_2  and  C_20 
REMARK    2  A    between atoms: O_3  and  C_21 
REMARK    3  A    between atoms: C_6  and  C_12 
REMARK    4  A    between atoms: C_12  and  C_15 
ROOT
HETATM    1  O   UNK N   1      35.654  17.896   9.998  0.00  0.00    -0.297 OA
HETATM    2  N   UNK N   1      34.967  13.917   9.953  0.00  0.00     0.099 N 
HETATM    3  C   UNK N   1      34.749  14.551  11.259  0.00  0.00     0.263 C 
HETATM    4  C   UNK N   1      34.923  16.058   8.713  0.00  0.00     0.084 C 
HETATM    5  C   UNK N   1      34.266  14.703   8.950  0.00  0.00     0.285 C 
HETATM    6  C   UNK N   1      35.181  16.028  11.329  0.00  0.00     0.119 C 
HETATM    7  C   UNK N   1      34.233  12.646   9.979  0.00  0.00     0.278 C 
HETATM    8  C   UNK N   1      35.405  13.724  12.338  0.00  0.00    -0.015 A 
HETATM    9  C   UNK N   1      35.245  16.747  10.013  0.00  0.00     0.135 C 
HETATM   10  C   UNK N   1      34.758  11.660  11.034  0.00  0.00     0.069 C 
HETATM   11  C   UNK N   1      35.358  12.325  12.239  0.00  0.00    -0.045 A 
HETATM   12  C   UNK N   1      36.079  14.316  13.414  0.00  0.00     0.049 A 
HETATM   13  C   UNK N   1      35.936  11.537  13.237  0.00  0.00     0.047 A 
HETATM   14  C   UNK N   1      36.681  13.528  14.410  0.00  0.00     0.102 A 
HETATM   15  C   UNK N   1      36.587  12.129  14.332  0.00  0.00     0.102 A 
ENDROOT
BRANCH   4  16
HETATM   16  C   UNK N   1      34.000  16.928   7.861  0.00  0.00     0.018 C 
BRANCH  16  17
HETATM   17  C   UNK N   1      32.536  16.521   7.993  0.00  0.00    -0.022 C 
HETATM   18  C   UNK N   1      31.710  17.642   8.599  0.00  0.00     0.009 C 
HETATM   19  C   UNK N   1      31.984  16.204   6.621  0.00  0.00     0.009 C 
ENDBRANCH  16  17
ENDBRANCH   4  16
BRANCH  14  20
HETATM   20  O   UNK N   1      37.350  14.095  15.442  0.00  0.00    -0.353 OA
HETATM   21  C   UNK N   1      37.286  15.440  15.734  0.00  0.00     0.210 C 
ENDBRANCH  14  20
BRANCH  15  22
HETATM   22  O   UNK N   1      37.142  11.374  15.313  0.00  0.00    -0.353 OA
HETATM   23  C   UNK N   1      36.403  10.733  16.281  0.00  0.00     0.210 C 
ENDBRANCH  15  22
TORSDOF 4
ENDMDL
MODEL 2
REMARK VINA RESULT:      -6.3     17.236     20.164
REMARK  4 active torsions:
REMARK  status: ('A' for Active; 'I' for Inactive)
REMARK    1  A    between atoms: O_2  and  C_20 
REMARK    2  A    between atoms: O_3  and  C_21 
REMARK    3  A    between atoms: C_6  and  C_12 
REMARK    4  A    between atoms: C_12  and  C_15 
ROOT
HETATM    1  O   UNK N   1      25.569  23.710  -6.930  0.00  0.00    -0.297 OA
HETATM    2  N   UNK N   1      28.151  23.707  -3.825  0.00  0.00     0.099 N 
HETATM    3  C   UNK N   1      28.782  23.496  -5.133  0.00  0.00     0.263 C 
HETATM    4  C   UNK N   1      26.044  24.578  -4.789  0.00  0.00     0.084 C 
HETATM    5  C   UNK N   1      27.273  24.862  -3.931  0.00  0.00     0.285 C 
HETATM    6  C   UNK N   1      27.789  23.316  -6.297  0.00  0.00     0.119 C 
HETATM    7  C   UNK N   1      29.213  24.158  -2.918  0.00  0.00     0.278 C 
HETATM    8  C   UNK N   1      29.756  22.347  -5.045  0.00  0.00    -0.015 A 
HETATM    9  C   UNK N   1      26.420  23.889  -6.074  0.00  0.00     0.135 C 
HETATM   10  C   UNK N   1      30.317  23.110  -2.703  0.00  0.00     0.069 C 
HETATM   11  C   UNK N   1      30.526  22.202  -3.881  0.00  0.00    -0.045 A 
HETATM   12  C   UNK N   1      29.888  21.410  -6.078  0.00  0.00     0.049 A 
HETATM   13  C   UNK N   1      31.453  21.161  -3.784  0.00  0.00     0.047 A 
HETATM   14  C   UNK N   1      30.803  20.349  -5.978  0.00  0.00     0.102 A 
HETATM   15  C   UNK N   1      31.607  20.238  -4.832  0.00  0.00     0.102 A 
ENDROOT
BRANCH   4  16
HETATM   16  C   UNK N   1      25.313  25.888  -5.078  0.00  0.00     0.018 C 
BRANCH  16  17
HETATM   17  C   UNK N   1      26.231  27.101  -4.968  0.00  0.00    -0.022 C 
HETATM   18  C   UNK N   1      26.587  27.644  -6.340  0.00  0.00     0.009 C 
HETATM   19  C   UNK N   1      25.526  28.188  -4.188  0.00  0.00     0.009 C 
ENDBRANCH  16  17
ENDBRANCH   4  16
BRANCH  14  20
HETATM   20  O   UNK N   1      30.920  19.430  -6.966  0.00  0.00    -0.353 OA
HETATM   21  C   UNK N   1      29.877  19.072  -7.791  0.00  0.00     0.210 C 
ENDBRANCH  14  20
BRANCH  15  22
HETATM   22  O   UNK N   1      32.511  19.229  -4.754  0.00  0.00    -0.353 OA
HETATM   23  C   UNK N   1      33.778  19.391  -4.241  0.00  0.00     0.210 C 
ENDBRANCH  15  22
TORSDOF 4
ENDMDL
MODEL 3
REMARK VINA RESULT:      -6.2      2.838      7.849
REMARK  4 active torsions:
REMARK  status: ('A' for Active; 'I' for Inactive)
REMARK    1  A    between atoms: O_2  and  C_20 
REMARK    2  A    between atoms: O_3  and  C_21 
REMARK    3  A    between atoms: C_6  and  C_12 
REMARK    4  A    between atoms: C_12  and  C_15 
ROOT
HETATM    1  O   UNK N   1      35.903  14.919  18.138  0.00  0.00    -0.297 OA
HETATM    2  N   UNK N   1      34.751  11.805  15.838  0.00  0.00     0.099 N 
HETATM    3  C   UNK N   1      35.906  12.544  15.316  0.00  0.00     0.263 C 
HETATM    4  C   UNK N   1      34.949  12.762  18.113  0.00  0.00     0.084 C 
HETATM    5  C   UNK N   1      35.003  11.512  17.241  0.00  0.00     0.285 C 
HETATM    6  C   UNK N   1      36.237  13.836  16.088  0.00  0.00     0.119 C 
HETATM    7  C   UNK N   1      34.776  10.486  15.195  0.00  0.00     0.278 C 
HETATM    8  C   UNK N   1      35.714  12.807  13.843  0.00  0.00    -0.015 A 
HETATM    9  C   UNK N   1      35.737  13.891  17.502  0.00  0.00     0.135 C 
HETATM   10  C   UNK N   1      34.597  10.548  13.670  0.00  0.00     0.069 C 
HETATM   11  C   UNK N   1      35.122  11.811  13.051  0.00  0.00    -0.045 A 
HETATM   12  C   UNK N   1      36.082  14.025  13.255  0.00  0.00     0.049 A 
HETATM   13  C   UNK N   1      34.955  12.020  11.680  0.00  0.00     0.047 A 
HETATM   14  C   UNK N   1      35.897  14.249  11.881  0.00  0.00     0.102 A 
HETATM   15  C   UNK N   1      35.351  13.229  11.084  0.00  0.00     0.102 A 
ENDROOT
BRANCH   4  16
HETATM   16  C   UNK N   1      35.480  12.432  19.507  0.00  0.00     0.018 C 
BRANCH  16  17
HETATM   17  C   UNK N   1      35.506  10.931  19.777  0.00  0.00    -0.022 C 
HETATM   18  C   UNK N   1      36.841  10.504  20.361  0.00  0.00     0.009 C 
HETATM   19  C   UNK N   1      34.416  10.585  20.766  0.00  0.00     0.009 C 
ENDBRANCH  16  17
ENDBRANCH   4  16
BRANCH  14  20
HETATM   20  O   UNK N   1      36.234  15.431  11.312  0.00  0.00    -0.353 OA
HETATM   21  C   UNK N   1      35.344  16.469  11.145  0.00  0.00     0.210 C 
ENDBRANCH  14  20
BRANCH  15  22
HETATM   22  O   UNK N   1      35.203  13.439   9.752  0.00  0.00    -0.353 OA
HETATM   23  C   UNK N   1      33.977  13.570   9.140  0.00  0.00     0.210 C 
ENDBRANCH  15  22
TORSDOF 4
ENDMDL
MODEL 4
REMARK VINA RESULT:      -6.2      9.069     14.449
REMARK  4 active torsions:
REMARK  status: ('A' for Active; 'I' for Inactive)
REMARK    1  A    between atoms: O_2  and  C_20 
REMARK    2  A    between atoms: O_3  and  C_21 
REMARK    3  A    between atoms: C_6  and  C_12 
REMARK    4  A    between atoms: C_12  and  C_15 
ROOT
HETATM    1  O   UNK N   1      26.701  14.738   5.694  0.00  0.00    -0.297 OA
HETATM    2  N   UNK N   1      27.032  18.361   3.938  0.00  0.00     0.099 N 
HETATM    3  C   UNK N   1      25.909  18.246   4.876  0.00  0.00     0.263 C 
HETATM    4  C   UNK N   1      28.180  16.344   4.799  0.00  0.00     0.084 C 
HETATM    5  C   UNK N   1      28.224  17.855   4.603  0.00  0.00     0.285 C 
HETATM    6  C   UNK N   1      25.668  16.821   5.410  0.00  0.00     0.119 C 
HETATM    7  C   UNK N   1      27.300  19.795   3.783  0.00  0.00     0.278 C 
HETATM    8  C   UNK N   1      24.665  18.826   4.248  0.00  0.00    -0.015 A 
HETATM    9  C   UNK N   1      26.852  15.901   5.356  0.00  0.00     0.135 C 
HETATM   10  C   UNK N   1      26.131  20.569   3.154  0.00  0.00     0.069 C 
HETATM   11  C   UNK N   1      24.784  19.979   3.456  0.00  0.00    -0.045 A 
HETATM   12  C   UNK N   1      23.409  18.229   4.410  0.00  0.00     0.049 A 
HETATM   13  C   UNK N   1      23.645  20.550   2.883  0.00  0.00     0.047 A 
HETATM   14  C   UNK N   1      22.263  18.786   3.819  0.00  0.00     0.102 A 
HETATM   15  C   UNK N   1      22.379  19.968   3.070  0.00  0.00     0.102 A 
ENDROOT
BRANCH   4  16
HETATM   16  C   UNK N   1      29.317  15.919   5.727  0.00  0.00     0.018 C 
BRANCH  16  17
HETATM   17  C   UNK N   1      30.015  17.112   6.372  0.00  0.00    -0.022 C 
HETATM   18  C   UNK N   1      29.772  17.143   7.870  0.00  0.00     0.009 C 
HETATM   19  C   UNK N   1      31.504  17.007   6.128  0.00  0.00     0.009 C 
ENDBRANCH  16  17
ENDBRANCH   4  16
BRANCH  14  20
HETATM   20  O   UNK N   1      21.048  18.201   3.958  0.00  0.00    -0.353 OA
HETATM   21  C   UNK N   1      20.636  17.129   3.198  0.00  0.00     0.210 C 
ENDBRANCH  14  20
BRANCH  15  22
HETATM   22  O   UNK N   1      21.264  20.519   2.527  0.00  0.00    -0.353 OA
HETATM   23  C   UNK N   1      20.974  20.465   1.183  0.00  0.00     0.210 C 
ENDBRANCH  15  22
TORSDOF 4
ENDMDL
MODEL 5
REMARK VINA RESULT:      -6.1      5.259      8.195
REMARK  4 active torsions:
REMARK  status: ('A' for Active; 'I' for Inactive)
REMARK    1  A    between atoms: O_2  and  C_20 
REMARK    2  A    between atoms: O_3  and  C_21 
REMARK    3  A    between atoms: C_6  and  C_12 
REMARK    4  A    between atoms: C_12  and  C_15 
ROOT
HETATM    1  O   UNK N   1      28.275  18.847   8.014  0.00  0.00    -0.297 OA
HETATM    2  N   UNK N   1      30.210  17.615   4.690  0.00  0.00     0.099 N 
HETATM    3  C   UNK N   1      30.387  16.735   5.851  0.00  0.00     0.263 C 
HETATM    4  C   UNK N   1      28.253  18.782   5.656  0.00  0.00     0.084 C 
HETATM    5  C   UNK N   1      28.788  17.886   4.544  0.00  0.00     0.285 C 
HETATM    6  C   UNK N   1      29.804  17.289   7.164  0.00  0.00     0.119 C 
HETATM    7  C   UNK N   1      30.537  16.813   3.505  0.00  0.00     0.278 C 
HETATM    8  C   UNK N   1      31.845  16.374   5.994  0.00  0.00    -0.015 A 
HETATM    9  C   UNK N   1      28.721  18.316   7.009  0.00  0.00     0.135 C 
HETATM   10  C   UNK N   1      31.999  16.341   3.472  0.00  0.00     0.069 C 
HETATM   11  C   UNK N   1      32.600  16.139   4.834  0.00  0.00    -0.045 A 
HETATM   12  C   UNK N   1      32.468  16.296   7.246  0.00  0.00     0.049 A 
HETATM   13  C   UNK N   1      33.945  15.780   4.939  0.00  0.00     0.047 A 
HETATM   14  C   UNK N   1      33.826  15.956   7.358  0.00  0.00     0.102 A 
HETATM   15  C   UNK N   1      34.563  15.673   6.197  0.00  0.00     0.102 A 
ENDROOT
BRANCH   4  16
HETATM   16  C   UNK N   1      26.727  18.806   5.598  0.00  0.00     0.018 C 
BRANCH  16  17
HETATM   17  C   UNK N   1      26.183  20.175   5.201  0.00  0.00    -0.022 C 
HETATM   18  C   UNK N   1      27.062  21.290   5.740  0.00  0.00     0.009 C 
HETATM   19  C   UNK N   1      26.147  20.277   3.693  0.00  0.00     0.009 C 
ENDBRANCH  16  17
ENDBRANCH   4  16
BRANCH  14  20
HETATM   20  O   UNK N   1      34.436  15.898   8.566  0.00  0.00    -0.353 OA
HETATM   21  C   UNK N   1      34.562  16.987   9.401  0.00  0.00     0.210 C 
ENDBRANCH  14  20
BRANCH  15  22
HETATM   22  O   UNK N   1      35.866  15.314   6.313  0.00  0.00    -0.353 OA
HETATM   23  C   UNK N   1      36.402  14.208   5.691  0.00  0.00     0.210 C 
ENDBRANCH  15  22
TORSDOF 4
ENDMDL
MODEL 6
REMARK VINA RESULT:      -6.1      4.721      8.343
REMARK  4 active torsions:
REMARK  status: ('A' for Active; 'I' for Inactive)
REMARK    1  A    between atoms: O_2  and  C_20 
REMARK    2  A    between atoms: O_3  and  C_21 
REMARK    3  A    between atoms: C_6  and  C_12 
REMARK    4  A    between atoms: C_12  and  C_15 
ROOT
HETATM    1  O   UNK N   1      29.027  16.407   2.716  0.00  0.00    -0.297 OA
HETATM    2  N   UNK N   1      29.096  17.111   6.692  0.00  0.00     0.099 N 
HETATM    3  C   UNK N   1      30.255  17.644   5.966  0.00  0.00     0.263 C 
HETATM    4  C   UNK N   1      27.734  16.813   4.647  0.00  0.00     0.084 C 
HETATM    5  C   UNK N   1      27.894  17.527   5.985  0.00  0.00     0.285 C 
HETATM    6  C   UNK N   1      30.326  17.224   4.486  0.00  0.00     0.119 C 
HETATM    7  C   UNK N   1      29.026  17.845   7.961  0.00  0.00     0.278 C 
HETATM    8  C   UNK N   1      31.521  17.292   6.709  0.00  0.00    -0.015 A 
HETATM    9  C   UNK N   1      29.021  16.821   3.864  0.00  0.00     0.135 C 
HETATM   10  C   UNK N   1      30.247  17.615   8.866  0.00  0.00     0.069 C 
HETATM   11  C   UNK N   1      31.513  17.330   8.112  0.00  0.00    -0.045 A 
HETATM   12  C   UNK N   1      32.687  16.903   6.038  0.00  0.00     0.049 A 
HETATM   13  C   UNK N   1      32.679  17.033   8.823  0.00  0.00     0.047 A 
HETATM   14  C   UNK N   1      33.856  16.582   6.747  0.00  0.00     0.102 A 
HETATM   15  C   UNK N   1      33.857  16.671   8.149  0.00  0.00     0.102 A 
ENDROOT
BRANCH   4  16
HETATM   16  C   UNK N   1      26.617  17.481   3.846  0.00  0.00     0.018 C 
BRANCH  16  17
HETATM   17  C   UNK N   1      26.213  18.831   4.429  0.00  0.00    -0.022 C 
HETATM   18  C   UNK N   1      26.739  19.973   3.578  0.00  0.00     0.009 C 
HETATM   19  C   UNK N   1      24.704  18.920   4.475  0.00  0.00     0.009 C 
ENDBRANCH  16  17
ENDBRANCH   4  16
BRANCH  14  20
HETATM   20  O   UNK N   1      34.981  16.188   6.103  0.00  0.00    -0.353 OA
HETATM   21  C   UNK N   1      35.068  15.012   5.390  0.00  0.00     0.210 C 
ENDBRANCH  14  20
BRANCH  15  22
HETATM   22  O   UNK N   1      34.999  16.391   8.828  0.00  0.00    -0.353 OA
HETATM   23  C   UNK N   1      35.148  16.619  10.177  0.00  0.00     0.210 C 
ENDBRANCH  15  22
TORSDOF 4
ENDMDL
MODEL 7
REMARK VINA RESULT:      -5.8      2.957      7.269
REMARK  4 active torsions:
REMARK  status: ('A' for Active; 'I' for Inactive)
REMARK    1  A    between atoms: O_2  and  C_20 
REMARK    2  A    between atoms: O_3  and  C_21 
REMARK    3  A    between atoms: C_6  and  C_12 
REMARK    4  A    between atoms: C_12  and  C_15 
ROOT
HETATM    1  O   UNK N   1      33.823  12.912  15.814  0.00  0.00    -0.297 OA
HETATM    2  N   UNK N   1      36.118  10.621  13.408  0.00  0.00     0.099 N 
HETATM    3  C   UNK N   1      36.583  12.007  13.542  0.00  0.00     0.263 C 
HETATM    4  C   UNK N   1      34.643  10.742  15.392  0.00  0.00     0.084 C 
HETATM    5  C   UNK N   1      35.866  10.102  14.743  0.00  0.00     0.285 C 
HETATM    6  C   UNK N   1      35.617  12.930  14.308  0.00  0.00     0.119 C 
HETATM    7  C   UNK N   1      37.269   9.840  12.940  0.00  0.00     0.278 C 
HETATM    8  C   UNK N   1      36.922  12.560  12.179  0.00  0.00    -0.015 A 
HETATM    9  C   UNK N   1      34.662  12.240  15.238  0.00  0.00     0.135 C 
HETATM   10  C   UNK N   1      37.770  10.265  11.551  0.00  0.00     0.069 C 
HETATM   11  C   UNK N   1      37.541  11.716  11.244  0.00  0.00    -0.045 A 
HETATM   12  C   UNK N   1      36.611  13.877  11.818  0.00  0.00     0.049 A 
HETATM   13  C   UNK N   1      37.888  12.210   9.984  0.00  0.00     0.047 A 
HETATM   14  C   UNK N   1      36.938  14.373  10.545  0.00  0.00     0.102 A 
HETATM   15  C   UNK N   1      37.603  13.540   9.631  0.00  0.00     0.102 A 
ENDROOT
BRANCH   4  16
HETATM   16  C   UNK N   1      34.593  10.357  16.870  0.00  0.00     0.018 C 
BRANCH  16  17
HETATM   17  C   UNK N   1      35.794  10.886  17.647  0.00  0.00    -0.022 C 
HETATM   18  C   UNK N   1      35.354  11.812  18.768  0.00  0.00     0.009 C 
HETATM   19  C   UNK N   1      36.545   9.721  18.252  0.00  0.00     0.009 C 
ENDBRANCH  16  17
ENDBRANCH   4  16
BRANCH  14  20
HETATM   20  O   UNK N   1      36.622  15.640  10.185  0.00  0.00    -0.353 OA
HETATM   21  C   UNK N   1      35.663  16.391  10.830  0.00  0.00     0.210 C 
ENDBRANCH  14  20
BRANCH  15  22
HETATM   22  O   UNK N   1      37.945  14.035   8.414  0.00  0.00    -0.353 OA
HETATM   23  C   UNK N   1      38.844  13.416   7.575  0.00  0.00     0.210 C 
ENDBRANCH  15  22
TORSDOF 4
ENDMDL
MODEL 8
REMARK VINA RESULT:      -5.8      8.759     13.729
REMARK  4 active torsions:
REMARK  status: ('A' for Active; 'I' for Inactive)
REMARK    1  A    between atoms: O_2  and  C_20 
REMARK    2  A    between atoms: O_3  and  C_21 
REMARK    3  A    between atoms: C_6  and  C_12 
REMARK    4  A    between atoms: C_12  and  C_15 
ROOT
HETATM    1  O   UNK N   1      28.424  15.058   5.489  0.00  0.00    -0.297 OA
HETATM    2  N   UNK N   1      27.481  18.657   3.918  0.00  0.00     0.099 N 
HETATM    3  C   UNK N   1      26.577  18.210   4.985  0.00  0.00     0.263 C 
HETATM    4  C   UNK N   1      29.255  17.034   4.505  0.00  0.00     0.084 C 
HETATM    5  C   UNK N   1      28.847  18.499   4.393  0.00  0.00     0.285 C 
HETATM    6  C   UNK N   1      26.821  16.766   5.462  0.00  0.00     0.119 C 
HETATM    7  C   UNK N   1      27.313  20.111   3.813  0.00  0.00     0.278 C 
HETATM    8  C   UNK N   1      25.146  18.424   4.557  0.00  0.00    -0.015 A 
HETATM    9  C   UNK N   1      28.196  16.221   5.202  0.00  0.00     0.135 C 
HETATM   10  C   UNK N   1      25.898  20.532   3.386  0.00  0.00     0.069 C 
HETATM   11  C   UNK N   1      24.826  19.577   3.825  0.00  0.00    -0.045 A 
HETATM   12  C   UNK N   1      24.142  17.491   4.846  0.00  0.00     0.049 A 
HETATM   13  C   UNK N   1      23.504  19.812   3.438  0.00  0.00     0.047 A 
HETATM   14  C   UNK N   1      22.815  17.710   4.441  0.00  0.00     0.102 A 
HETATM   15  C   UNK N   1      22.491  18.890   3.753  0.00  0.00     0.102 A 
ENDROOT
BRANCH   4  16
HETATM   16  C   UNK N   1      30.584  16.933   5.252  0.00  0.00     0.018 C 
BRANCH  16  17
HETATM   17  C   UNK N   1      31.735  17.563   4.476  0.00  0.00    -0.022 C 
HETATM   18  C   UNK N   1      33.017  17.546   5.289  0.00  0.00     0.009 C 
HETATM   19  C   UNK N   1      31.963  16.778   3.203  0.00  0.00     0.009 C 
ENDBRANCH  16  17
ENDBRANCH   4  16
BRANCH  14  20
HETATM   20  O   UNK N   1      21.844  16.802   4.701  0.00  0.00    -0.353 OA
HETATM   21  C   UNK N   1      21.498  16.413   5.976  0.00  0.00     0.210 C 
ENDBRANCH  14  20
BRANCH  15  22
HETATM   22  O   UNK N   1      21.201  19.112   3.392  0.00  0.00    -0.353 OA
HETATM   23  C   UNK N   1      20.731  20.342   2.992  0.00  0.00     0.210 C 
ENDBRANCH  15  22
TORSDOF 4
ENDMDL
MODEL 9
REMARK VINA RESULT:      -5.7      3.894      9.400
REMARK  4 active torsions:
REMARK  status: ('A' for Active; 'I' for Inactive)
REMARK    1  A    between atoms: O_2  and  C_20 
REMARK    2  A    between atoms: O_3  and  C_21 
REMARK    3  A    between atoms: C_6  and  C_12 
REMARK    4  A    between atoms: C_12  and  C_15 
ROOT
HETATM    1  O   UNK N   1      35.182   7.529  18.181  0.00  0.00    -0.297 OA
HETATM    2  N   UNK N   1      35.499  11.550  18.381  0.00  0.00     0.099 N 
HETATM    3  C   UNK N   1      34.817  11.059  17.178  0.00  0.00     0.263 C 
HETATM    4  C   UNK N   1      35.257   9.411  19.602  0.00  0.00     0.084 C 
HETATM    5  C   UNK N   1      34.904  10.892  19.535  0.00  0.00     0.285 C 
HETATM    6  C   UNK N   1      34.852   9.529  17.007  0.00  0.00     0.119 C 
HETATM    7  C   UNK N   1      35.106  12.956  18.539  0.00  0.00     0.278 C 
HETATM    8  C   UNK N   1      35.359  11.771  15.963  0.00  0.00    -0.015 A 
HETATM    9  C   UNK N   1      35.069   8.741  18.265  0.00  0.00     0.135 C 
HETATM   10  C   UNK N   1      35.571  13.852  17.380  0.00  0.00     0.069 C 
HETATM   11  C   UNK N   1      35.674  13.135  16.065  0.00  0.00    -0.045 A 
HETATM   12  C   UNK N   1      35.582  11.102  14.753  0.00  0.00     0.049 A 
HETATM   13  C   UNK N   1      36.155  13.824  14.949  0.00  0.00     0.047 A 
HETATM   14  C   UNK N   1      36.086  11.784  13.633  0.00  0.00     0.102 A 
HETATM   15  C   UNK N   1      36.352  13.159  13.726  0.00  0.00     0.102 A 
ENDROOT
BRANCH   4  16
HETATM   16  C   UNK N   1      34.395   8.731  20.665  0.00  0.00     0.018 C 
BRANCH  16  17
HETATM   17  C   UNK N   1      32.947   9.208  20.629  0.00  0.00    -0.022 C 
HETATM   18  C   UNK N   1      32.024   8.115  20.119  0.00  0.00     0.009 C 
HETATM   19  C   UNK N   1      32.514   9.589  22.028  0.00  0.00     0.009 C 
ENDBRANCH  16  17
ENDBRANCH   4  16
BRANCH  14  20
HETATM   20  O   UNK N   1      36.321  11.136  12.467  0.00  0.00    -0.353 OA
HETATM   21  C   UNK N   1      35.341  10.889  11.531  0.00  0.00     0.210 C 
ENDBRANCH  14  20
BRANCH  15  22
HETATM   22  O   UNK N   1      36.808  13.820  12.632  0.00  0.00    -0.353 OA
HETATM   23  C   UNK N   1      36.057  14.743  11.941  0.00  0.00     0.210 C 
ENDBRANCH  15  22
TORSDOF 4
ENDMDL
