MODEL 1
REMARK VINA RESULT:      -4.6      0.000      0.000
REMARK  8 active torsions:
REMARK  status: ('A' for Active; 'I' for Inactive)
REMARK    1  A    between atoms: C_2  and  N_1 
REMARK    2  A    between atoms: C_2  and  C_3 
REMARK    3  A    between atoms: C_2  and  C_9 
REMARK    4  A    between atoms: C_3  and  S_4 
REMARK    5  A    between atoms: S_4  and  C_5 
REMARK    6  A    between atoms: C_5  and  C_6 
REMARK    7  A    between atoms: C_6  and  O_7 
REMARK    8  A    between atoms: C_9  and  O_10 
ROOT
HETATM    1  C   UNK N   1      20.488  19.510   2.252  0.00  0.00     0.182 C 
ENDROOT
BRANCH   1   2
HETATM    2  N   UNK N   1      19.557  18.461   1.872  0.00  0.00    -0.417 N 
HETATM    3  H   UNK N   1      18.648  18.704   1.478  0.00  0.00     0.150 HD
HETATM    4  H   UNK N   1      19.812  17.481   1.998  0.00  0.00     0.150 HD
ENDBRANCH   1   2
BRANCH   1   5
HETATM    5  C   UNK N   1      21.065  19.406   3.673  0.00  0.00     0.110 C 
BRANCH   5   6
HETATM    6  S   UNK N   1      22.514  18.306   3.805  0.00  0.00    -0.156 SA
BRANCH   6   7
HETATM    7  C   UNK N   1      23.961  19.449   3.791  0.00  0.00     0.183 C 
BRANCH   7   8
HETATM    8  C   UNK N   1      24.041  20.660   2.902  0.00  0.00     0.149 C 
HETATM    9  O   UNK N   1      23.306  21.621   3.047  0.00  0.00    -0.649 OA
BRANCH   8  10
HETATM   10  O   UNK N   1      24.958  20.674   1.917  0.00  0.00    -0.776 OA
HETATM   11  H   UNK N   1      25.523  21.415   1.814  0.00  0.00     0.167 HD
ENDBRANCH   8  10
ENDBRANCH   7   8
ENDBRANCH   6   7
ENDBRANCH   5   6
ENDBRANCH   1   5
BRANCH   1  12
HETATM   12  C   UNK N   1      20.769  20.563   1.207  0.00  0.00     0.163 C 
HETATM   13  O   UNK N   1      20.921  20.263   0.035  0.00  0.00    -0.648 OA
BRANCH  12  14
HETATM   14  O   UNK N   1      20.855  21.857   1.569  0.00  0.00    -0.775 OA
HETATM   15  H   UNK N   1      21.453  22.117   2.243  0.00  0.00     0.167 HD
ENDBRANCH  12  14
ENDBRANCH   1  12
TORSDOF 8
ENDMDL
MODEL 2
REMARK VINA RESULT:      -4.5     15.092     17.002
REMARK  8 active torsions:
REMARK  status: ('A' for Active; 'I' for Inactive)
REMARK    1  A    between atoms: C_2  and  N_1 
REMARK    2  A    between atoms: C_2  and  C_3 
REMARK    3  A    between atoms: C_2  and  C_9 
REMARK    4  A    between atoms: C_3  and  S_4 
REMARK    5  A    between atoms: S_4  and  C_5 
REMARK    6  A    between atoms: C_5  and  C_6 
REMARK    7  A    between atoms: C_6  and  O_7 
REMARK    8  A    between atoms: C_9  and  O_10 
ROOT
HETATM    1  C   UNK N   1      36.481  14.261  11.539  0.00  0.00     0.182 C 
ENDROOT
BRANCH   1   2
HETATM    2  N   UNK N   1      37.749  13.604  11.269  0.00  0.00    -0.417 N 
HETATM    3  H   UNK N   1      37.889  12.633  11.547  0.00  0.00     0.150 HD
HETATM    4  H   UNK N   1      38.499  14.115  10.802  0.00  0.00     0.150 HD
ENDBRANCH   1   2
BRANCH   1   5
HETATM    5  C   UNK N   1      35.781  14.885  10.322  0.00  0.00     0.110 C 
BRANCH   5   6
HETATM    6  S   UNK N   1      35.364  16.649  10.531  0.00  0.00    -0.156 SA
BRANCH   6   7
HETATM    7  C   UNK N   1      34.341  17.058   9.052  0.00  0.00     0.183 C 
BRANCH   7   8
HETATM    8  C   UNK N   1      34.666  18.192   8.118  0.00  0.00     0.149 C 
HETATM    9  O   UNK N   1      34.352  18.173   6.941  0.00  0.00    -0.649 OA
BRANCH   8  10
HETATM   10  O   UNK N   1      35.325  19.258   8.607  0.00  0.00    -0.776 OA
HETATM   11  H   UNK N   1      35.508  19.990   8.052  0.00  0.00     0.167 HD
ENDBRANCH   8  10
ENDBRANCH   7   8
ENDBRANCH   6   7
ENDBRANCH   5   6
ENDBRANCH   1   5
BRANCH   1  12
HETATM   12  C   UNK N   1      36.014  14.246  12.976  0.00  0.00     0.163 C 
HETATM   13  O   UNK N   1      34.936  13.768  13.283  0.00  0.00    -0.648 OA
BRANCH  12  14
HETATM   14  O   UNK N   1      36.799  14.767  13.938  0.00  0.00    -0.775 OA
HETATM   15  H   UNK N   1      37.067  15.664  13.890  0.00  0.00     0.167 HD
ENDBRANCH  12  14
ENDBRANCH   1  12
TORSDOF 8
ENDMDL
MODEL 3
REMARK VINA RESULT:      -4.5     14.034     15.785
REMARK  8 active torsions:
REMARK  status: ('A' for Active; 'I' for Inactive)
REMARK    1  A    between atoms: C_2  and  N_1 
REMARK    2  A    between atoms: C_2  and  C_3 
REMARK    3  A    between atoms: C_2  and  C_9 
REMARK    4  A    between atoms: C_3  and  S_4 
REMARK    5  A    between atoms: S_4  and  C_5 
REMARK    6  A    between atoms: C_5  and  C_6 
REMARK    7  A    between atoms: C_6  and  O_7 
REMARK    8  A    between atoms: C_9  and  O_10 
ROOT
HETATM    1  C   UNK N   1      34.382  17.073   9.047  0.00  0.00     0.182 C 
ENDROOT
BRANCH   1   2
HETATM    2  N   UNK N   1      34.828  17.232  10.421  0.00  0.00    -0.417 N 
HETATM    3  H   UNK N   1      34.735  16.459  11.079  0.00  0.00     0.150 HD
HETATM    4  H   UNK N   1      35.234  18.117  10.727  0.00  0.00     0.150 HD
ENDBRANCH   1   2
BRANCH   1   5
HETATM    5  C   UNK N   1      33.676  15.747   8.724  0.00  0.00     0.110 C 
BRANCH   5   6
HETATM    6  S   UNK N   1      34.287  14.327   9.694  0.00  0.00    -0.156 SA
BRANCH   6   7
HETATM    7  C   UNK N   1      36.056  14.161   9.198  0.00  0.00     0.183 C 
BRANCH   7   8
HETATM    8  C   UNK N   1      37.200  14.478  10.122  0.00  0.00     0.149 C 
HETATM    9  O   UNK N   1      38.049  13.654  10.410  0.00  0.00    -0.649 OA
BRANCH   8  10
HETATM   10  O   UNK N   1      37.281  15.717  10.641  0.00  0.00    -0.776 OA
HETATM   11  H   UNK N   1      36.868  16.435  10.204  0.00  0.00     0.167 HD
ENDBRANCH   8  10
ENDBRANCH   7   8
ENDBRANCH   6   7
ENDBRANCH   5   6
ENDBRANCH   1   5
BRANCH   1  12
HETATM   12  C   UNK N   1      34.669  18.227   8.115  0.00  0.00     0.163 C 
HETATM   13  O   UNK N   1      35.229  19.234   8.514  0.00  0.00    -0.648 OA
BRANCH  12  14
HETATM   14  O   UNK N   1      34.303  18.148   6.822  0.00  0.00    -0.775 OA
HETATM   15  H   UNK N   1      33.407  18.277   6.579  0.00  0.00     0.167 HD
ENDBRANCH  12  14
ENDBRANCH   1  12
TORSDOF 8
ENDMDL
MODEL 4
REMARK VINA RESULT:      -4.4     14.225     15.859
REMARK  8 active torsions:
REMARK  status: ('A' for Active; 'I' for Inactive)
REMARK    1  A    between atoms: C_2  and  N_1 
REMARK    2  A    between atoms: C_2  and  C_3 
REMARK    3  A    between atoms: C_2  and  C_9 
REMARK    4  A    between atoms: C_3  and  S_4 
REMARK    5  A    between atoms: S_4  and  C_5 
REMARK    6  A    between atoms: C_5  and  C_6 
REMARK    7  A    between atoms: C_6  and  O_7 
REMARK    8  A    between atoms: C_9  and  O_10 
ROOT
HETATM    1  C   UNK N   1      34.655  17.026   9.071  0.00  0.00     0.182 C 
ENDROOT
BRANCH   1   2
HETATM    2  N   UNK N   1      34.971  17.292  10.465  0.00  0.00    -0.417 N 
HETATM    3  H   UNK N   1      34.503  18.053  10.957  0.00  0.00     0.150 HD
HETATM    4  H   UNK N   1      35.660  16.717  10.951  0.00  0.00     0.150 HD
ENDBRANCH   1   2
BRANCH   1   5
HETATM    5  C   UNK N   1      34.306  15.567   8.734  0.00  0.00     0.110 C 
BRANCH   5   6
HETATM    6  S   UNK N   1      35.620  14.374   9.156  0.00  0.00    -0.156 SA
BRANCH   6   7
HETATM    7  C   UNK N   1      35.051  13.602  10.731  0.00  0.00     0.183 C 
BRANCH   7   8
HETATM    8  C   UNK N   1      35.402  14.151  12.088  0.00  0.00     0.149 C 
HETATM    9  O   UNK N   1      34.866  13.753  13.107  0.00  0.00    -0.649 OA
BRANCH   8  10
HETATM   10  O   UNK N   1      36.341  15.111  12.168  0.00  0.00    -0.776 OA
HETATM   11  H   UNK N   1      36.103  16.009  12.046  0.00  0.00     0.167 HD
ENDBRANCH   8  10
ENDBRANCH   7   8
ENDBRANCH   6   7
ENDBRANCH   5   6
ENDBRANCH   1   5
BRANCH   1  12
HETATM   12  C   UNK N   1      34.710  18.211   8.137  0.00  0.00     0.163 C 
HETATM   13  O   UNK N   1      35.122  19.294   8.517  0.00  0.00    -0.648 OA
BRANCH  12  14
HETATM   14  O   UNK N   1      34.300  18.076   6.862  0.00  0.00    -0.775 OA
HETATM   15  H   UNK N   1      33.717  17.380   6.628  0.00  0.00     0.167 HD
ENDBRANCH  12  14
ENDBRANCH   1  12
TORSDOF 8
ENDMDL
MODEL 5
REMARK VINA RESULT:      -4.4      2.800      3.452
REMARK  8 active torsions:
REMARK  status: ('A' for Active; 'I' for Inactive)
REMARK    1  A    between atoms: C_2  and  N_1 
REMARK    2  A    between atoms: C_2  and  C_3 
REMARK    3  A    between atoms: C_2  and  C_9 
REMARK    4  A    between atoms: C_3  and  S_4 
REMARK    5  A    between atoms: S_4  and  C_5 
REMARK    6  A    between atoms: C_5  and  C_6 
REMARK    7  A    between atoms: C_6  and  O_7 
REMARK    8  A    between atoms: C_9  and  O_10 
ROOT
HETATM    1  C   UNK N   1      20.251  19.132   2.312  0.00  0.00     0.182 C 
ENDROOT
BRANCH   1   2
HETATM    2  N   UNK N   1      18.839  18.804   2.220  0.00  0.00    -0.417 N 
HETATM    3  H   UNK N   1      18.550  17.849   2.006  0.00  0.00     0.150 HD
HETATM    4  H   UNK N   1      18.135  19.528   2.369  0.00  0.00     0.150 HD
ENDBRANCH   1   2
BRANCH   1   5
HETATM    5  C   UNK N   1      21.057  18.326   3.344  0.00  0.00     0.110 C 
BRANCH   5   6
HETATM    6  S   UNK N   1      20.165  16.884   4.017  0.00  0.00    -0.156 SA
BRANCH   6   7
HETATM    7  C   UNK N   1      20.551  16.906   5.820  0.00  0.00     0.183 C 
BRANCH   7   8
HETATM    8  C   UNK N   1      21.345  18.003   6.477  0.00  0.00     0.149 C 
HETATM    9  O   UNK N   1      20.830  18.822   7.218  0.00  0.00    -0.649 OA
BRANCH   8  10
HETATM   10  O   UNK N   1      22.666  18.075   6.231  0.00  0.00    -0.776 OA
HETATM   11  H   UNK N   1      23.135  18.864   6.418  0.00  0.00     0.167 HD
ENDBRANCH   8  10
ENDBRANCH   7   8
ENDBRANCH   6   7
ENDBRANCH   5   6
ENDBRANCH   1   5
BRANCH   1  12
HETATM   12  C   UNK N   1      20.746  20.219   1.386  0.00  0.00     0.163 C 
HETATM   13  O   UNK N   1      21.248  21.239   1.825  0.00  0.00    -0.648 OA
BRANCH  12  14
HETATM   14  O   UNK N   1      20.632  20.063   0.054  0.00  0.00    -0.775 OA
HETATM   15  H   UNK N   1      20.945  20.731  -0.525  0.00  0.00     0.167 HD
ENDBRANCH  12  14
ENDBRANCH   1  12
TORSDOF 8
ENDMDL
MODEL 6
REMARK VINA RESULT:      -4.3      2.616      4.178
REMARK  8 active torsions:
REMARK  status: ('A' for Active; 'I' for Inactive)
REMARK    1  A    between atoms: C_2  and  N_1 
REMARK    2  A    between atoms: C_2  and  C_3 
REMARK    3  A    between atoms: C_2  and  C_9 
REMARK    4  A    between atoms: C_3  and  S_4 
REMARK    5  A    between atoms: S_4  and  C_5 
REMARK    6  A    between atoms: C_5  and  C_6 
REMARK    7  A    between atoms: C_6  and  O_7 
REMARK    8  A    between atoms: C_9  and  O_10 
ROOT
HETATM    1  C   UNK N   1      20.694  19.755   2.355  0.00  0.00     0.182 C 
ENDROOT
BRANCH   1   2
HETATM    2  N   UNK N   1      21.909  19.701   3.152  0.00  0.00    -0.417 N 
HETATM    3  H   UNK N   1      22.318  20.560   3.516  0.00  0.00     0.150 HD
HETATM    4  H   UNK N   1      22.351  18.802   3.346  0.00  0.00     0.150 HD
ENDBRANCH   1   2
BRANCH   1   5
HETATM    5  C   UNK N   1      19.513  18.925   2.883  0.00  0.00     0.110 C 
BRANCH   5   6
HETATM    6  S   UNK N   1      19.977  17.251   3.441  0.00  0.00    -0.156 SA
BRANCH   6   7
HETATM    7  C   UNK N   1      20.709  16.454   1.948  0.00  0.00     0.183 C 
BRANCH   7   8
HETATM    8  C   UNK N   1      20.001  16.391   0.621  0.00  0.00     0.149 C 
HETATM    9  O   UNK N   1      19.236  15.487   0.337  0.00  0.00    -0.649 OA
BRANCH   8  10
HETATM   10  O   UNK N   1      20.227  17.370  -0.274  0.00  0.00    -0.776 OA
HETATM   11  H   UNK N   1      19.623  18.082  -0.352  0.00  0.00     0.167 HD
ENDBRANCH   8  10
ENDBRANCH   7   8
ENDBRANCH   6   7
ENDBRANCH   5   6
ENDBRANCH   1   5
BRANCH   1  12
HETATM   12  C   UNK N   1      20.747  20.617   1.116  0.00  0.00     0.163 C 
HETATM   13  O   UNK N   1      20.855  21.829   1.196  0.00  0.00    -0.648 OA
BRANCH  12  14
HETATM   14  O   UNK N   1      20.674  20.044  -0.100  0.00  0.00    -0.775 OA
HETATM   15  H   UNK N   1      20.706  19.110  -0.181  0.00  0.00     0.167 HD
ENDBRANCH  12  14
ENDBRANCH   1  12
TORSDOF 8
ENDMDL
MODEL 7
REMARK VINA RESULT:      -4.3      9.734     11.215
REMARK  8 active torsions:
REMARK  status: ('A' for Active; 'I' for Inactive)
REMARK    1  A    between atoms: C_2  and  N_1 
REMARK    2  A    between atoms: C_2  and  C_3 
REMARK    3  A    between atoms: C_2  and  C_9 
REMARK    4  A    between atoms: C_3  and  S_4 
REMARK    5  A    between atoms: S_4  and  C_5 
REMARK    6  A    between atoms: C_5  and  C_6 
REMARK    7  A    between atoms: C_6  and  O_7 
REMARK    8  A    between atoms: C_9  and  O_10 
ROOT
HETATM    1  C   UNK N   1      29.604  17.806   7.962  0.00  0.00     0.182 C 
ENDROOT
BRANCH   1   2
HETATM    2  N   UNK N   1      29.516  16.771   6.946  0.00  0.00    -0.417 N 
HETATM    3  H   UNK N   1      30.124  15.954   6.996  0.00  0.00     0.150 HD
HETATM    4  H   UNK N   1      28.846  16.862   6.181  0.00  0.00     0.150 HD
ENDBRANCH   1   2
BRANCH   1   5
HETATM    5  C   UNK N   1      30.999  18.030   8.567  0.00  0.00     0.110 C 
BRANCH   5   6
HETATM    6  S   UNK N   1      32.064  16.549   8.539  0.00  0.00    -0.156 SA
BRANCH   6   7
HETATM    7  C   UNK N   1      33.760  17.197   8.861  0.00  0.00     0.183 C 
BRANCH   7   8
HETATM    8  C   UNK N   1      34.446  18.186   7.958  0.00  0.00     0.149 C 
HETATM    9  O   UNK N   1      35.039  19.158   8.392  0.00  0.00    -0.649 OA
BRANCH   8  10
HETATM   10  O   UNK N   1      34.397  17.983   6.629  0.00  0.00    -0.776 OA
HETATM   11  H   UNK N   1      33.577  18.029   6.178  0.00  0.00     0.167 HD
ENDBRANCH   8  10
ENDBRANCH   7   8
ENDBRANCH   6   7
ENDBRANCH   5   6
ENDBRANCH   1   5
BRANCH   1  12
HETATM   12  C   UNK N   1      28.318  18.527   8.292  0.00  0.00     0.163 C 
HETATM   13  O   UNK N   1      27.931  19.466   7.617  0.00  0.00    -0.648 OA
BRANCH  12  14
HETATM   14  O   UNK N   1      27.583  18.131   9.348  0.00  0.00    -0.775 OA
HETATM   15  H   UNK N   1      26.819  18.615   9.597  0.00  0.00     0.167 HD
ENDBRANCH  12  14
ENDBRANCH   1  12
TORSDOF 8
ENDMDL
MODEL 8
REMARK VINA RESULT:      -4.3     10.103     12.095
REMARK  8 active torsions:
REMARK  status: ('A' for Active; 'I' for Inactive)
REMARK    1  A    between atoms: C_2  and  N_1 
REMARK    2  A    between atoms: C_2  and  C_3 
REMARK    3  A    between atoms: C_2  and  C_9 
REMARK    4  A    between atoms: C_3  and  S_4 
REMARK    5  A    between atoms: S_4  and  C_5 
REMARK    6  A    between atoms: C_5  and  C_6 
REMARK    7  A    between atoms: C_6  and  O_7 
REMARK    8  A    between atoms: C_9  and  O_10 
ROOT
HETATM    1  C   UNK N   1      32.900  17.582   8.531  0.00  0.00     0.182 C 
ENDROOT
BRANCH   1   2
HETATM    2  N   UNK N   1      33.283  16.528   9.456  0.00  0.00    -0.417 N 
HETATM    3  H   UNK N   1      33.435  16.744  10.440  0.00  0.00     0.150 HD
HETATM    4  H   UNK N   1      33.399  15.571   9.120  0.00  0.00     0.150 HD
ENDBRANCH   1   2
BRANCH   1   5
HETATM    5  C   UNK N   1      31.398  17.903   8.471  0.00  0.00     0.110 C 
BRANCH   5   6
HETATM    6  S   UNK N   1      30.536  17.150   7.051  0.00  0.00    -0.156 SA
BRANCH   6   7
HETATM    7  C   UNK N   1      28.763  17.111   7.557  0.00  0.00     0.183 C 
BRANCH   7   8
HETATM    8  C   UNK N   1      28.267  17.693   8.853  0.00  0.00     0.149 C 
HETATM    9  O   UNK N   1      28.304  17.070   9.900  0.00  0.00    -0.649 OA
BRANCH   8  10
HETATM   10  O   UNK N   1      27.769  18.942   8.847  0.00  0.00    -0.776 OA
HETATM   11  H   UNK N   1      28.236  19.635   9.271  0.00  0.00     0.167 HD
ENDBRANCH   8  10
ENDBRANCH   7   8
ENDBRANCH   6   7
ENDBRANCH   5   6
ENDBRANCH   1   5
BRANCH   1  12
HETATM   12  C   UNK N   1      34.023  18.224   7.750  0.00  0.00     0.163 C 
HETATM   13  O   UNK N   1      34.185  17.981   6.566  0.00  0.00    -0.648 OA
BRANCH  12  14
HETATM   14  O   UNK N   1      34.860  19.079   8.366  0.00  0.00    -0.775 OA
HETATM   15  H   UNK N   1      35.215  19.809   7.897  0.00  0.00     0.167 HD
ENDBRANCH  12  14
ENDBRANCH   1  12
TORSDOF 8
ENDMDL
MODEL 9
REMARK VINA RESULT:      -4.3     13.197     14.626
REMARK  8 active torsions:
REMARK  status: ('A' for Active; 'I' for Inactive)
REMARK    1  A    between atoms: C_2  and  N_1 
REMARK    2  A    between atoms: C_2  and  C_3 
REMARK    3  A    between atoms: C_2  and  C_9 
REMARK    4  A    between atoms: C_3  and  S_4 
REMARK    5  A    between atoms: S_4  and  C_5 
REMARK    6  A    between atoms: C_5  and  C_6 
REMARK    7  A    between atoms: C_6  and  O_7 
REMARK    8  A    between atoms: C_9  and  O_10 
ROOT
HETATM    1  C   UNK N   1      33.201  16.922   8.110  0.00  0.00     0.182 C 
ENDROOT
BRANCH   1   2
HETATM    2  N   UNK N   1      32.201  17.437   9.031  0.00  0.00    -0.417 N 
HETATM    3  H   UNK N   1      31.573  16.794   9.513  0.00  0.00     0.150 HD
HETATM    4  H   UNK N   1      32.127  18.441   9.195  0.00  0.00     0.150 HD
ENDBRANCH   1   2
BRANCH   1   5
HETATM    5  C   UNK N   1      33.182  15.402   7.887  0.00  0.00     0.110 C 
BRANCH   5   6
HETATM    6  S   UNK N   1      33.862  14.440   9.281  0.00  0.00    -0.156 SA
BRANCH   6   7
HETATM    7  C   UNK N   1      35.546  15.143   9.545  0.00  0.00     0.183 C 
BRANCH   7   8
HETATM    8  C   UNK N   1      35.869  16.106  10.656  0.00  0.00     0.149 C 
HETATM    9  O   UNK N   1      35.622  17.296  10.575  0.00  0.00    -0.649 OA
BRANCH   8  10
HETATM   10  O   UNK N   1      36.449  15.628  11.772  0.00  0.00    -0.776 OA
HETATM   11  H   UNK N   1      35.948  15.119  12.379  0.00  0.00     0.167 HD
ENDBRANCH   8  10
ENDBRANCH   7   8
ENDBRANCH   6   7
ENDBRANCH   5   6
ENDBRANCH   1   5
BRANCH   1  12
HETATM   12  C   UNK N   1      34.127  17.944   7.492  0.00  0.00     0.163 C 
HETATM   13  O   UNK N   1      34.333  17.961   6.291  0.00  0.00    -0.648 OA
BRANCH  12  14
HETATM   14  O   UNK N   1      34.737  18.852   8.277  0.00  0.00    -0.775 OA
HETATM   15  H   UNK N   1      35.414  18.583   8.867  0.00  0.00     0.167 HD
ENDBRANCH  12  14
ENDBRANCH   1  12
TORSDOF 8
ENDMDL
