MODEL 1
REMARK VINA RESULT:      -7.3      0.000      0.000
REMARK  5 active torsions:
REMARK  status: ('A' for Active; 'I' for Inactive)
REMARK    1  A    between atoms: N_5  and  C_8 
REMARK    2  A    between atoms: N_15  and  C_23 
REMARK    3  A    between atoms: C_17  and  C_20 
REMARK    4  A    between atoms: C_20  and  O_22 
REMARK    5  A    between atoms: C_23  and  C_24 
ROOT
HETATM    1  C   UNK N   1      29.640  16.572   4.750  0.00  0.00     0.111 A 
HETATM    2  C   UNK N   1      30.807  16.832   3.989  0.00  0.00     0.147 A 
HETATM    3  C   UNK N   1      31.988  17.210   4.613  0.00  0.00     0.062 A 
HETATM    4  C   UNK N   1      32.066  17.351   5.997  0.00  0.00     0.048 A 
HETATM    5  C   UNK N   1      30.917  17.146   6.799  0.00  0.00     0.090 A 
HETATM    6  C   UNK N   1      29.700  16.768   6.160  0.00  0.00     0.173 A 
HETATM    7  F   UNK N   1      28.581  16.577   6.899  0.00  0.00    -0.201 F 
HETATM    8  N   UNK N   1      31.018  17.308   8.170  0.00  0.00    -0.350 N 
HETATM    9  C   UNK N   1      32.208  17.630   8.748  0.00  0.00     0.114 A 
HETATM   10  C   UNK N   1      33.370  17.812   7.994  0.00  0.00     0.104 A 
HETATM   11  C   UNK N   1      33.290  17.685   6.598  0.00  0.00     0.202 A 
HETATM   12  O   UNK N   1      34.283  17.849   5.905  0.00  0.00    -0.286 OA
HETATM   13  F   UNK N   1      30.829  16.691   2.641  0.00  0.00    -0.204 F 
ENDROOT
BRANCH   1  14
HETATM   14  N   UNK N   1      28.435  16.079   4.117  0.00  0.00    -0.372 N 
HETATM   15  C   UNK N   1      28.306  14.685   3.733  0.00  0.00     0.153 C 
HETATM   16  C   UNK N   1      26.886  14.199   4.007  0.00  0.00     0.291 C 
HETATM   17  N   UNK N   1      25.941  15.068   3.311  0.00  0.00     0.087 N 
HETATM   18  C   UNK N   1      24.607  14.562   3.574  0.00  0.00     0.310 C 
HETATM   19  C   UNK N   1      26.031  16.408   3.889  0.00  0.00     0.291 C 
HETATM   20  C   UNK N   1      27.419  16.983   3.612  0.00  0.00     0.153 C 
ENDBRANCH   1  14
BRANCH   8  21
HETATM   21  C   UNK N   1      29.886  17.169   9.084  0.00  0.00     0.160 C 
BRANCH  21  22
HETATM   22  C   UNK N   1      29.461  18.513   9.653  0.00  0.00     0.242 C 
HETATM   23  F   UNK N   1      28.369  18.974   8.942  0.00  0.00    -0.254 F 
ENDBRANCH  21  22
ENDBRANCH   8  21
BRANCH  10  24
HETATM   24  C   UNK N   1      34.646  18.120   8.696  0.00  0.00     0.181 C 
HETATM   25  O   UNK N   1      35.077  17.354   9.544  0.00  0.00    -0.646 OA
BRANCH  24  26
HETATM   26  O   UNK N   1      35.352  19.227   8.395  0.00  0.00    -0.772 OA
HETATM   27  H   UNK N   1      34.937  20.068   8.394  0.00  0.00     0.167 HD
ENDBRANCH  24  26
ENDBRANCH  10  24
TORSDOF 5
ENDMDL
MODEL 2
REMARK VINA RESULT:      -7.2      5.470      8.486
REMARK  5 active torsions:
REMARK  status: ('A' for Active; 'I' for Inactive)
REMARK    1  A    between atoms: N_5  and  C_8 
REMARK    2  A    between atoms: N_15  and  C_23 
REMARK    3  A    between atoms: C_17  and  C_20 
REMARK    4  A    between atoms: C_20  and  O_22 
REMARK    5  A    between atoms: C_23  and  C_24 
ROOT
HETATM    1  C   UNK N   1      27.219  18.329   5.316  0.00  0.00     0.111 A 
HETATM    2  C   UNK N   1      27.486  19.460   4.505  0.00  0.00     0.147 A 
HETATM    3  C   UNK N   1      26.471  20.056   3.768  0.00  0.00     0.062 A 
HETATM    4  C   UNK N   1      25.166  19.565   3.798  0.00  0.00     0.048 A 
HETATM    5  C   UNK N   1      24.858  18.411   4.559  0.00  0.00     0.090 A 
HETATM    6  C   UNK N   1      25.901  17.790   5.307  0.00  0.00     0.173 A 
HETATM    7  F   UNK N   1      25.639  16.678   6.034  0.00  0.00    -0.201 F 
HETATM    8  N   UNK N   1      23.558  17.935   4.558  0.00  0.00    -0.350 N 
HETATM    9  C   UNK N   1      22.581  18.579   3.863  0.00  0.00     0.114 A 
HETATM   10  C   UNK N   1      22.839  19.736   3.124  0.00  0.00     0.104 A 
HETATM   11  C   UNK N   1      24.155  20.224   3.081  0.00  0.00     0.202 A 
HETATM   12  O   UNK N   1      24.422  21.227   2.435  0.00  0.00    -0.286 OA
HETATM   13  F   UNK N   1      28.718  20.021   4.439  0.00  0.00    -0.204 F 
ENDROOT
BRANCH   1  14
HETATM   14  N   UNK N   1      28.249  17.765   6.165  0.00  0.00    -0.372 N 
HETATM   15  C   UNK N   1      29.197  16.793   5.651  0.00  0.00     0.153 C 
HETATM   16  C   UNK N   1      30.579  17.053   6.240  0.00  0.00     0.291 C 
HETATM   17  N   UNK N   1      30.488  17.038   7.698  0.00  0.00     0.087 N 
HETATM   18  C   UNK N   1      31.821  17.263   8.221  0.00  0.00     0.310 C 
HETATM   19  C   UNK N   1      29.648  18.158   8.121  0.00  0.00     0.291 C 
HETATM   20  C   UNK N   1      28.226  17.945   7.605  0.00  0.00     0.153 C 
ENDBRANCH   1  14
BRANCH   8  21
HETATM   21  C   UNK N   1      23.142  16.727   5.267  0.00  0.00     0.160 C 
BRANCH  21  22
HETATM   22  C   UNK N   1      21.893  16.972   6.098  0.00  0.00     0.242 C 
HETATM   23  F   UNK N   1      22.008  16.283   7.291  0.00  0.00    -0.254 F 
ENDBRANCH  21  22
ENDBRANCH   8  21
BRANCH  10  24
HETATM   24  C   UNK N   1      21.714  20.414   2.424  0.00  0.00     0.181 C 
HETATM   25  O   UNK N   1      20.998  19.782   1.662  0.00  0.00    -0.646 OA
BRANCH  24  26
HETATM   26  O   UNK N   1      21.454  21.719   2.634  0.00  0.00    -0.772 OA
HETATM   27  H   UNK N   1      21.590  22.346   1.950  0.00  0.00     0.167 HD
ENDBRANCH  24  26
ENDBRANCH  10  24
TORSDOF 5
ENDMDL
MODEL 3
REMARK VINA RESULT:      -6.5      6.639      9.658
REMARK  5 active torsions:
REMARK  status: ('A' for Active; 'I' for Inactive)
REMARK    1  A    between atoms: N_5  and  C_8 
REMARK    2  A    between atoms: N_15  and  C_23 
REMARK    3  A    between atoms: C_17  and  C_20 
REMARK    4  A    between atoms: C_20  and  O_22 
REMARK    5  A    between atoms: C_23  and  C_24 
ROOT
HETATM    1  C   UNK N   1      35.396  12.999  12.158  0.00  0.00     0.111 A 
HETATM    2  C   UNK N   1      35.931  14.197  12.694  0.00  0.00     0.147 A 
HETATM    3  C   UNK N   1      35.903  15.373  11.957  0.00  0.00     0.062 A 
HETATM    4  C   UNK N   1      35.358  15.416  10.675  0.00  0.00     0.048 A 
HETATM    5  C   UNK N   1      34.850  14.236  10.078  0.00  0.00     0.090 A 
HETATM    6  C   UNK N   1      34.888  13.024  10.828  0.00  0.00     0.173 A 
HETATM    7  F   UNK N   1      34.421  11.878  10.280  0.00  0.00    -0.201 F 
HETATM    8  N   UNK N   1      34.329  14.304   8.798  0.00  0.00    -0.350 N 
HETATM    9  C   UNK N   1      34.273  15.487   8.129  0.00  0.00     0.114 A 
HETATM   10  C   UNK N   1      34.737  16.678   8.694  0.00  0.00     0.104 A 
HETATM   11  C   UNK N   1      35.300  16.635   9.980  0.00  0.00     0.202 A 
HETATM   12  O   UNK N   1      35.728  17.654  10.502  0.00  0.00    -0.286 OA
HETATM   13  F   UNK N   1      36.455  14.254  13.942  0.00  0.00    -0.204 F 
ENDROOT
BRANCH   1  14
HETATM   14  N   UNK N   1      35.329  11.793  12.959  0.00  0.00    -0.372 N 
HETATM   15  C   UNK N   1      36.448  10.871  13.022  0.00  0.00     0.153 C 
HETATM   16  C   UNK N   1      36.596  10.331  14.441  0.00  0.00     0.291 C 
HETATM   17  N   UNK N   1      35.335   9.720  14.854  0.00  0.00     0.087 N 
HETATM   18  C   UNK N   1      35.522   9.197  16.194  0.00  0.00     0.310 C 
HETATM   19  C   UNK N   1      34.315  10.765  14.922  0.00  0.00     0.291 C 
HETATM   20  C   UNK N   1      34.075  11.327  13.522  0.00  0.00     0.153 C 
ENDBRANCH   1  14
BRANCH   8  21
HETATM   21  C   UNK N   1      33.824  13.140   8.072  0.00  0.00     0.160 C 
BRANCH  21  22
HETATM   22  C   UNK N   1      34.812  12.672   7.015  0.00  0.00     0.242 C 
HETATM   23  F   UNK N   1      35.579  11.651   7.541  0.00  0.00    -0.254 F 
ENDBRANCH  21  22
ENDBRANCH   8  21
BRANCH  10  24
HETATM   24  C   UNK N   1      34.605  17.944   7.923  0.00  0.00     0.181 C 
HETATM   25  O   UNK N   1      34.163  17.923   6.785  0.00  0.00    -0.646 OA
BRANCH  24  26
HETATM   26  O   UNK N   1      34.948  19.127   8.471  0.00  0.00    -0.772 OA
HETATM   27  H   UNK N   1      34.286  19.743   8.720  0.00  0.00     0.167 HD
ENDBRANCH  24  26
ENDBRANCH  10  24
TORSDOF 5
ENDMDL
MODEL 4
REMARK VINA RESULT:      -6.3      1.557      3.563
REMARK  5 active torsions:
REMARK  status: ('A' for Active; 'I' for Inactive)
REMARK    1  A    between atoms: N_5  and  C_8 
REMARK    2  A    between atoms: N_15  and  C_23 
REMARK    3  A    between atoms: C_17  and  C_20 
REMARK    4  A    between atoms: C_20  and  O_22 
REMARK    5  A    between atoms: C_23  and  C_24 
ROOT
HETATM    1  C   UNK N   1      28.836  16.420   4.974  0.00  0.00     0.111 A 
HETATM    2  C   UNK N   1      28.544  16.571   6.353  0.00  0.00     0.147 A 
HETATM    3  C   UNK N   1      29.549  16.894   7.255  0.00  0.00     0.062 A 
HETATM    4  C   UNK N   1      30.868  17.076   6.842  0.00  0.00     0.048 A 
HETATM    5  C   UNK N   1      31.218  16.894   5.481  0.00  0.00     0.090 A 
HETATM    6  C   UNK N   1      30.190  16.550   4.555  0.00  0.00     0.173 A 
HETATM    7  F   UNK N   1      30.497  16.357   3.250  0.00  0.00    -0.201 F 
HETATM    8  N   UNK N   1      32.537  17.065   5.100  0.00  0.00    -0.350 N 
HETATM    9  C   UNK N   1      33.483  17.432   6.008  0.00  0.00     0.114 A 
HETATM   10  C   UNK N   1      33.172  17.650   7.352  0.00  0.00     0.104 A 
HETATM   11  C   UNK N   1      31.847  17.453   7.774  0.00  0.00     0.202 A 
HETATM   12  O   UNK N   1      31.540  17.622   8.945  0.00  0.00    -0.286 OA
HETATM   13  F   UNK N   1      27.286  16.441   6.839  0.00  0.00    -0.204 F 
ENDROOT
BRANCH   1  14
HETATM   14  N   UNK N   1      27.777  16.184   4.014  0.00  0.00    -0.372 N 
HETATM   15  C   UNK N   1      27.747  14.974   3.212  0.00  0.00     0.153 C 
HETATM   16  C   UNK N   1      26.311  14.484   3.065  0.00  0.00     0.291 C 
HETATM   17  N   UNK N   1      25.494  15.556   2.502  0.00  0.00     0.087 N 
HETATM   18  C   UNK N   1      24.145  15.045   2.354  0.00  0.00     0.310 C 
HETATM   19  C   UNK N   1      25.451  16.658   3.462  0.00  0.00     0.291 C 
HETATM   20  C   UNK N   1      26.855  17.236   3.628  0.00  0.00     0.153 C 
ENDBRANCH   1  14
BRANCH   8  21
HETATM   21  C   UNK N   1      33.015  16.854   3.735  0.00  0.00     0.160 C 
BRANCH  21  22
HETATM   22  C   UNK N   1      33.649  15.482   3.573  0.00  0.00     0.242 C 
HETATM   23  F   UNK N   1      34.093  15.346   2.271  0.00  0.00    -0.254 F 
ENDBRANCH  21  22
ENDBRANCH   8  21
BRANCH  10  24
HETATM   24  C   UNK N   1      34.247  18.093   8.280  0.00  0.00     0.181 C 
HETATM   25  O   UNK N   1      35.045  18.948   7.928  0.00  0.00    -0.646 OA
BRANCH  24  26
HETATM   26  O   UNK N   1      34.345  17.579   9.522  0.00  0.00    -0.772 OA
HETATM   27  H   UNK N   1      33.576  17.446  10.042  0.00  0.00     0.167 HD
ENDBRANCH  24  26
ENDBRANCH  10  24
TORSDOF 5
ENDMDL
MODEL 5
REMARK VINA RESULT:      -6.3      7.481      9.531
REMARK  5 active torsions:
REMARK  status: ('A' for Active; 'I' for Inactive)
REMARK    1  A    between atoms: N_5  and  C_8 
REMARK    2  A    between atoms: N_15  and  C_23 
REMARK    3  A    between atoms: C_17  and  C_20 
REMARK    4  A    between atoms: C_20  and  O_22 
REMARK    5  A    between atoms: C_23  and  C_24 
ROOT
HETATM    1  C   UNK N   1      21.746  15.881   6.203  0.00  0.00     0.111 A 
HETATM    2  C   UNK N   1      20.665  15.668   7.095  0.00  0.00     0.147 A 
HETATM    3  C   UNK N   1      20.818  14.850   8.207  0.00  0.00     0.062 A 
HETATM    4  C   UNK N   1      22.027  14.212   8.480  0.00  0.00     0.048 A 
HETATM    5  C   UNK N   1      23.124  14.358   7.595  0.00  0.00     0.090 A 
HETATM    6  C   UNK N   1      22.966  15.188   6.447  0.00  0.00     0.173 A 
HETATM    7  F   UNK N   1      23.993  15.337   5.577  0.00  0.00    -0.201 F 
HETATM    8  N   UNK N   1      24.307  13.700   7.882  0.00  0.00    -0.350 N 
HETATM    9  C   UNK N   1      24.432  12.948   9.009  0.00  0.00     0.114 A 
HETATM   10  C   UNK N   1      23.383  12.803   9.921  0.00  0.00     0.104 A 
HETATM   11  C   UNK N   1      22.160  13.434   9.640  0.00  0.00     0.202 A 
HETATM   12  O   UNK N   1      21.216  13.320  10.408  0.00  0.00    -0.286 OA
HETATM   13  F   UNK N   1      19.464  16.271   6.923  0.00  0.00    -0.204 F 
ENDROOT
BRANCH   1  14
HETATM   14  N   UNK N   1      21.626  16.813   5.100  0.00  0.00    -0.372 N 
HETATM   15  C   UNK N   1      21.261  16.359   3.771  0.00  0.00     0.153 C 
HETATM   16  C   UNK N   1      20.325  17.369   3.115  0.00  0.00     0.291 C 
HETATM   17  N   UNK N   1      20.967  18.681   3.108  0.00  0.00     0.087 N 
HETATM   18  C   UNK N   1      20.061  19.607   2.457  0.00  0.00     0.310 C 
HETATM   19  C   UNK N   1      21.135  19.121   4.493  0.00  0.00     0.291 C 
HETATM   20  C   UNK N   1      22.102  18.179   5.207  0.00  0.00     0.153 C 
ENDBRANCH   1  14
BRANCH   8  21
HETATM   21  C   UNK N   1      25.482  13.742   7.013  0.00  0.00     0.160 C 
BRANCH  21  22
HETATM   22  C   UNK N   1      25.536  12.537   6.089  0.00  0.00     0.242 C 
HETATM   23  F   UNK N   1      26.656  12.639   5.286  0.00  0.00    -0.254 F 
ENDBRANCH  21  22
ENDBRANCH   8  21
BRANCH  10  24
HETATM   24  C   UNK N   1      23.603  12.002  11.155  0.00  0.00     0.181 C 
HETATM   25  O   UNK N   1      24.677  12.055  11.735  0.00  0.00    -0.646 OA
BRANCH  24  26
HETATM   26  O   UNK N   1      22.624  11.228  11.662  0.00  0.00    -0.772 OA
HETATM   27  H   UNK N   1      21.729  11.503  11.613  0.00  0.00     0.167 HD
ENDBRANCH  24  26
ENDBRANCH  10  24
TORSDOF 5
ENDMDL
MODEL 6
REMARK VINA RESULT:      -6.1      3.878      5.519
REMARK  5 active torsions:
REMARK  status: ('A' for Active; 'I' for Inactive)
REMARK    1  A    between atoms: N_5  and  C_8 
REMARK    2  A    between atoms: N_15  and  C_23 
REMARK    3  A    between atoms: C_17  and  C_20 
REMARK    4  A    between atoms: C_20  and  O_22 
REMARK    5  A    between atoms: C_23  and  C_24 
ROOT
HETATM    1  C   UNK N   1      32.864  16.439   7.366  0.00  0.00     0.111 A 
HETATM    2  C   UNK N   1      33.448  17.367   8.265  0.00  0.00     0.147 A 
HETATM    3  C   UNK N   1      34.471  16.975   9.118  0.00  0.00     0.062 A 
HETATM    4  C   UNK N   1      34.952  15.667   9.125  0.00  0.00     0.048 A 
HETATM    5  C   UNK N   1      34.372  14.692   8.277  0.00  0.00     0.090 A 
HETATM    6  C   UNK N   1      33.314  15.089   7.408  0.00  0.00     0.173 A 
HETATM    7  F   UNK N   1      32.732  14.176   6.595  0.00  0.00    -0.201 F 
HETATM    8  N   UNK N   1      34.859  13.397   8.315  0.00  0.00    -0.350 N 
HETATM    9  C   UNK N   1      35.897  13.065   9.130  0.00  0.00     0.114 A 
HETATM   10  C   UNK N   1      36.515  14.005   9.959  0.00  0.00     0.104 A 
HETATM   11  C   UNK N   1      36.022  15.321   9.965  0.00  0.00     0.202 A 
HETATM   12  O   UNK N   1      36.529  16.167  10.686  0.00  0.00    -0.286 OA
HETATM   13  F   UNK N   1      33.063  18.665   8.306  0.00  0.00    -0.204 F 
ENDROOT
BRANCH   1  14
HETATM   14  N   UNK N   1      31.869  16.865   6.403  0.00  0.00    -0.372 N 
HETATM   15  C   UNK N   1      32.255  17.357   5.093  0.00  0.00     0.153 C 
HETATM   16  C   UNK N   1      31.275  16.853   4.039  0.00  0.00     0.291 C 
HETATM   17  N   UNK N   1      29.921  17.251   4.416  0.00  0.00     0.087 N 
HETATM   18  C   UNK N   1      29.022  16.779   3.381  0.00  0.00     0.310 C 
HETATM   19  C   UNK N   1      29.568  16.568   5.660  0.00  0.00     0.291 C 
HETATM   20  C   UNK N   1      30.482  17.058   6.782  0.00  0.00     0.153 C 
ENDBRANCH   1  14
BRANCH   8  21
HETATM   21  C   UNK N   1      34.302  12.304   7.520  0.00  0.00     0.160 C 
BRANCH  21  22
HETATM   22  C   UNK N   1      33.619  11.268   8.398  0.00  0.00     0.242 C 
HETATM   23  F   UNK N   1      32.739  11.913   9.247  0.00  0.00    -0.254 F 
ENDBRANCH  21  22
ENDBRANCH   8  21
BRANCH  10  24
HETATM   24  C   UNK N   1      37.674  13.584  10.791  0.00  0.00     0.181 C 
HETATM   25  O   UNK N   1      38.746  13.329  10.263  0.00  0.00    -0.646 OA
BRANCH  24  26
HETATM   26  O   UNK N   1      37.569  13.498  12.132  0.00  0.00    -0.772 OA
HETATM   27  H   UNK N   1      36.906  12.961  12.522  0.00  0.00     0.167 HD
ENDBRANCH  24  26
ENDBRANCH  10  24
TORSDOF 5
ENDMDL
MODEL 7
REMARK VINA RESULT:      -6.1     13.550     15.364
REMARK  5 active torsions:
REMARK  status: ('A' for Active; 'I' for Inactive)
REMARK    1  A    between atoms: N_5  and  C_8 
REMARK    2  A    between atoms: N_15  and  C_23 
REMARK    3  A    between atoms: C_17  and  C_20 
REMARK    4  A    between atoms: C_20  and  O_22 
REMARK    5  A    between atoms: C_23  and  C_24 
ROOT
HETATM    1  C   UNK N   1      27.575  25.024  -5.299  0.00  0.00     0.111 A 
HETATM    2  C   UNK N   1      28.758  24.625  -4.628  0.00  0.00     0.147 A 
HETATM    3  C   UNK N   1      29.387  23.432  -4.956  0.00  0.00     0.062 A 
HETATM    4  C   UNK N   1      28.880  22.589  -5.944  0.00  0.00     0.048 A 
HETATM    5  C   UNK N   1      27.677  22.922  -6.613  0.00  0.00     0.090 A 
HETATM    6  C   UNK N   1      27.022  24.141  -6.270  0.00  0.00     0.173 A 
HETATM    7  F   UNK N   1      25.864  24.480  -6.884  0.00  0.00    -0.201 F 
HETATM    8  N   UNK N   1      27.187  22.060  -7.578  0.00  0.00    -0.350 N 
HETATM    9  C   UNK N   1      27.861  20.924  -7.906  0.00  0.00     0.114 A 
HETATM   10  C   UNK N   1      29.066  20.576  -7.290  0.00  0.00     0.104 A 
HETATM   11  C   UNK N   1      29.571  21.416  -6.284  0.00  0.00     0.202 A 
HETATM   12  O   UNK N   1      30.616  21.138  -5.714  0.00  0.00    -0.286 OA
HETATM   13  F   UNK N   1      29.337  25.395  -3.675  0.00  0.00    -0.204 F 
ENDROOT
BRANCH   1  14
HETATM   14  N   UNK N   1      26.971  26.314  -5.034  0.00  0.00    -0.372 N 
HETATM   15  C   UNK N   1      26.137  26.527  -3.866  0.00  0.00     0.153 C 
HETATM   16  C   UNK N   1      26.405  27.910  -3.282  0.00  0.00     0.291 C 
HETATM   17  N   UNK N   1      26.192  28.917  -4.319  0.00  0.00     0.087 N 
HETATM   18  C   UNK N   1      26.431  30.216  -3.721  0.00  0.00     0.310 C 
HETATM   19  C   UNK N   1      27.192  28.718  -5.368  0.00  0.00     0.291 C 
HETATM   20  C   UNK N   1      26.958  27.364  -6.036  0.00  0.00     0.153 C 
ENDBRANCH   1  14
BRANCH   8  21
HETATM   21  C   UNK N   1      25.931  22.281  -8.293  0.00  0.00     0.160 C 
BRANCH  21  22
HETATM   22  C   UNK N   1      24.827  21.375  -7.774  0.00  0.00     0.242 C 
HETATM   23  F   UNK N   1      24.621  21.646  -6.434  0.00  0.00    -0.254 F 
ENDBRANCH  21  22
ENDBRANCH   8  21
BRANCH  10  24
HETATM   24  C   UNK N   1      29.773  19.342  -7.729  0.00  0.00     0.181 C 
HETATM   25  O   UNK N   1      29.177  18.277  -7.767  0.00  0.00    -0.646 OA
BRANCH  24  26
HETATM   26  O   UNK N   1      31.065  19.383  -8.110  0.00  0.00    -0.772 OA
HETATM   27  H   UNK N   1      31.618  18.636  -7.990  0.00  0.00     0.167 HD
ENDBRANCH  24  26
ENDBRANCH  10  24
TORSDOF 5
ENDMDL
MODEL 8
REMARK VINA RESULT:      -6.1     11.511     13.420
REMARK  5 active torsions:
REMARK  status: ('A' for Active; 'I' for Inactive)
REMARK    1  A    between atoms: N_5  and  C_8 
REMARK    2  A    between atoms: N_15  and  C_23 
REMARK    3  A    between atoms: C_17  and  C_20 
REMARK    4  A    between atoms: C_20  and  O_22 
REMARK    5  A    between atoms: C_23  and  C_24 
ROOT
HETATM    1  C   UNK N   1      28.772  23.388  -5.000  0.00  0.00     0.111 A 
HETATM    2  C   UNK N   1      29.260  23.531  -3.678  0.00  0.00     0.147 A 
HETATM    3  C   UNK N   1      30.325  22.760  -3.231  0.00  0.00     0.062 A 
HETATM    4  C   UNK N   1      30.943  21.823  -4.058  0.00  0.00     0.048 A 
HETATM    5  C   UNK N   1      30.464  21.612  -5.374  0.00  0.00     0.090 A 
HETATM    6  C   UNK N   1      29.363  22.394  -5.832  0.00  0.00     0.173 A 
HETATM    7  F   UNK N   1      28.876  22.206  -7.081  0.00  0.00    -0.201 F 
HETATM    8  N   UNK N   1      31.086  20.665  -6.169  0.00  0.00    -0.350 N 
HETATM    9  C   UNK N   1      32.159  19.965  -5.711  0.00  0.00     0.114 A 
HETATM   10  C   UNK N   1      32.679  20.166  -4.429  0.00  0.00     0.104 A 
HETATM   11  C   UNK N   1      32.049  21.098  -3.589  0.00  0.00     0.202 A 
HETATM   12  O   UNK N   1      32.468  21.292  -2.457  0.00  0.00    -0.286 OA
HETATM   13  F   UNK N   1      28.739  24.436  -2.815  0.00  0.00    -0.204 F 
ENDROOT
BRANCH   1  14
HETATM   14  N   UNK N   1      27.731  24.260  -5.506  0.00  0.00    -0.372 N 
HETATM   15  C   UNK N   1      26.352  23.812  -5.587  0.00  0.00     0.153 C 
HETATM   16  C   UNK N   1      25.413  24.951  -5.204  0.00  0.00     0.291 C 
HETATM   17  N   UNK N   1      25.686  26.104  -6.059  0.00  0.00     0.087 N 
HETATM   18  C   UNK N   1      24.760  27.155  -5.684  0.00  0.00     0.310 C 
HETATM   19  C   UNK N   1      27.040  26.580  -5.777  0.00  0.00     0.291 C 
HETATM   20  C   UNK N   1      28.046  25.505  -6.180  0.00  0.00     0.153 C 
ENDBRANCH   1  14
BRANCH   8  21
HETATM   21  C   UNK N   1      30.643  20.333  -7.522  0.00  0.00     0.160 C 
BRANCH  21  22
HETATM   22  C   UNK N   1      29.744  19.107  -7.529  0.00  0.00     0.242 C 
HETATM   23  F   UNK N   1      29.726  18.573  -8.804  0.00  0.00    -0.254 F 
ENDBRANCH  21  22
ENDBRANCH   8  21
BRANCH  10  24
HETATM   24  C   UNK N   1      33.883  19.398  -4.009  0.00  0.00     0.181 C 
HETATM   25  O   UNK N   1      34.981  19.932  -4.015  0.00  0.00    -0.646 OA
BRANCH  24  26
HETATM   26  O   UNK N   1      33.779  18.119  -3.598  0.00  0.00    -0.772 OA
HETATM   27  H   UNK N   1      34.382  17.773  -2.969  0.00  0.00     0.167 HD
ENDBRANCH  24  26
ENDBRANCH  10  24
TORSDOF 5
ENDMDL
MODEL 9
REMARK VINA RESULT:      -5.9      2.831      4.384
REMARK  5 active torsions:
REMARK  status: ('A' for Active; 'I' for Inactive)
REMARK    1  A    between atoms: N_5  and  C_8 
REMARK    2  A    between atoms: N_15  and  C_23 
REMARK    3  A    between atoms: C_17  and  C_20 
REMARK    4  A    between atoms: C_20  and  O_22 
REMARK    5  A    between atoms: C_23  and  C_24 
ROOT
HETATM    1  C   UNK N   1      31.031  16.653   7.105  0.00  0.00     0.111 A 
HETATM    2  C   UNK N   1      31.385  17.620   8.078  0.00  0.00     0.147 A 
HETATM    3  C   UNK N   1      32.525  17.456   8.854  0.00  0.00     0.062 A 
HETATM    4  C   UNK N   1      33.350  16.342   8.709  0.00  0.00     0.048 A 
HETATM    5  C   UNK N   1      33.015  15.326   7.781  0.00  0.00     0.090 A 
HETATM    6  C   UNK N   1      31.840  15.486   6.990  0.00  0.00     0.173 A 
HETATM    7  F   UNK N   1      31.488  14.525   6.104  0.00  0.00    -0.201 F 
HETATM    8  N   UNK N   1      33.844  14.222   7.668  0.00  0.00    -0.350 N 
HETATM    9  C   UNK N   1      34.979  14.124   8.412  0.00  0.00     0.114 A 
HETATM   10  C   UNK N   1      35.359  15.119   9.316  0.00  0.00     0.104 A 
HETATM   11  C   UNK N   1      34.521  16.236   9.475  0.00  0.00     0.202 A 
HETATM   12  O   UNK N   1      34.814  17.120  10.266  0.00  0.00    -0.286 OA
HETATM   13  F   UNK N   1      30.657  18.747   8.267  0.00  0.00    -0.204 F 
ENDROOT
BRANCH   1  14
HETATM   14  N   UNK N   1      29.902  16.867   6.222  0.00  0.00    -0.372 N 
HETATM   15  C   UNK N   1      30.078  17.470   4.913  0.00  0.00     0.153 C 
HETATM   16  C   UNK N   1      29.166  16.786   3.900  0.00  0.00     0.291 C 
HETATM   17  N   UNK N   1      27.787  16.855   4.374  0.00  0.00     0.087 N 
HETATM   18  C   UNK N   1      26.949  16.219   3.376  0.00  0.00     0.310 C 
HETATM   19  C   UNK N   1      27.681  16.075   5.607  0.00  0.00     0.291 C 
HETATM   20  C   UNK N   1      28.536  16.729   6.691  0.00  0.00     0.153 C 
ENDBRANCH   1  14
BRANCH   8  21
HETATM   21  C   UNK N   1      33.567  13.095   6.780  0.00  0.00     0.160 C 
BRANCH  21  22
HETATM   22  C   UNK N   1      34.529  13.064   5.604  0.00  0.00     0.242 C 
HETATM   23  F   UNK N   1      34.604  14.330   5.054  0.00  0.00    -0.254 F 
ENDBRANCH  21  22
ENDBRANCH   8  21
BRANCH  10  24
HETATM   24  C   UNK N   1      36.636  14.967  10.064  0.00  0.00     0.181 C 
HETATM   25  O   UNK N   1      37.282  13.935   9.968  0.00  0.00    -0.646 OA
BRANCH  24  26
HETATM   26  O   UNK N   1      37.109  15.965  10.837  0.00  0.00    -0.772 OA
HETATM   27  H   UNK N   1      37.152  15.864  11.768  0.00  0.00     0.167 HD
ENDBRANCH  24  26
ENDBRANCH  10  24
TORSDOF 5
ENDMDL
