MODEL 1
REMARK VINA RESULT:      -8.3      0.000      0.000
REMARK  4 active torsions:
REMARK  status: ('A' for Active; 'I' for Inactive)
REMARK    1  A    between atoms: O_2  and  C_26 
REMARK    2  A    between atoms: N_4  and  C_17 
REMARK       I    between atoms: N_4  and  C_19 
REMARK    3  A    between atoms: C_19  and  C_20 
REMARK    4  A    between atoms: C_25  and  C_26 
ROOT
HETATM    1  C   UNK N   1      31.764  16.550   4.447  0.00  0.00    -0.020 C 
HETATM    2  C   UNK N   1      32.365  16.749   7.403  0.00  0.00    -0.020 C 
HETATM    3  C   UNK N   1      32.879  15.776   5.145  0.00  0.00     0.015 C 
HETATM    4  C   UNK N   1      33.427  16.558   6.318  0.00  0.00     0.015 C 
HETATM    5  C   UNK N   1      30.773  17.146   5.434  0.00  0.00    -0.041 A 
HETATM    6  C   UNK N   1      31.025  17.190   6.829  0.00  0.00    -0.043 A 
HETATM    7  C   UNK N   1      32.347  17.648   3.573  0.00  0.00     0.020 C 
HETATM    8  C   UNK N   1      31.060  15.546   3.546  0.00  0.00     0.020 C 
HETATM    9  C   UNK N   1      32.194  15.466   8.198  0.00  0.00     0.020 C 
HETATM   10  C   UNK N   1      32.913  17.822   8.329  0.00  0.00     0.020 C 
HETATM   11  C   UNK N   1      29.562  17.641   4.947  0.00  0.00     0.038 A 
HETATM   12  C   UNK N   1      30.018  17.674   7.690  0.00  0.00     0.011 A 
HETATM   13  C   UNK N   1      28.582  18.141   5.795  0.00  0.00     0.035 A 
HETATM   14  C   UNK N   1      28.800  18.144   7.179  0.00  0.00     0.030 A 
ENDROOT
BRANCH  13  15
HETATM   15  N   UNK N   1      27.383  18.594   5.193  0.00  0.00    -0.323 N 
HETATM   16  C   UNK N   1      26.165  18.001   5.129  0.00  0.00     0.256 C 
HETATM   17  O   UNK N   1      25.958  16.913   5.650  0.00  0.00    -0.267 OA
HETATM   18  H   UNK N   1      27.442  19.473   4.755  0.00  0.00     0.169 HD
BRANCH  16  19
HETATM   19  C   UNK N   1      25.095  18.713   4.397  0.00  0.00     0.032 A 
HETATM   20  C   UNK N   1      25.327  19.894   3.678  0.00  0.00     0.018 A 
HETATM   21  C   UNK N   1      24.266  20.526   3.008  0.00  0.00     0.019 A 
HETATM   22  C   UNK N   1      22.971  19.981   3.058  0.00  0.00     0.037 A 
HETATM   23  C   UNK N   1      22.748  18.806   3.778  0.00  0.00     0.019 A 
HETATM   24  C   UNK N   1      23.797  18.179   4.438  0.00  0.00     0.018 A 
BRANCH  22  25
HETATM   25  C   UNK N   1      21.844  20.632   2.363  0.00  0.00     0.176 C 
HETATM   26  O   UNK N   1      21.748  20.562   1.147  0.00  0.00    -0.646 OA
BRANCH  25  27
HETATM   27  O   UNK N   1      20.913  21.311   3.062  0.00  0.00    -0.773 OA
HETATM   28  H   UNK N   1      21.008  21.417   3.987  0.00  0.00     0.167 HD
ENDBRANCH  25  27
ENDBRANCH  22  25
ENDBRANCH  16  19
ENDBRANCH  13  15
TORSDOF 4
ENDMDL
MODEL 2
REMARK VINA RESULT:      -7.9     10.342     14.136
REMARK  4 active torsions:
REMARK  status: ('A' for Active; 'I' for Inactive)
REMARK    1  A    between atoms: O_2  and  C_26 
REMARK    2  A    between atoms: N_4  and  C_17 
REMARK       I    between atoms: N_4  and  C_19 
REMARK    3  A    between atoms: C_19  and  C_20 
REMARK    4  A    between atoms: C_25  and  C_26 
ROOT
HETATM    1  C   UNK N   1      26.187  25.572  -5.755  0.00  0.00    -0.020 C 
HETATM    2  C   UNK N   1      26.935  28.244  -4.556  0.00  0.00    -0.020 C 
HETATM    3  C   UNK N   1      25.489  26.886  -6.096  0.00  0.00     0.015 C 
HETATM    4  C   UNK N   1      25.507  27.830  -4.914  0.00  0.00     0.015 C 
HETATM    5  C   UNK N   1      27.508  25.793  -5.037  0.00  0.00    -0.041 A 
HETATM    6  C   UNK N   1      27.890  27.058  -4.523  0.00  0.00    -0.043 A 
HETATM    7  C   UNK N   1      25.280  24.694  -4.909  0.00  0.00     0.020 C 
HETATM    8  C   UNK N   1      26.428  24.871  -7.083  0.00  0.00     0.020 C 
HETATM    9  C   UNK N   1      27.438  29.289  -5.537  0.00  0.00     0.020 C 
HETATM   10  C   UNK N   1      26.846  28.879  -3.178  0.00  0.00     0.020 C 
HETATM   11  C   UNK N   1      28.385  24.714  -4.905  0.00  0.00     0.038 A 
HETATM   12  C   UNK N   1      29.172  27.205  -3.950  0.00  0.00     0.011 A 
HETATM   13  C   UNK N   1      29.636  24.855  -4.319  0.00  0.00     0.035 A 
HETATM   14  C   UNK N   1      30.044  26.112  -3.852  0.00  0.00     0.030 A 
ENDROOT
BRANCH  13  15
HETATM   15  N   UNK N   1      30.452  23.699  -4.262  0.00  0.00    -0.323 N 
HETATM   16  C   UNK N   1      30.904  23.007  -3.187  0.00  0.00     0.256 C 
HETATM   17  O   UNK N   1      30.611  23.340  -2.046  0.00  0.00    -0.267 OA
HETATM   18  H   UNK N   1      30.732  23.342  -5.135  0.00  0.00     0.169 HD
BRANCH  16  19
HETATM   19  C   UNK N   1      31.774  21.839  -3.441  0.00  0.00     0.032 A 
HETATM   20  C   UNK N   1      33.017  21.671  -2.813  0.00  0.00     0.018 A 
HETATM   21  C   UNK N   1      33.800  20.541  -3.102  0.00  0.00     0.019 A 
HETATM   22  C   UNK N   1      33.346  19.578  -4.021  0.00  0.00     0.037 A 
HETATM   23  C   UNK N   1      32.108  19.754  -4.642  0.00  0.00     0.019 A 
HETATM   24  C   UNK N   1      31.332  20.870  -4.356  0.00  0.00     0.018 A 
BRANCH  22  25
HETATM   25  C   UNK N   1      34.155  18.387  -4.338  0.00  0.00     0.176 C 
HETATM   26  O   UNK N   1      34.919  18.397  -5.292  0.00  0.00    -0.646 OA
BRANCH  25  27
HETATM   27  O   UNK N   1      34.059  17.277  -3.580  0.00  0.00    -0.773 OA
HETATM   28  H   UNK N   1      34.520  17.224  -2.767  0.00  0.00     0.167 HD
ENDBRANCH  25  27
ENDBRANCH  22  25
ENDBRANCH  16  19
ENDBRANCH  13  15
TORSDOF 4
ENDMDL
MODEL 3
REMARK VINA RESULT:      -7.7      1.348      2.944
REMARK  4 active torsions:
REMARK  status: ('A' for Active; 'I' for Inactive)
REMARK    1  A    between atoms: O_2  and  C_26 
REMARK    2  A    between atoms: N_4  and  C_17 
REMARK       I    between atoms: N_4  and  C_19 
REMARK    3  A    between atoms: C_19  and  C_20 
REMARK    4  A    between atoms: C_25  and  C_26 
ROOT
HETATM    1  C   UNK N   1      30.386  17.790   8.407  0.00  0.00    -0.020 C 
HETATM    2  C   UNK N   1      32.402  16.570   6.514  0.00  0.00    -0.020 C 
HETATM    3  C   UNK N   1      31.884  17.715   8.689  0.00  0.00     0.015 C 
HETATM    4  C   UNK N   1      32.496  16.494   8.040  0.00  0.00     0.015 C 
HETATM    5  C   UNK N   1      30.061  17.519   6.947  0.00  0.00    -0.041 A 
HETATM    6  C   UNK N   1      31.021  17.000   6.040  0.00  0.00    -0.043 A 
HETATM    7  C   UNK N   1      29.630  16.815   9.294  0.00  0.00     0.020 C 
HETATM    8  C   UNK N   1      29.961  19.202   8.780  0.00  0.00     0.020 C 
HETATM    9  C   UNK N   1      33.457  17.520   5.973  0.00  0.00     0.020 C 
HETATM   10  C   UNK N   1      32.712  15.169   6.013  0.00  0.00     0.020 C 
HETATM   11  C   UNK N   1      28.780  17.819   6.481  0.00  0.00     0.038 A 
HETATM   12  C   UNK N   1      30.671  16.863   4.680  0.00  0.00     0.011 A 
HETATM   13  C   UNK N   1      28.430  17.658   5.146  0.00  0.00     0.035 A 
HETATM   14  C   UNK N   1      29.385  17.193   4.231  0.00  0.00     0.030 A 
ENDROOT
BRANCH  13  15
HETATM   15  N   UNK N   1      27.110  18.017   4.781  0.00  0.00    -0.323 N 
HETATM   16  C   UNK N   1      26.655  19.127   4.149  0.00  0.00     0.256 C 
HETATM   17  O   UNK N   1      27.419  20.010   3.781  0.00  0.00    -0.267 OA
HETATM   18  H   UNK N   1      26.417  17.362   5.023  0.00  0.00     0.169 HD
BRANCH  16  19
HETATM   19  C   UNK N   1      25.197  19.239   3.926  0.00  0.00     0.032 A 
HETATM   20  C   UNK N   1      24.282  18.301   4.426  0.00  0.00     0.018 A 
HETATM   21  C   UNK N   1      22.909  18.460   4.174  0.00  0.00     0.019 A 
HETATM   22  C   UNK N   1      22.447  19.554   3.420  0.00  0.00     0.037 A 
HETATM   23  C   UNK N   1      23.366  20.482   2.925  0.00  0.00     0.019 A 
HETATM   24  C   UNK N   1      24.723  20.326   3.175  0.00  0.00     0.018 A 
BRANCH  22  25
HETATM   25  C   UNK N   1      21.010  19.736   3.144  0.00  0.00     0.176 C 
HETATM   26  O   UNK N   1      20.442  19.014   2.337  0.00  0.00    -0.646 OA
BRANCH  25  27
HETATM   27  O   UNK N   1      20.312  20.698   3.776  0.00  0.00    -0.773 OA
HETATM   28  H   UNK N   1      19.438  20.898   3.505  0.00  0.00     0.167 HD
ENDBRANCH  25  27
ENDBRANCH  22  25
ENDBRANCH  16  19
ENDBRANCH  13  15
TORSDOF 4
ENDMDL
MODEL 4
REMARK VINA RESULT:      -7.7     10.287     14.117
REMARK  4 active torsions:
REMARK  status: ('A' for Active; 'I' for Inactive)
REMARK    1  A    between atoms: O_2  and  C_26 
REMARK    2  A    between atoms: N_4  and  C_17 
REMARK       I    between atoms: N_4  and  C_19 
REMARK    3  A    between atoms: C_19  and  C_20 
REMARK    4  A    between atoms: C_25  and  C_26 
ROOT
HETATM    1  C   UNK N   1      29.149  27.910  -5.146  0.00  0.00    -0.020 C 
HETATM    2  C   UNK N   1      26.192  27.502  -4.669  0.00  0.00    -0.020 C 
HETATM    3  C   UNK N   1      28.162  29.045  -4.890  0.00  0.00     0.015 C 
HETATM    4  C   UNK N   1      26.788  28.696  -5.418  0.00  0.00     0.015 C 
HETATM    5  C   UNK N   1      28.569  26.551  -4.787  0.00  0.00    -0.041 A 
HETATM    6  C   UNK N   1      27.192  26.365  -4.505  0.00  0.00    -0.043 A 
HETATM    7  C   UNK N   1      29.595  27.912  -6.600  0.00  0.00     0.020 C 
HETATM    8  C   UNK N   1      30.360  28.205  -4.275  0.00  0.00     0.020 C 
HETATM    9  C   UNK N   1      25.678  27.942  -3.309  0.00  0.00     0.020 C 
HETATM   10  C   UNK N   1      25.011  27.040  -5.506  0.00  0.00     0.020 C 
HETATM   11  C   UNK N   1      29.433  25.457  -4.705  0.00  0.00     0.038 A 
HETATM   12  C   UNK N   1      26.746  25.092  -4.088  0.00  0.00     0.011 A 
HETATM   13  C   UNK N   1      28.986  24.200  -4.319  0.00  0.00     0.035 A 
HETATM   14  C   UNK N   1      27.636  24.015  -3.991  0.00  0.00     0.030 A 
ENDROOT
BRANCH  13  15
HETATM   15  N   UNK N   1      29.955  23.170  -4.247  0.00  0.00    -0.323 N 
HETATM   16  C   UNK N   1      30.741  22.787  -3.211  0.00  0.00     0.256 C 
HETATM   17  O   UNK N   1      30.673  23.341  -2.120  0.00  0.00    -0.267 OA
HETATM   18  H   UNK N   1      30.076  22.652  -5.075  0.00  0.00     0.169 HD
BRANCH  16  19
HETATM   19  C   UNK N   1      31.692  21.679  -3.445  0.00  0.00     0.032 A 
HETATM   20  C   UNK N   1      32.923  21.586  -2.779  0.00  0.00     0.018 A 
HETATM   21  C   UNK N   1      33.786  20.512  -3.051  0.00  0.00     0.019 A 
HETATM   22  C   UNK N   1      33.424  19.529  -3.989  0.00  0.00     0.037 A 
HETATM   23  C   UNK N   1      32.197  19.630  -4.648  0.00  0.00     0.019 A 
HETATM   24  C   UNK N   1      31.342  20.691  -4.379  0.00  0.00     0.018 A 
BRANCH  22  25
HETATM   25  C   UNK N   1      34.318  18.395  -4.288  0.00  0.00     0.176 C 
HETATM   26  O   UNK N   1      34.144  17.314  -3.745  0.00  0.00    -0.646 OA
BRANCH  25  27
HETATM   27  O   UNK N   1      35.334  18.541  -5.160  0.00  0.00    -0.773 OA
HETATM   28  H   UNK N   1      35.300  18.118  -5.994  0.00  0.00     0.167 HD
ENDBRANCH  25  27
ENDBRANCH  22  25
ENDBRANCH  16  19
ENDBRANCH  13  15
TORSDOF 4
ENDMDL
MODEL 5
REMARK VINA RESULT:      -7.4      8.432     12.561
REMARK  4 active torsions:
REMARK  status: ('A' for Active; 'I' for Inactive)
REMARK    1  A    between atoms: O_2  and  C_26 
REMARK    2  A    between atoms: N_4  and  C_17 
REMARK       I    between atoms: N_4  and  C_19 
REMARK    3  A    between atoms: C_19  and  C_20 
REMARK    4  A    between atoms: C_25  and  C_26 
ROOT
HETATM    1  C   UNK N   1      33.247  17.204   7.927  0.00  0.00    -0.020 C 
HETATM    2  C   UNK N   1      33.697  15.091   5.814  0.00  0.00    -0.020 C 
HETATM    3  C   UNK N   1      32.700  17.290   6.505  0.00  0.00     0.015 C 
HETATM    4  C   UNK N   1      33.621  16.592   5.528  0.00  0.00     0.015 C 
HETATM    5  C   UNK N   1      33.729  15.805   8.275  0.00  0.00    -0.041 A 
HETATM    6  C   UNK N   1      33.886  14.792   7.295  0.00  0.00    -0.043 A 
HETATM    7  C   UNK N   1      34.377  18.202   8.122  0.00  0.00     0.020 C 
HETATM    8  C   UNK N   1      32.098  17.600   8.841  0.00  0.00     0.020 C 
HETATM    9  C   UNK N   1      32.447  14.397   5.299  0.00  0.00     0.020 C 
HETATM   10  C   UNK N   1      34.891  14.582   5.023  0.00  0.00     0.020 C 
HETATM   11  C   UNK N   1      33.998  15.504   9.611  0.00  0.00     0.038 A 
HETATM   12  C   UNK N   1      34.249  13.492   7.708  0.00  0.00     0.011 A 
HETATM   13  C   UNK N   1      34.378  14.230  10.012  0.00  0.00     0.035 A 
HETATM   14  C   UNK N   1      34.490  13.208   9.059  0.00  0.00     0.030 A 
ENDROOT
BRANCH  13  15
HETATM   15  N   UNK N   1      34.601  14.033  11.397  0.00  0.00    -0.323 N 
HETATM   16  C   UNK N   1      35.707  13.592  12.045  0.00  0.00     0.256 C 
HETATM   17  O   UNK N   1      36.731  13.306  11.436  0.00  0.00    -0.267 OA
HETATM   18  H   UNK N   1      33.837  14.249  11.977  0.00  0.00     0.169 HD
BRANCH  16  19
HETATM   19  C   UNK N   1      35.633  13.460  13.515  0.00  0.00     0.032 A 
HETATM   20  C   UNK N   1      36.415  14.235  14.385  0.00  0.00     0.018 A 
HETATM   21  C   UNK N   1      36.302  14.058  15.773  0.00  0.00     0.019 A 
HETATM   22  C   UNK N   1      35.410  13.105  16.298  0.00  0.00     0.037 A 
HETATM   23  C   UNK N   1      34.636  12.338  15.425  0.00  0.00     0.019 A 
HETATM   24  C   UNK N   1      34.746  12.514  14.051  0.00  0.00     0.018 A 
BRANCH  22  25
HETATM   25  C   UNK N   1      35.280  12.904  17.753  0.00  0.00     0.176 C 
HETATM   26  O   UNK N   1      35.147  11.778  18.209  0.00  0.00    -0.646 OA
BRANCH  25  27
HETATM   27  O   UNK N   1      35.304  13.958  18.591  0.00  0.00    -0.773 OA
HETATM   28  H   UNK N   1      35.761  14.739  18.349  0.00  0.00     0.167 HD
ENDBRANCH  25  27
ENDBRANCH  22  25
ENDBRANCH  16  19
ENDBRANCH  13  15
TORSDOF 4
ENDMDL
MODEL 6
REMARK VINA RESULT:      -7.3      3.809      9.005
REMARK  4 active torsions:
REMARK  status: ('A' for Active; 'I' for Inactive)
REMARK    1  A    between atoms: O_2  and  C_26 
REMARK    2  A    between atoms: N_4  and  C_17 
REMARK       I    between atoms: N_4  and  C_19 
REMARK    3  A    between atoms: C_19  and  C_20 
REMARK    4  A    between atoms: C_25  and  C_26 
ROOT
HETATM    1  C   UNK N   1      24.930  13.986   6.307  0.00  0.00    -0.020 C 
HETATM    2  C   UNK N   1      23.205  16.039   4.911  0.00  0.00    -0.020 C 
HETATM    3  C   UNK N   1      23.629  13.656   5.580  0.00  0.00     0.015 C 
HETATM    4  C   UNK N   1      22.660  14.815   5.650  0.00  0.00     0.015 C 
HETATM    5  C   UNK N   1      25.448  15.372   5.957  0.00  0.00    -0.041 A 
HETATM    6  C   UNK N   1      24.663  16.319   5.251  0.00  0.00    -0.043 A 
HETATM    7  C   UNK N   1      24.741  13.871   7.811  0.00  0.00     0.020 C 
HETATM    8  C   UNK N   1      25.933  12.930   5.869  0.00  0.00     0.020 C 
HETATM    9  C   UNK N   1      23.047  15.856   3.411  0.00  0.00     0.020 C 
HETATM   10  C   UNK N   1      22.335  17.205   5.349  0.00  0.00     0.020 C 
HETATM   11  C   UNK N   1      26.753  15.709   6.321  0.00  0.00     0.038 A 
HETATM   12  C   UNK N   1      25.246  17.550   4.881  0.00  0.00     0.011 A 
HETATM   13  C   UNK N   1      27.316  16.931   5.978  0.00  0.00     0.035 A 
HETATM   14  C   UNK N   1      26.567  17.856   5.238  0.00  0.00     0.030 A 
ENDROOT
BRANCH  13  15
HETATM   15  N   UNK N   1      28.656  17.155   6.379  0.00  0.00    -0.323 N 
HETATM   16  C   UNK N   1      29.814  16.865   5.738  0.00  0.00     0.256 C 
HETATM   17  O   UNK N   1      29.817  16.341   4.631  0.00  0.00    -0.267 OA
HETATM   18  H   UNK N   1      28.762  17.587   7.257  0.00  0.00     0.169 HD
BRANCH  16  19
HETATM   19  C   UNK N   1      31.080  17.196   6.427  0.00  0.00     0.032 A 
HETATM   20  C   UNK N   1      32.304  17.300   5.750  0.00  0.00     0.018 A 
HETATM   21  C   UNK N   1      33.474  17.611   6.464  0.00  0.00     0.019 A 
HETATM   22  C   UNK N   1      33.424  17.817   7.854  0.00  0.00     0.037 A 
HETATM   23  C   UNK N   1      32.201  17.711   8.519  0.00  0.00     0.019 A 
HETATM   24  C   UNK N   1      31.044  17.404   7.814  0.00  0.00     0.018 A 
BRANCH  22  25
HETATM   25  C   UNK N   1      34.642  18.143   8.620  0.00  0.00     0.176 C 
HETATM   26  O   UNK N   1      35.266  19.166   8.377  0.00  0.00    -0.646 OA
BRANCH  25  27
HETATM   27  O   UNK N   1      35.078  17.317   9.589  0.00  0.00    -0.773 OA
HETATM   28  H   UNK N   1      34.781  16.429   9.617  0.00  0.00     0.167 HD
ENDBRANCH  25  27
ENDBRANCH  22  25
ENDBRANCH  16  19
ENDBRANCH  13  15
TORSDOF 4
ENDMDL
MODEL 7
REMARK VINA RESULT:      -7.2      9.382     13.673
REMARK  4 active torsions:
REMARK  status: ('A' for Active; 'I' for Inactive)
REMARK    1  A    between atoms: O_2  and  C_26 
REMARK    2  A    between atoms: N_4  and  C_17 
REMARK       I    between atoms: N_4  and  C_19 
REMARK    3  A    between atoms: C_19  and  C_20 
REMARK    4  A    between atoms: C_25  and  C_26 
ROOT
HETATM    1  C   UNK N   1      36.570   9.132  15.692  0.00  0.00    -0.020 C 
HETATM    2  C   UNK N   1      35.852   9.987  18.501  0.00  0.00    -0.020 C 
HETATM    3  C   UNK N   1      36.351   8.162  16.850  0.00  0.00     0.015 C 
HETATM    4  C   UNK N   1      36.747   8.792  18.167  0.00  0.00     0.015 C 
HETATM    5  C   UNK N   1      36.047  10.525  16.003  0.00  0.00    -0.041 A 
HETATM    6  C   UNK N   1      35.654  10.914  17.309  0.00  0.00    -0.043 A 
HETATM    7  C   UNK N   1      38.045   9.203  15.332  0.00  0.00     0.020 C 
HETATM    8  C   UNK N   1      35.816   8.546  14.508  0.00  0.00     0.020 C 
HETATM    9  C   UNK N   1      34.506   9.504  19.013  0.00  0.00     0.020 C 
HETATM   10  C   UNK N   1      36.558  10.728  19.625  0.00  0.00     0.020 C 
HETATM   11  C   UNK N   1      35.926  11.442  14.957  0.00  0.00     0.038 A 
HETATM   12  C   UNK N   1      35.093  12.195  17.501  0.00  0.00     0.011 A 
HETATM   13  C   UNK N   1      35.396  12.710  15.153  0.00  0.00     0.035 A 
HETATM   14  C   UNK N   1      34.959  13.088  16.430  0.00  0.00     0.030 A 
ENDROOT
BRANCH  13  15
HETATM   15  N   UNK N   1      35.297  13.547  14.015  0.00  0.00    -0.323 N 
HETATM   16  C   UNK N   1      35.003  13.234  12.729  0.00  0.00     0.256 C 
HETATM   17  O   UNK N   1      34.754  12.082  12.394  0.00  0.00    -0.267 OA
HETATM   18  H   UNK N   1      35.468  14.502  14.183  0.00  0.00     0.169 HD
BRANCH  16  19
HETATM   19  C   UNK N   1      35.001  14.332  11.740  0.00  0.00     0.032 A 
HETATM   20  C   UNK N   1      35.676  15.543  11.953  0.00  0.00     0.018 A 
HETATM   21  C   UNK N   1      35.631  16.551  10.976  0.00  0.00     0.019 A 
HETATM   22  C   UNK N   1      34.910  16.354   9.785  0.00  0.00     0.037 A 
HETATM   23  C   UNK N   1      34.241  15.146   9.581  0.00  0.00     0.019 A 
HETATM   24  C   UNK N   1      34.287  14.148  10.546  0.00  0.00     0.018 A 
BRANCH  22  25
HETATM   25  C   UNK N   1      34.851  17.402   8.748  0.00  0.00     0.176 C 
HETATM   26  O   UNK N   1      35.200  18.545   9.008  0.00  0.00    -0.646 OA
BRANCH  25  27
HETATM   27  O   UNK N   1      34.410  17.110   7.510  0.00  0.00    -0.773 OA
HETATM   28  H   UNK N   1      33.979  16.295   7.346  0.00  0.00     0.167 HD
ENDBRANCH  25  27
ENDBRANCH  22  25
ENDBRANCH  16  19
ENDBRANCH  13  15
TORSDOF 4
ENDMDL
MODEL 8
REMARK VINA RESULT:      -7.1      6.343     11.694
REMARK  4 active torsions:
REMARK  status: ('A' for Active; 'I' for Inactive)
REMARK    1  A    between atoms: O_2  and  C_26 
REMARK    2  A    between atoms: N_4  and  C_17 
REMARK       I    between atoms: N_4  and  C_19 
REMARK    3  A    between atoms: C_19  and  C_20 
REMARK    4  A    between atoms: C_25  and  C_26 
ROOT
HETATM    1  C   UNK N   1      29.546  17.650   8.735  0.00  0.00    -0.020 C 
HETATM    2  C   UNK N   1      29.804  16.889   5.821  0.00  0.00    -0.020 C 
HETATM    3  C   UNK N   1      28.477  17.930   7.682  0.00  0.00     0.015 C 
HETATM    4  C   UNK N   1      29.102  18.153   6.323  0.00  0.00     0.015 C 
HETATM    5  C   UNK N   1      30.580  16.647   8.251  0.00  0.00    -0.041 A 
HETATM    6  C   UNK N   1      30.668  16.243   6.895  0.00  0.00    -0.043 A 
HETATM    7  C   UNK N   1      30.233  18.941   9.150  0.00  0.00     0.020 C 
HETATM    8  C   UNK N   1      28.807  17.094   9.942  0.00  0.00     0.020 C 
HETATM    9  C   UNK N   1      28.780  15.892   5.307  0.00  0.00     0.020 C 
HETATM   10  C   UNK N   1      30.670  17.336   4.655  0.00  0.00     0.020 C 
HETATM   11  C   UNK N   1      31.454  16.086   9.185  0.00  0.00     0.038 A 
HETATM   12  C   UNK N   1      31.594  15.238   6.540  0.00  0.00     0.011 A 
HETATM   13  C   UNK N   1      32.381  15.115   8.828  0.00  0.00     0.035 A 
HETATM   14  C   UNK N   1      32.444  14.672   7.500  0.00  0.00     0.030 A 
ENDROOT
BRANCH  13  15
HETATM   15  N   UNK N   1      33.199  14.599   9.863  0.00  0.00    -0.323 N 
HETATM   16  C   UNK N   1      34.411  15.018  10.303  0.00  0.00     0.256 C 
HETATM   17  O   UNK N   1      34.968  15.991   9.809  0.00  0.00    -0.267 OA
HETATM   18  H   UNK N   1      32.832  13.818  10.335  0.00  0.00     0.169 HD
BRANCH  16  19
HETATM   19  C   UNK N   1      35.045  14.252  11.398  0.00  0.00     0.032 A 
HETATM   20  C   UNK N   1      34.974  12.854  11.482  0.00  0.00     0.018 A 
HETATM   21  C   UNK N   1      35.592  12.185  12.551  0.00  0.00     0.019 A 
HETATM   22  C   UNK N   1      36.280  12.910  13.540  0.00  0.00     0.037 A 
HETATM   23  C   UNK N   1      36.345  14.302  13.449  0.00  0.00     0.019 A 
HETATM   24  C   UNK N   1      35.736  14.964  12.391  0.00  0.00     0.018 A 
BRANCH  22  25
HETATM   25  C   UNK N   1      36.934  12.224  14.671  0.00  0.00     0.176 C 
HETATM   26  O   UNK N   1      37.985  11.624  14.502  0.00  0.00    -0.646 OA
BRANCH  25  27
HETATM   27  O   UNK N   1      36.377  12.252  15.897  0.00  0.00    -0.773 OA
HETATM   28  H   UNK N   1      36.067  11.460  16.288  0.00  0.00     0.167 HD
ENDBRANCH  25  27
ENDBRANCH  22  25
ENDBRANCH  16  19
ENDBRANCH  13  15
TORSDOF 4
ENDMDL
MODEL 9
REMARK VINA RESULT:      -7.0      9.721     13.982
REMARK  4 active torsions:
REMARK  status: ('A' for Active; 'I' for Inactive)
REMARK    1  A    between atoms: O_2  and  C_26 
REMARK    2  A    between atoms: N_4  and  C_17 
REMARK       I    between atoms: N_4  and  C_19 
REMARK    3  A    between atoms: C_19  and  C_20 
REMARK    4  A    between atoms: C_25  and  C_26 
ROOT
HETATM    1  C   UNK N   1      34.303  15.294   9.232  0.00  0.00    -0.020 C 
HETATM    2  C   UNK N   1      36.110  13.588   7.510  0.00  0.00    -0.020 C 
HETATM    3  C   UNK N   1      34.182  15.186   7.715  0.00  0.00     0.015 C 
HETATM    4  C   UNK N   1      35.533  14.939   7.081  0.00  0.00     0.015 C 
HETATM    5  C   UNK N   1      35.178  14.197   9.819  0.00  0.00    -0.041 A 
HETATM    6  C   UNK N   1      35.984  13.356   9.010  0.00  0.00    -0.043 A 
HETATM    7  C   UNK N   1      34.850  16.656   9.625  0.00  0.00     0.020 C 
HETATM    8  C   UNK N   1      32.887  15.174   9.773  0.00  0.00     0.020 C 
HETATM    9  C   UNK N   1      35.426  12.463   6.751  0.00  0.00     0.020 C 
HETATM   10  C   UNK N   1      37.575  13.620   7.109  0.00  0.00     0.020 C 
HETATM   11  C   UNK N   1      35.163  13.999  11.201  0.00  0.00     0.038 A 
HETATM   12  C   UNK N   1      36.697  12.301   9.620  0.00  0.00     0.011 A 
HETATM   13  C   UNK N   1      35.885  12.975  11.801  0.00  0.00     0.035 A 
HETATM   14  C   UNK N   1      36.646  12.107  11.007  0.00  0.00     0.030 A 
ENDROOT
BRANCH  13  15
HETATM   15  N   UNK N   1      35.775  12.852  13.207  0.00  0.00    -0.323 N 
HETATM   16  C   UNK N   1      34.969  12.054  13.949  0.00  0.00     0.256 C 
HETATM   17  O   UNK N   1      34.187  11.271  13.423  0.00  0.00    -0.267 OA
HETATM   18  H   UNK N   1      36.376  13.434  13.725  0.00  0.00     0.169 HD
BRANCH  16  19
HETATM   19  C   UNK N   1      35.059  12.167  15.421  0.00  0.00     0.032 A 
HETATM   20  C   UNK N   1      34.974  13.396  16.091  0.00  0.00     0.018 A 
HETATM   21  C   UNK N   1      35.073  13.437  17.491  0.00  0.00     0.019 A 
HETATM   22  C   UNK N   1      35.260  12.253  18.226  0.00  0.00     0.037 A 
HETATM   23  C   UNK N   1      35.344  11.034  17.550  0.00  0.00     0.019 A 
HETATM   24  C   UNK N   1      35.245  10.992  16.165  0.00  0.00     0.018 A 
BRANCH  22  25
HETATM   25  C   UNK N   1      35.368  12.278  19.697  0.00  0.00     0.176 C 
HETATM   26  O   UNK N   1      35.892  11.347  20.291  0.00  0.00    -0.646 OA
BRANCH  25  27
HETATM   27  O   UNK N   1      34.889  13.323  20.397  0.00  0.00    -0.773 OA
HETATM   28  H   UNK N   1      35.386  14.114  20.458  0.00  0.00     0.167 HD
ENDBRANCH  25  27
ENDBRANCH  22  25
ENDBRANCH  16  19
ENDBRANCH  13  15
TORSDOF 4
ENDMDL
