MODEL 1
REMARK VINA RESULT:      -7.1      0.000      0.000
REMARK  5 active torsions:
REMARK  status: ('A' for Active; 'I' for Inactive)
REMARK    1  A    between atoms: O_4  and  C_21 
REMARK    2  A    between atoms: N_6  and  C_9 
REMARK    3  A    between atoms: N_6  and  C_12 
REMARK    4  A    between atoms: C_10  and  C_17 
REMARK    5  A    between atoms: C_15  and  C_21 
ROOT
HETATM    1  N   UNK N   1      32.876  15.817   7.634  0.00  0.00    -0.342 N 
HETATM    2  H   UNK N   1      33.201  15.244   6.903  0.00  0.00     0.167 HD
ENDROOT
BRANCH   1   3
HETATM    3  C   UNK N   1      31.661  16.522   7.405  0.00  0.00     0.034 A 
HETATM    4  C   UNK N   1      30.942  16.987   8.510  0.00  0.00     0.045 A 
HETATM    5  C   UNK N   1      29.676  17.568   8.348  0.00  0.00     0.050 A 
HETATM    6  C   UNK N   1      29.137  17.696   7.062  0.00  0.00     0.016 A 
HETATM    7  C   UNK N   1      29.861  17.264   5.950  0.00  0.00     0.003 A 
HETATM    8  C   UNK N   1      31.111  16.665   6.121  0.00  0.00     0.029 A 
BRANCH   5   9
HETATM    9  C   UNK N   1      28.874  17.998   9.542  0.00  0.00     0.417 C 
HETATM   10  F   UNK N   1      27.716  18.618   9.107  0.00  0.00    -0.166 F 
HETATM   11  F   UNK N   1      29.605  18.887  10.306  0.00  0.00    -0.166 F 
HETATM   12  F   UNK N   1      28.528  16.911  10.328  0.00  0.00    -0.166 F 
ENDBRANCH   5   9
ENDBRANCH   1   3
BRANCH   1  13
HETATM   13  C   UNK N   1      33.665  15.861   8.817  0.00  0.00     0.122 A 
HETATM   14  N   UNK N   1      33.554  14.879   9.761  0.00  0.00    -0.351 N 
HETATM   15  C   UNK N   1      34.268  14.902  10.917  0.00  0.00     0.090 A 
ATOM     16  HN  UNK N   1      32.915  14.103   9.592  1.00  0.00     0.166 HD
HETATM   17  C   UNK N   1      35.142  15.954  11.177  0.00  0.00     0.018 A 
HETATM   18  C   UNK N   1      35.277  16.975  10.239  0.00  0.00     0.023 A 
HETATM   19  C   UNK N   1      34.547  16.945   9.046  0.00  0.00     0.081 A 
BRANCH  19  20
HETATM   20  C   UNK N   1      34.710  18.069   8.084  0.00  0.00     0.179 C 
HETATM   21  O   UNK N   1      34.945  19.201   8.473  0.00  0.00    -0.646 OA
BRANCH  20  22
HETATM   22  O   UNK N   1      34.605  17.838   6.760  0.00  0.00    -0.773 OA
HETATM   23  H   UNK N   1      35.157  18.280   6.147  0.00  0.00     0.167 HD
ENDBRANCH  20  22
ENDBRANCH  19  20
ENDBRANCH   1  13
TORSDOF 5
ENDMDL
MODEL 2
REMARK VINA RESULT:      -7.1      3.880      6.451
REMARK  5 active torsions:
REMARK  status: ('A' for Active; 'I' for Inactive)
REMARK    1  A    between atoms: O_4  and  C_21 
REMARK    2  A    between atoms: N_6  and  C_9 
REMARK    3  A    between atoms: N_6  and  C_12 
REMARK    4  A    between atoms: C_10  and  C_17 
REMARK    5  A    between atoms: C_15  and  C_21 
ROOT
HETATM    1  N   UNK N   1      29.473  17.325   6.077  0.00  0.00    -0.342 N 
HETATM    2  H   UNK N   1      29.038  16.494   6.375  0.00  0.00     0.167 HD
ENDROOT
BRANCH   1   3
HETATM    3  C   UNK N   1      30.878  17.273   5.860  0.00  0.00     0.034 A 
HETATM    4  C   UNK N   1      31.726  17.326   6.970  0.00  0.00     0.045 A 
HETATM    5  C   UNK N   1      33.116  17.412   6.806  0.00  0.00     0.050 A 
HETATM    6  C   UNK N   1      33.657  17.432   5.515  0.00  0.00     0.016 A 
HETATM    7  C   UNK N   1      32.820  17.349   4.401  0.00  0.00     0.003 A 
HETATM    8  C   UNK N   1      31.435  17.285   4.572  0.00  0.00     0.029 A 
BRANCH   5   9
HETATM    9  C   UNK N   1      34.019  17.544   7.998  0.00  0.00     0.417 C 
HETATM   10  F   UNK N   1      34.987  16.556   7.940  0.00  0.00    -0.166 F 
HETATM   11  F   UNK N   1      33.289  17.396   9.162  0.00  0.00    -0.166 F 
HETATM   12  F   UNK N   1      34.646  18.779   8.015  0.00  0.00    -0.166 F 
ENDBRANCH   5   9
ENDBRANCH   1   3
BRANCH   1  13
HETATM   13  C   UNK N   1      28.635  18.463   5.906  0.00  0.00     0.122 A 
HETATM   14  N   UNK N   1      28.357  18.937   4.656  0.00  0.00    -0.351 N 
HETATM   15  C   UNK N   1      27.588  20.038   4.454  0.00  0.00     0.090 A 
ATOM     16  HN  UNK N   1      28.739  18.447   3.847  1.00  0.00     0.166 HD
HETATM   17  C   UNK N   1      27.060  20.730   5.540  0.00  0.00     0.018 A 
HETATM   18  C   UNK N   1      27.326  20.278   6.830  0.00  0.00     0.023 A 
HETATM   19  C   UNK N   1      28.113  19.139   7.036  0.00  0.00     0.081 A 
BRANCH  19  20
HETATM   20  C   UNK N   1      28.387  18.707   8.433  0.00  0.00     0.179 C 
HETATM   21  O   UNK N   1      29.506  18.794   8.911  0.00  0.00    -0.646 OA
BRANCH  20  22
HETATM   22  O   UNK N   1      27.385  18.219   9.192  0.00  0.00    -0.773 OA
HETATM   23  H   UNK N   1      27.556  17.629   9.899  0.00  0.00     0.167 HD
ENDBRANCH  20  22
ENDBRANCH  19  20
ENDBRANCH   1  13
TORSDOF 5
ENDMDL
MODEL 3
REMARK VINA RESULT:      -6.9      1.853      2.549
REMARK  5 active torsions:
REMARK  status: ('A' for Active; 'I' for Inactive)
REMARK    1  A    between atoms: O_4  and  C_21 
REMARK    2  A    between atoms: N_6  and  C_9 
REMARK    3  A    between atoms: N_6  and  C_12 
REMARK    4  A    between atoms: C_10  and  C_17 
REMARK    5  A    between atoms: C_15  and  C_21 
ROOT
HETATM    1  N   UNK N   1      32.209  16.485   7.891  0.00  0.00    -0.342 N 
HETATM    2  H   UNK N   1      32.417  16.146   6.991  0.00  0.00     0.167 HD
ENDROOT
BRANCH   1   3
HETATM    3  C   UNK N   1      30.968  17.163   8.052  0.00  0.00     0.034 A 
HETATM    4  C   UNK N   1      30.109  17.248   6.953  0.00  0.00     0.045 A 
HETATM    5  C   UNK N   1      28.938  18.017   7.018  0.00  0.00     0.050 A 
HETATM    6  C   UNK N   1      28.623  18.693   8.203  0.00  0.00     0.016 A 
HETATM    7  C   UNK N   1      29.460  18.589   9.315  0.00  0.00     0.003 A 
HETATM    8  C   UNK N   1      30.636  17.840   9.236  0.00  0.00     0.029 A 
BRANCH   5   9
HETATM    9  C   UNK N   1      28.055  18.167   5.813  0.00  0.00     0.417 C 
HETATM   10  F   UNK N   1      28.844  18.428   4.707  0.00  0.00    -0.166 F 
HETATM   11  F   UNK N   1      27.175  19.216   6.000  0.00  0.00    -0.166 F 
HETATM   12  F   UNK N   1      27.330  17.010   5.578  0.00  0.00    -0.166 F 
ENDBRANCH   5   9
ENDBRANCH   1   3
BRANCH   1  13
HETATM   13  C   UNK N   1      33.178  16.249   8.907  0.00  0.00     0.122 A 
HETATM   14  N   UNK N   1      32.993  15.254   9.824  0.00  0.00    -0.351 N 
HETATM   15  C   UNK N   1      33.879  15.019  10.826  0.00  0.00     0.090 A 
ATOM     16  HN  UNK N   1      32.161  14.668   9.754  1.00  0.00     0.166 HD
HETATM   17  C   UNK N   1      35.019  15.809  10.950  0.00  0.00     0.018 A 
HETATM   18  C   UNK N   1      35.239  16.836  10.034  0.00  0.00     0.023 A 
HETATM   19  C   UNK N   1      34.328  17.071   8.999  0.00  0.00     0.081 A 
BRANCH  19  20
HETATM   20  C   UNK N   1      34.595  18.193   8.058  0.00  0.00     0.179 C 
HETATM   21  O   UNK N   1      34.312  18.104   6.875  0.00  0.00    -0.646 OA
BRANCH  20  22
HETATM   22  O   UNK N   1      35.153  19.332   8.517  0.00  0.00    -0.773 OA
HETATM   23  H   UNK N   1      35.492  19.388   9.387  0.00  0.00     0.167 HD
ENDBRANCH  20  22
ENDBRANCH  19  20
ENDBRANCH   1  13
TORSDOF 5
ENDMDL
MODEL 4
REMARK VINA RESULT:      -6.8      4.390      5.991
REMARK  5 active torsions:
REMARK  status: ('A' for Active; 'I' for Inactive)
REMARK    1  A    between atoms: O_4  and  C_21 
REMARK    2  A    between atoms: N_6  and  C_9 
REMARK    3  A    between atoms: N_6  and  C_12 
REMARK    4  A    between atoms: C_10  and  C_17 
REMARK    5  A    between atoms: C_15  and  C_21 
ROOT
HETATM    1  N   UNK N   1      28.139  17.720   6.735  0.00  0.00    -0.342 N 
HETATM    2  H   UNK N   1      27.551  16.942   6.868  0.00  0.00     0.167 HD
ENDROOT
BRANCH   1   3
HETATM    3  C   UNK N   1      27.517  18.932   6.325  0.00  0.00     0.034 A 
HETATM    4  C   UNK N   1      26.763  18.928   5.148  0.00  0.00     0.045 A 
HETATM    5  C   UNK N   1      26.241  20.121   4.628  0.00  0.00     0.050 A 
HETATM    6  C   UNK N   1      26.467  21.325   5.306  0.00  0.00     0.016 A 
HETATM    7  C   UNK N   1      27.193  21.334   6.499  0.00  0.00     0.003 A 
HETATM    8  C   UNK N   1      27.729  20.145   6.998  0.00  0.00     0.029 A 
BRANCH   5   9
HETATM    9  C   UNK N   1      25.495  20.125   3.325  0.00  0.00     0.417 C 
HETATM   10  F   UNK N   1      25.453  18.835   2.827  0.00  0.00    -0.166 F 
HETATM   11  F   UNK N   1      26.140  20.941   2.415  0.00  0.00    -0.166 F 
HETATM   12  F   UNK N   1      24.198  20.579   3.494  0.00  0.00    -0.166 F 
ENDBRANCH   5   9
ENDBRANCH   1   3
BRANCH   1  13
HETATM   13  C   UNK N   1      29.529  17.525   6.973  0.00  0.00     0.122 A 
HETATM   14  N   UNK N   1      30.374  17.233   5.940  0.00  0.00    -0.351 N 
HETATM   15  C   UNK N   1      31.700  17.009   6.132  0.00  0.00     0.090 A 
ATOM     16  HN  UNK N   1      29.997  17.181   4.994  1.00  0.00     0.166 HD
HETATM   17  C   UNK N   1      32.240  17.066   7.414  0.00  0.00     0.018 A 
HETATM   18  C   UNK N   1      31.407  17.357   8.491  0.00  0.00     0.023 A 
HETATM   19  C   UNK N   1      30.043  17.594   8.291  0.00  0.00     0.081 A 
BRANCH  19  20
HETATM   20  C   UNK N   1      29.189  17.881   9.476  0.00  0.00     0.179 C 
HETATM   21  O   UNK N   1      28.060  17.428   9.563  0.00  0.00    -0.646 OA
BRANCH  20  22
HETATM   22  O   UNK N   1      29.669  18.646  10.477  0.00  0.00    -0.773 OA
HETATM   23  H   UNK N   1      29.944  19.528  10.323  0.00  0.00     0.167 HD
ENDBRANCH  20  22
ENDBRANCH  19  20
ENDBRANCH   1  13
TORSDOF 5
ENDMDL
MODEL 5
REMARK VINA RESULT:      -6.8      6.577      8.646
REMARK  5 active torsions:
REMARK  status: ('A' for Active; 'I' for Inactive)
REMARK    1  A    between atoms: O_4  and  C_21 
REMARK    2  A    between atoms: N_6  and  C_9 
REMARK    3  A    between atoms: N_6  and  C_12 
REMARK    4  A    between atoms: C_10  and  C_17 
REMARK    5  A    between atoms: C_15  and  C_21 
ROOT
HETATM    1  N   UNK N   1      35.833  13.835  13.403  0.00  0.00    -0.342 N 
HETATM    2  H   UNK N   1      35.768  14.704  13.860  0.00  0.00     0.167 HD
ENDROOT
BRANCH   1   3
HETATM    3  C   UNK N   1      35.213  12.725  14.042  0.00  0.00     0.034 A 
HETATM    4  C   UNK N   1      35.452  12.521  15.403  0.00  0.00     0.045 A 
HETATM    5  C   UNK N   1      34.976  11.371  16.050  0.00  0.00     0.050 A 
HETATM    6  C   UNK N   1      34.241  10.427  15.323  0.00  0.00     0.016 A 
HETATM    7  C   UNK N   1      33.971  10.637  13.969  0.00  0.00     0.003 A 
HETATM    8  C   UNK N   1      34.468  11.773  13.327  0.00  0.00     0.029 A 
BRANCH   5   9
HETATM    9  C   UNK N   1      35.297  11.118  17.494  0.00  0.00     0.417 C 
HETATM   10  F   UNK N   1      34.435  10.153  17.985  0.00  0.00    -0.166 F 
HETATM   11  F   UNK N   1      35.138  12.281  18.224  0.00  0.00    -0.166 F 
HETATM   12  F   UNK N   1      36.598  10.669  17.645  0.00  0.00    -0.166 F 
ENDBRANCH   5   9
ENDBRANCH   1   3
BRANCH   1  13
HETATM   13  C   UNK N   1      36.539  13.810  12.167  0.00  0.00     0.122 A 
HETATM   14  N   UNK N   1      37.644  13.020  12.016  0.00  0.00    -0.351 N 
HETATM   15  C   UNK N   1      38.361  12.993  10.862  0.00  0.00     0.090 A 
ATOM     16  HN  UNK N   1      37.939  12.432  12.794  1.00  0.00     0.166 HD
HETATM   17  C   UNK N   1      37.984  13.792   9.786  0.00  0.00     0.018 A 
HETATM   18  C   UNK N   1      36.865  14.613   9.907  0.00  0.00     0.023 A 
HETATM   19  C   UNK N   1      36.124  14.634  11.093  0.00  0.00     0.081 A 
BRANCH  19  20
HETATM   20  C   UNK N   1      34.948  15.543  11.181  0.00  0.00     0.179 C 
HETATM   21  O   UNK N   1      35.077  16.750  11.069  0.00  0.00    -0.646 OA
BRANCH  20  22
HETATM   22  O   UNK N   1      33.718  15.028  11.379  0.00  0.00    -0.773 OA
HETATM   23  H   UNK N   1      33.597  14.238  11.866  0.00  0.00     0.167 HD
ENDBRANCH  20  22
ENDBRANCH  19  20
ENDBRANCH   1  13
TORSDOF 5
ENDMDL
MODEL 6
REMARK VINA RESULT:      -6.8      1.635      2.152
REMARK  5 active torsions:
REMARK  status: ('A' for Active; 'I' for Inactive)
REMARK    1  A    between atoms: O_4  and  C_21 
REMARK    2  A    between atoms: N_6  and  C_9 
REMARK    3  A    between atoms: N_6  and  C_12 
REMARK    4  A    between atoms: C_10  and  C_17 
REMARK    5  A    between atoms: C_15  and  C_21 
ROOT
HETATM    1  N   UNK N   1      33.835  17.632   7.876  0.00  0.00    -0.342 N 
HETATM    2  H   UNK N   1      34.362  18.299   7.380  0.00  0.00     0.167 HD
ENDROOT
BRANCH   1   3
HETATM    3  C   UNK N   1      32.438  17.592   7.612  0.00  0.00     0.034 A 
HETATM    4  C   UNK N   1      31.556  17.941   8.639  0.00  0.00     0.045 A 
HETATM    5  C   UNK N   1      30.171  17.791   8.475  0.00  0.00     0.050 A 
HETATM    6  C   UNK N   1      29.670  17.300   7.263  0.00  0.00     0.016 A 
HETATM    7  C   UNK N   1      30.542  16.979   6.221  0.00  0.00     0.003 A 
HETATM    8  C   UNK N   1      31.921  17.109   6.400  0.00  0.00     0.029 A 
BRANCH   5   9
HETATM    9  C   UNK N   1      29.231  18.096   9.605  0.00  0.00     0.417 C 
HETATM   10  F   UNK N   1      29.073  16.959  10.378  0.00  0.00    -0.166 F 
HETATM   11  F   UNK N   1      28.001  18.479   9.106  0.00  0.00    -0.166 F 
HETATM   12  F   UNK N   1      29.726  19.112  10.406  0.00  0.00    -0.166 F 
ENDBRANCH   5   9
ENDBRANCH   1   3
BRANCH   1  13
HETATM   13  C   UNK N   1      34.545  16.801   8.788  0.00  0.00     0.122 A 
HETATM   14  N   UNK N   1      34.715  17.185  10.088  0.00  0.00    -0.351 N 
HETATM   15  C   UNK N   1      35.413  16.433  10.979  0.00  0.00     0.090 A 
ATOM     16  HN  UNK N   1      34.305  18.065  10.399  1.00  0.00     0.166 HD
HETATM   17  C   UNK N   1      35.990  15.232  10.578  0.00  0.00     0.018 A 
HETATM   18  C   UNK N   1      35.841  14.811   9.259  0.00  0.00     0.023 A 
HETATM   19  C   UNK N   1      35.116  15.583   8.345  0.00  0.00     0.081 A 
BRANCH  19  20
HETATM   20  C   UNK N   1      35.001  15.101   6.941  0.00  0.00     0.179 C 
HETATM   21  O   UNK N   1      35.401  15.779   6.009  0.00  0.00    -0.646 OA
BRANCH  20  22
HETATM   22  O   UNK N   1      34.455  13.894   6.690  0.00  0.00    -0.773 OA
HETATM   23  H   UNK N   1      34.857  13.297   6.091  0.00  0.00     0.167 HD
ENDBRANCH  20  22
ENDBRANCH  19  20
ENDBRANCH   1  13
TORSDOF 5
ENDMDL
MODEL 7
REMARK VINA RESULT:      -6.6     13.877     15.858
REMARK  5 active torsions:
REMARK  status: ('A' for Active; 'I' for Inactive)
REMARK    1  A    between atoms: O_4  and  C_21 
REMARK    2  A    between atoms: N_6  and  C_9 
REMARK    3  A    between atoms: N_6  and  C_12 
REMARK    4  A    between atoms: C_10  and  C_17 
REMARK    5  A    between atoms: C_15  and  C_21 
ROOT
HETATM    1  N   UNK N   1      29.307  24.359  -4.813  0.00  0.00    -0.342 N 
HETATM    2  H   UNK N   1      29.835  25.135  -4.516  0.00  0.00     0.167 HD
ENDROOT
BRANCH   1   3
HETATM    3  C   UNK N   1      27.963  24.610  -5.207  0.00  0.00     0.034 A 
HETATM    4  C   UNK N   1      27.435  25.887  -4.999  0.00  0.00     0.045 A 
HETATM    5  C   UNK N   1      26.080  26.151  -5.245  0.00  0.00     0.050 A 
HETATM    6  C   UNK N   1      25.254  25.124  -5.717  0.00  0.00     0.016 A 
HETATM    7  C   UNK N   1      25.779  23.853  -5.957  0.00  0.00     0.003 A 
HETATM    8  C   UNK N   1      27.124  23.592  -5.688  0.00  0.00     0.029 A 
BRANCH   5   9
HETATM    9  C   UNK N   1      25.500  27.504  -4.951  0.00  0.00     0.417 C 
HETATM   10  F   UNK N   1      24.258  27.602  -5.554  0.00  0.00    -0.166 F 
HETATM   11  F   UNK N   1      26.326  28.492  -5.451  0.00  0.00    -0.166 F 
HETATM   12  F   UNK N   1      25.347  27.696  -3.587  0.00  0.00    -0.166 F 
ENDBRANCH   5   9
ENDBRANCH   1   3
BRANCH   1  13
HETATM   13  C   UNK N   1      29.961  23.095  -4.807  0.00  0.00     0.122 A 
HETATM   14  N   UNK N   1      30.434  22.554  -5.968  0.00  0.00    -0.351 N 
HETATM   15  C   UNK N   1      31.036  21.336  -6.007  0.00  0.00     0.090 A 
ATOM     16  HN  UNK N   1      30.332  23.081  -6.835  1.00  0.00     0.166 HD
HETATM   17  C   UNK N   1      31.181  20.591  -4.840  0.00  0.00     0.018 A 
HETATM   18  C   UNK N   1      30.707  21.110  -3.637  0.00  0.00     0.023 A 
HETATM   19  C   UNK N   1      30.094  22.367  -3.599  0.00  0.00     0.081 A 
BRANCH  19  20
HETATM   20  C   UNK N   1      29.585  22.870  -2.294  0.00  0.00     0.179 C 
HETATM   21  O   UNK N   1      28.400  23.110  -2.131  0.00  0.00    -0.646 OA
BRANCH  20  22
HETATM   22  O   UNK N   1      30.441  23.057  -1.268  0.00  0.00    -0.773 OA
HETATM   23  H   UNK N   1      30.225  23.624  -0.555  0.00  0.00     0.167 HD
ENDBRANCH  20  22
ENDBRANCH  19  20
ENDBRANCH   1  13
TORSDOF 5
ENDMDL
MODEL 8
REMARK VINA RESULT:      -6.6     14.202     16.298
REMARK  5 active torsions:
REMARK  status: ('A' for Active; 'I' for Inactive)
REMARK    1  A    between atoms: O_4  and  C_21 
REMARK    2  A    between atoms: N_6  and  C_9 
REMARK    3  A    between atoms: N_6  and  C_12 
REMARK    4  A    between atoms: C_10  and  C_17 
REMARK    5  A    between atoms: C_15  and  C_21 
ROOT
HETATM    1  N   UNK N   1      27.423  24.385  -3.758  0.00  0.00    -0.342 N 
HETATM    2  H   UNK N   1      27.166  24.188  -2.829  0.00  0.00     0.167 HD
ENDROOT
BRANCH   1   3
HETATM    3  C   UNK N   1      26.774  25.487  -4.384  0.00  0.00     0.034 A 
HETATM    4  C   UNK N   1      27.234  26.777  -4.106  0.00  0.00     0.045 A 
HETATM    5  C   UNK N   1      26.549  27.901  -4.588  0.00  0.00     0.050 A 
HETATM    6  C   UNK N   1      25.400  27.724  -5.369  0.00  0.00     0.016 A 
HETATM    7  C   UNK N   1      24.951  26.439  -5.678  0.00  0.00     0.003 A 
HETATM    8  C   UNK N   1      25.625  25.325  -5.175  0.00  0.00     0.029 A 
BRANCH   5   9
HETATM    9  C   UNK N   1      27.002  29.285  -4.226  0.00  0.00     0.417 C 
HETATM   10  F   UNK N   1      27.269  29.989  -5.387  0.00  0.00    -0.166 F 
HETATM   11  F   UNK N   1      28.151  29.221  -3.461  0.00  0.00    -0.166 F 
HETATM   12  F   UNK N   1      26.025  29.960  -3.513  0.00  0.00    -0.166 F 
ENDBRANCH   5   9
ENDBRANCH   1   3
BRANCH   1  13
HETATM   13  C   UNK N   1      28.407  23.542  -4.347  0.00  0.00     0.122 A 
HETATM   14  N   UNK N   1      28.446  23.363  -5.701  0.00  0.00    -0.351 N 
HETATM   15  C   UNK N   1      29.350  22.542  -6.296  0.00  0.00     0.090 A 
ATOM     16  HN  UNK N   1      27.775  23.863  -6.283  1.00  0.00     0.166 HD
HETATM   17  C   UNK N   1      30.273  21.843  -5.524  0.00  0.00     0.018 A 
HETATM   18  C   UNK N   1      30.260  21.998  -4.139  0.00  0.00     0.023 A 
HETATM   19  C   UNK N   1      29.333  22.849  -3.529  0.00  0.00     0.081 A 
BRANCH  19  20
HETATM   20  C   UNK N   1      29.344  22.966  -2.045  0.00  0.00     0.179 C 
HETATM   21  O   UNK N   1      28.304  23.000  -1.409  0.00  0.00    -0.646 OA
BRANCH  20  22
HETATM   22  O   UNK N   1      30.519  23.026  -1.388  0.00  0.00    -0.773 OA
HETATM   23  H   UNK N   1      30.791  22.335  -0.818  0.00  0.00     0.167 HD
ENDBRANCH  20  22
ENDBRANCH  19  20
ENDBRANCH   1  13
TORSDOF 5
ENDMDL
MODEL 9
REMARK VINA RESULT:      -6.4      4.155      5.643
REMARK  5 active torsions:
REMARK  status: ('A' for Active; 'I' for Inactive)
REMARK    1  A    between atoms: O_4  and  C_21 
REMARK    2  A    between atoms: N_6  and  C_9 
REMARK    3  A    between atoms: N_6  and  C_12 
REMARK    4  A    between atoms: C_10  and  C_17 
REMARK    5  A    between atoms: C_15  and  C_21 
ROOT
HETATM    1  N   UNK N   1      28.393  16.327   6.463  0.00  0.00    -0.342 N 
HETATM    2  H   UNK N   1      28.075  15.469   6.825  0.00  0.00     0.167 HD
ENDROOT
BRANCH   1   3
HETATM    3  C   UNK N   1      27.656  16.879   5.379  0.00  0.00     0.034 A 
HETATM    4  C   UNK N   1      27.576  18.270   5.267  0.00  0.00     0.045 A 
HETATM    5  C   UNK N   1      26.754  18.864   4.298  0.00  0.00     0.050 A 
HETATM    6  C   UNK N   1      26.019  18.052   3.426  0.00  0.00     0.016 A 
HETATM    7  C   UNK N   1      26.117  16.662   3.510  0.00  0.00     0.003 A 
HETATM    8  C   UNK N   1      26.919  16.077   4.492  0.00  0.00     0.029 A 
BRANCH   5   9
HETATM    9  C   UNK N   1      26.613  20.357   4.229  0.00  0.00     0.417 C 
HETATM   10  F   UNK N   1      26.739  20.761   2.911  0.00  0.00    -0.166 F 
HETATM   11  F   UNK N   1      27.599  20.961   4.985  0.00  0.00    -0.166 F 
HETATM   12  F   UNK N   1      25.375  20.764   4.700  0.00  0.00    -0.166 F 
ENDBRANCH   5   9
ENDBRANCH   1   3
BRANCH   1  13
HETATM   13  C   UNK N   1      29.546  16.896   7.075  0.00  0.00     0.122 A 
HETATM   14  N   UNK N   1      30.781  16.726   6.518  0.00  0.00    -0.351 N 
HETATM   15  C   UNK N   1      31.907  17.227   7.089  0.00  0.00     0.090 A 
ATOM     16  HN  UNK N   1      30.861  16.205   5.644  1.00  0.00     0.166 HD
HETATM   17  C   UNK N   1      31.829  17.935   8.285  0.00  0.00     0.018 A 
HETATM   18  C   UNK N   1      30.585  18.125   8.883  0.00  0.00     0.023 A 
HETATM   19  C   UNK N   1      29.426  17.614   8.290  0.00  0.00     0.081 A 
BRANCH  19  20
HETATM   20  C   UNK N   1      28.123  17.824   8.978  0.00  0.00     0.179 C 
HETATM   21  O   UNK N   1      27.617  16.942   9.651  0.00  0.00    -0.646 OA
BRANCH  20  22
HETATM   22  O   UNK N   1      27.491  19.010   8.866  0.00  0.00    -0.773 OA
HETATM   23  H   UNK N   1      26.715  19.098   8.350  0.00  0.00     0.167 HD
ENDBRANCH  20  22
ENDBRANCH  19  20
ENDBRANCH   1  13
TORSDOF 5
ENDMDL
