MODEL 1
REMARK VINA RESULT:      -6.5      0.000      0.000
REMARK  10 active torsions:
REMARK  status: ('A' for Active; 'I' for Inactive)
REMARK    1  A    between atoms: C_4  and  C_9 
REMARK    2  A    between atoms: C_10  and  C_11 
REMARK    3  A    between atoms: C_11  and  O_12 
REMARK    4  A    between atoms: C_18  and  C_21 
REMARK    5  A    between atoms: C_21  and  O_22 
REMARK    6  A    between atoms: O_22  and  C_23 
REMARK    7  A    between atoms: C_23  and  O_24 
REMARK    8  A    between atoms: O_24  and  C_25 
REMARK    9  A    between atoms: C_25  and  C_26 
REMARK   10  A    between atoms: C_26  and  C_27 
ROOT
HETATM    1  C   UNK N   1      28.554  17.912   5.525  0.00  0.00     0.102 C 
HETATM    2  C   UNK N   1      27.535  19.056   5.598  0.00  0.00     0.052 C 
HETATM    3  C   UNK N   1      27.332  19.655   6.809  0.00  0.00     0.018 C 
HETATM    4  N   UNK N   1      28.057  19.222   7.949  0.00  0.00    -0.362 N 
HETATM    5  C   UNK N   1      29.219  18.412   7.858  0.00  0.00     0.018 C 
HETATM    6  C   UNK N   1      29.523  17.783   6.690  0.00  0.00     0.052 C 
HETATM    7  C   UNK N   1      26.520  20.898   6.978  0.00  0.00     0.069 C 
HETATM    8  C   UNK N   1      30.119  18.394   9.049  0.00  0.00     0.069 C 
HETATM    9  H   UNK N   1      27.741  19.494   8.840  0.00  0.00     0.165 HD
ENDROOT
BRANCH   6  10
HETATM   10  C   UNK N   1      30.796  17.012   6.475  0.00  0.00     0.294 C 
HETATM   11  O   UNK N   1      30.826  15.823   6.766  0.00  0.00    -0.259 OA
BRANCH  10  12
HETATM   12  O   UNK N   1      31.910  17.569   5.957  0.00  0.00    -0.291 OA
BRANCH  12  13
HETATM   13  C   UNK N   1      33.150  16.999   6.156  0.00  0.00     0.358 C 
BRANCH  13  14
HETATM   14  O   UNK N   1      34.034  17.954   6.610  0.00  0.00    -0.295 OA
BRANCH  14  15
HETATM   15  C   UNK N   1      34.283  18.166   7.925  0.00  0.00     0.260 C 
HETATM   16  O   UNK N   1      34.994  19.102   8.255  0.00  0.00    -0.265 OA
BRANCH  15  17
HETATM   17  C   UNK N   1      33.717  17.261   8.981  0.00  0.00     0.111 C 
BRANCH  17  18
HETATM   18  C   UNK N   1      34.833  16.613   9.783  0.00  0.00     0.005 C 
HETATM   19  C   UNK N   1      35.272  15.323   9.113  0.00  0.00     0.005 C 
ENDBRANCH  17  18
ENDBRANCH  15  17
ENDBRANCH  14  15
ENDBRANCH  13  14
ENDBRANCH  12  13
ENDBRANCH  10  12
ENDBRANCH   6  10
BRANCH   1  20
HETATM   20  C   UNK N   1      28.324  16.670   4.639  0.00  0.00    -0.021 A 
HETATM   21  C   UNK N   1      29.006  16.634   3.418  0.00  0.00     0.010 A 
HETATM   22  C   UNK N   1      28.973  15.518   2.589  0.00  0.00     0.002 A 
HETATM   23  C   UNK N   1      28.292  14.377   2.990  0.00  0.00     0.026 A 
HETATM   24  C   UNK N   1      27.606  14.359   4.204  0.00  0.00     0.056 A 
HETATM   25  C   UNK N   1      27.590  15.508   5.035  0.00  0.00     0.063 A 
HETATM   26 Cl   UNK N   1      26.824  12.857   4.678  0.00  0.00    -0.083 Cl
HETATM   27 Cl   UNK N   1      26.705  15.436   6.558  0.00  0.00    -0.082 Cl
ENDBRANCH   1  20
BRANCH   2  28
HETATM   28  C   UNK N   1      26.963  19.615   4.316  0.00  0.00     0.291 C 
HETATM   29  O   UNK N   1      27.706  20.260   3.591  0.00  0.00    -0.260 OA
BRANCH  28  30
HETATM   30  O   UNK N   1      25.667  19.499   3.931  0.00  0.00    -0.323 OA
HETATM   31  C   UNK N   1      25.085  20.242   2.930  0.00  0.00     0.213 C 
ENDBRANCH  28  30
ENDBRANCH   2  28
TORSDOF 10
ENDMDL
MODEL 2
REMARK VINA RESULT:      -6.5     12.355     14.829
REMARK  10 active torsions:
REMARK  status: ('A' for Active; 'I' for Inactive)
REMARK    1  A    between atoms: C_4  and  C_9 
REMARK    2  A    between atoms: C_10  and  C_11 
REMARK    3  A    between atoms: C_11  and  O_12 
REMARK    4  A    between atoms: C_18  and  C_21 
REMARK    5  A    between atoms: C_21  and  O_22 
REMARK    6  A    between atoms: O_22  and  C_23 
REMARK    7  A    between atoms: C_23  and  O_24 
REMARK    8  A    between atoms: O_24  and  C_25 
REMARK    9  A    between atoms: C_25  and  C_26 
REMARK   10  A    between atoms: C_26  and  C_27 
ROOT
HETATM    1  C   UNK N   1      28.654  25.586  -4.633  0.00  0.00     0.102 C 
HETATM    2  C   UNK N   1      29.580  26.809  -4.621  0.00  0.00     0.052 C 
HETATM    3  C   UNK N   1      29.052  28.014  -4.987  0.00  0.00     0.018 C 
HETATM    4  N   UNK N   1      27.685  28.111  -5.356  0.00  0.00    -0.362 N 
HETATM    5  C   UNK N   1      26.738  27.094  -5.068  0.00  0.00     0.018 C 
HETATM    6  C   UNK N   1      27.159  25.859  -4.679  0.00  0.00     0.052 C 
HETATM    7  C   UNK N   1      29.786  29.307  -4.833  0.00  0.00     0.069 C 
HETATM    8  C   UNK N   1      25.298  27.489  -5.104  0.00  0.00     0.069 C 
HETATM    9  H   UNK N   1      27.381  28.917  -5.832  0.00  0.00     0.165 HD
ENDROOT
BRANCH   6  10
HETATM   10  C   UNK N   1      26.222  24.770  -4.237  0.00  0.00     0.294 C 
HETATM   11  O   UNK N   1      26.285  24.365  -3.083  0.00  0.00    -0.259 OA
BRANCH  10  12
HETATM   12  O   UNK N   1      25.296  24.226  -5.053  0.00  0.00    -0.291 OA
BRANCH  12  13
HETATM   13  C   UNK N   1      25.625  23.811  -6.326  0.00  0.00     0.358 C 
BRANCH  13  14
HETATM   14  O   UNK N   1      25.327  22.473  -6.472  0.00  0.00    -0.295 OA
BRANCH  14  15
HETATM   15  C   UNK N   1      24.949  21.924  -7.652  0.00  0.00     0.260 C 
HETATM   16  O   UNK N   1      24.072  22.462  -8.307  0.00  0.00    -0.265 OA
BRANCH  15  17
HETATM   17  C   UNK N   1      25.577  20.657  -8.158  0.00  0.00     0.111 C 
BRANCH  17  18
HETATM   18  C   UNK N   1      27.085  20.814  -8.264  0.00  0.00     0.005 C 
HETATM   19  C   UNK N   1      27.463  21.267  -9.662  0.00  0.00     0.005 C 
ENDBRANCH  17  18
ENDBRANCH  15  17
ENDBRANCH  14  15
ENDBRANCH  13  14
ENDBRANCH  12  13
ENDBRANCH  10  12
ENDBRANCH   6  10
BRANCH   1  20
HETATM   20  C   UNK N   1      29.145  24.195  -5.087  0.00  0.00    -0.021 A 
HETATM   21  C   UNK N   1      29.309  24.004  -6.463  0.00  0.00     0.010 A 
HETATM   22  C   UNK N   1      29.859  22.837  -6.984  0.00  0.00     0.002 A 
HETATM   23  C   UNK N   1      30.312  21.844  -6.129  0.00  0.00     0.026 A 
HETATM   24  C   UNK N   1      30.182  21.992  -4.748  0.00  0.00     0.056 A 
HETATM   25  C   UNK N   1      29.577  23.155  -4.206  0.00  0.00     0.063 A 
HETATM   26 Cl   UNK N   1      30.841  20.722  -3.725  0.00  0.00    -0.083 Cl
HETATM   27 Cl   UNK N   1      29.433  23.292  -2.455  0.00  0.00    -0.082 Cl
ENDBRANCH   1  20
BRANCH   2  28
HETATM   28  C   UNK N   1      30.956  26.683  -4.010  0.00  0.00     0.291 C 
HETATM   29  O   UNK N   1      31.051  26.751  -2.794  0.00  0.00    -0.260 OA
BRANCH  28  30
HETATM   30  O   UNK N   1      32.108  26.553  -4.717  0.00  0.00    -0.323 OA
HETATM   31  C   UNK N   1      32.711  25.351  -5.002  0.00  0.00     0.213 C 
ENDBRANCH  28  30
ENDBRANCH   2  28
TORSDOF 10
ENDMDL
MODEL 3
REMARK VINA RESULT:      -6.5      5.244      7.991
REMARK  10 active torsions:
REMARK  status: ('A' for Active; 'I' for Inactive)
REMARK    1  A    between atoms: C_4  and  C_9 
REMARK    2  A    between atoms: C_10  and  C_11 
REMARK    3  A    between atoms: C_11  and  O_12 
REMARK    4  A    between atoms: C_18  and  C_21 
REMARK    5  A    between atoms: C_21  and  O_22 
REMARK    6  A    between atoms: O_22  and  C_23 
REMARK    7  A    between atoms: C_23  and  O_24 
REMARK    8  A    between atoms: O_24  and  C_25 
REMARK    9  A    between atoms: C_25  and  C_26 
REMARK   10  A    between atoms: C_26  and  C_27 
ROOT
HETATM    1  C   UNK N   1      21.961  17.012   5.800  0.00  0.00     0.102 C 
HETATM    2  C   UNK N   1      21.201  16.582   7.063  0.00  0.00     0.052 C 
HETATM    3  C   UNK N   1      21.624  15.455   7.710  0.00  0.00     0.018 C 
HETATM    4  N   UNK N   1      22.736  14.726   7.217  0.00  0.00    -0.362 N 
HETATM    5  C   UNK N   1      23.648  15.260   6.269  0.00  0.00     0.018 C 
HETATM    6  C   UNK N   1      23.331  16.391   5.580  0.00  0.00     0.052 C 
HETATM    7  C   UNK N   1      21.102  15.039   9.046  0.00  0.00     0.069 C 
HETATM    8  C   UNK N   1      24.979  14.592   6.168  0.00  0.00     0.069 C 
HETATM    9  H   UNK N   1      22.882  13.810   7.546  0.00  0.00     0.165 HD
ENDROOT
BRANCH   6  10
HETATM   10  C   UNK N   1      24.289  17.088   4.655  0.00  0.00     0.294 C 
HETATM   11  O   UNK N   1      24.526  16.590   3.562  0.00  0.00    -0.259 OA
BRANCH  10  12
HETATM   12  O   UNK N   1      24.890  18.255   4.967  0.00  0.00    -0.291 OA
BRANCH  12  13
HETATM   13  C   UNK N   1      24.889  19.314   4.085  0.00  0.00     0.358 C 
BRANCH  13  14
HETATM   14  O   UNK N   1      26.104  19.383   3.438  0.00  0.00    -0.295 OA
BRANCH  14  15
HETATM   15  C   UNK N   1      27.292  19.291   4.082  0.00  0.00     0.260 C 
HETATM   16  O   UNK N   1      27.931  18.253   4.014  0.00  0.00    -0.265 OA
BRANCH  15  17
HETATM   17  C   UNK N   1      27.830  20.436   4.893  0.00  0.00     0.111 C 
BRANCH  17  18
HETATM   18  C   UNK N   1      27.487  20.256   6.363  0.00  0.00     0.005 C 
HETATM   19  C   UNK N   1      26.538  21.353   6.813  0.00  0.00     0.005 C 
ENDBRANCH  17  18
ENDBRANCH  15  17
ENDBRANCH  14  15
ENDBRANCH  13  14
ENDBRANCH  12  13
ENDBRANCH  10  12
ENDBRANCH   6  10
BRANCH   1  20
HETATM   20  C   UNK N   1      21.235  17.608   4.576  0.00  0.00    -0.021 A 
HETATM   21  C   UNK N   1      21.166  19.005   4.505  0.00  0.00     0.010 A 
HETATM   22  C   UNK N   1      20.644  19.659   3.395  0.00  0.00     0.002 A 
HETATM   23  C   UNK N   1      20.223  18.928   2.293  0.00  0.00     0.026 A 
HETATM   24  C   UNK N   1      20.283  17.535   2.311  0.00  0.00     0.056 A 
HETATM   25  C   UNK N   1      20.766  16.853   3.457  0.00  0.00     0.063 A 
HETATM   26 Cl   UNK N   1      19.796  16.678   0.854  0.00  0.00    -0.083 Cl
HETATM   27 Cl   UNK N   1      20.817  15.091   3.430  0.00  0.00    -0.082 Cl
ENDBRANCH   1  20
BRANCH   2  28
HETATM   28  C   UNK N   1      20.174  17.517   7.657  0.00  0.00     0.291 C 
HETATM   29  O   UNK N   1      20.517  18.665   7.899  0.00  0.00    -0.260 OA
BRANCH  28  30
HETATM   30  O   UNK N   1      18.908  17.162   7.995  0.00  0.00    -0.323 OA
HETATM   31  C   UNK N   1      18.314  17.462   9.198  0.00  0.00     0.213 C 
ENDBRANCH  28  30
ENDBRANCH   2  28
TORSDOF 10
ENDMDL
MODEL 4
REMARK VINA RESULT:      -6.4     11.489     14.429
REMARK  10 active torsions:
REMARK  status: ('A' for Active; 'I' for Inactive)
REMARK    1  A    between atoms: C_4  and  C_9 
REMARK    2  A    between atoms: C_10  and  C_11 
REMARK    3  A    between atoms: C_11  and  O_12 
REMARK    4  A    between atoms: C_18  and  C_21 
REMARK    5  A    between atoms: C_21  and  O_22 
REMARK    6  A    between atoms: O_22  and  C_23 
REMARK    7  A    between atoms: C_23  and  O_24 
REMARK    8  A    between atoms: O_24  and  C_25 
REMARK    9  A    between atoms: C_25  and  C_26 
REMARK   10  A    between atoms: C_26  and  C_27 
ROOT
HETATM    1  C   UNK N   1      31.099  24.227  -4.132  0.00  0.00     0.102 C 
HETATM    2  C   UNK N   1      32.032  23.010  -4.199  0.00  0.00     0.052 C 
HETATM    3  C   UNK N   1      33.247  23.169  -4.801  0.00  0.00     0.018 C 
HETATM    4  N   UNK N   1      33.619  24.430  -5.334  0.00  0.00    -0.362 N 
HETATM    5  C   UNK N   1      32.941  25.634  -5.007  0.00  0.00     0.018 C 
HETATM    6  C   UNK N   1      31.728  25.587  -4.389  0.00  0.00     0.052 C 
HETATM    7  C   UNK N   1      34.319  22.129  -4.761  0.00  0.00     0.069 C 
HETATM    8  C   UNK N   1      33.672  26.908  -5.266  0.00  0.00     0.069 C 
HETATM    9  H   UNK N   1      34.379  24.473  -5.958  0.00  0.00     0.165 HD
ENDROOT
BRANCH   6  10
HETATM   10  C   UNK N   1      31.005  26.810  -3.898  0.00  0.00     0.294 C 
HETATM   11  O   UNK N   1      31.163  27.167  -2.738  0.00  0.00    -0.259 OA
BRANCH  10  12
HETATM   12  O   UNK N   1      30.198  27.549  -4.687  0.00  0.00    -0.291 OA
BRANCH  12  13
HETATM   13  C   UNK N   1      29.213  28.349  -4.148  0.00  0.00     0.358 C 
BRANCH  13  14
HETATM   14  O   UNK N   1      28.172  27.567  -3.695  0.00  0.00    -0.295 OA
BRANCH  14  15
HETATM   15  C   UNK N   1      27.069  28.077  -3.098  0.00  0.00     0.260 C 
HETATM   16  O   UNK N   1      27.195  28.952  -2.257  0.00  0.00    -0.265 OA
BRANCH  15  17
HETATM   17  C   UNK N   1      25.695  27.573  -3.438  0.00  0.00     0.111 C 
BRANCH  17  18
HETATM   18  C   UNK N   1      25.219  28.168  -4.753  0.00  0.00     0.005 C 
HETATM   19  C   UNK N   1      24.796  27.061  -5.701  0.00  0.00     0.005 C 
ENDBRANCH  17  18
ENDBRANCH  15  17
ENDBRANCH  14  15
ENDBRANCH  13  14
ENDBRANCH  12  13
ENDBRANCH  10  12
ENDBRANCH   6  10
BRANCH   1  20
HETATM   20  C   UNK N   1      29.572  24.094  -4.311  0.00  0.00    -0.021 A 
HETATM   21  C   UNK N   1      28.801  24.088  -3.142  0.00  0.00     0.010 A 
HETATM   22  C   UNK N   1      27.411  24.093  -3.179  0.00  0.00     0.002 A 
HETATM   23  C   UNK N   1      26.750  24.160  -4.397  0.00  0.00     0.026 A 
HETATM   24  C   UNK N   1      27.474  24.180  -5.589  0.00  0.00     0.056 A 
HETATM   25  C   UNK N   1      28.891  24.124  -5.567  0.00  0.00     0.063 A 
HETATM   26 Cl   UNK N   1      26.570  24.334  -7.090  0.00  0.00    -0.083 Cl
HETATM   27 Cl   UNK N   1      29.759  24.148  -7.101  0.00  0.00    -0.082 Cl
ENDBRANCH   1  20
BRANCH   2  28
HETATM   28  C   UNK N   1      31.673  21.765  -3.422  0.00  0.00     0.291 C 
HETATM   29  O   UNK N   1      32.007  21.706  -2.249  0.00  0.00    -0.260 OA
BRANCH  28  30
HETATM   30  O   UNK N   1      31.050  20.679  -3.946  0.00  0.00    -0.323 OA
HETATM   31  C   UNK N   1      30.997  20.388  -5.290  0.00  0.00     0.213 C 
ENDBRANCH  28  30
ENDBRANCH   2  28
TORSDOF 10
ENDMDL
MODEL 5
REMARK VINA RESULT:      -6.4      2.637      6.172
REMARK  10 active torsions:
REMARK  status: ('A' for Active; 'I' for Inactive)
REMARK    1  A    between atoms: C_4  and  C_9 
REMARK    2  A    between atoms: C_10  and  C_11 
REMARK    3  A    between atoms: C_11  and  O_12 
REMARK    4  A    between atoms: C_18  and  C_21 
REMARK    5  A    between atoms: C_21  and  O_22 
REMARK    6  A    between atoms: O_22  and  C_23 
REMARK    7  A    between atoms: C_23  and  O_24 
REMARK    8  A    between atoms: O_24  and  C_25 
REMARK    9  A    between atoms: C_25  and  C_26 
REMARK   10  A    between atoms: C_26  and  C_27 
ROOT
HETATM    1  C   UNK N   1      30.035  16.245   6.439  0.00  0.00     0.102 C 
HETATM    2  C   UNK N   1      30.236  16.936   7.794  0.00  0.00     0.052 C 
HETATM    3  C   UNK N   1      29.145  17.501   8.392  0.00  0.00     0.018 C 
HETATM    4  N   UNK N   1      27.874  17.433   7.764  0.00  0.00    -0.362 N 
HETATM    5  C   UNK N   1      27.589  16.539   6.699  0.00  0.00     0.018 C 
HETATM    6  C   UNK N   1      28.605  15.910   6.046  0.00  0.00     0.052 C 
HETATM    7  C   UNK N   1      29.163  18.028   9.790  0.00  0.00     0.069 C 
HETATM    8  C   UNK N   1      26.149  16.253   6.431  0.00  0.00     0.069 C 
HETATM    9  H   UNK N   1      27.160  18.031   8.081  0.00  0.00     0.165 HD
ENDROOT
BRANCH   6  10
HETATM   10  C   UNK N   1      28.383  14.858   4.995  0.00  0.00     0.294 C 
HETATM   11  O   UNK N   1      28.127  13.713   5.347  0.00  0.00    -0.259 OA
BRANCH  10  12
HETATM   12  O   UNK N   1      28.436  15.122   3.673  0.00  0.00    -0.291 OA
BRANCH  12  13
HETATM   13  C   UNK N   1      27.556  16.008   3.089  0.00  0.00     0.358 C 
BRANCH  13  14
HETATM   14  O   UNK N   1      28.068  17.286   3.158  0.00  0.00    -0.295 OA
BRANCH  14  15
HETATM   15  C   UNK N   1      27.395  18.324   3.710  0.00  0.00     0.260 C 
HETATM   16  O   UNK N   1      26.187  18.403   3.555  0.00  0.00    -0.265 OA
BRANCH  15  17
HETATM   17  C   UNK N   1      28.109  19.388   4.494  0.00  0.00     0.111 C 
BRANCH  17  18
HETATM   18  C   UNK N   1      27.126  20.437   4.988  0.00  0.00     0.005 C 
HETATM   19  C   UNK N   1      27.470  20.842   6.410  0.00  0.00     0.005 C 
ENDBRANCH  17  18
ENDBRANCH  15  17
ENDBRANCH  14  15
ENDBRANCH  13  14
ENDBRANCH  12  13
ENDBRANCH  10  12
ENDBRANCH   6  10
BRANCH   1  20
HETATM   20  C   UNK N   1      31.088  16.334   5.315  0.00  0.00    -0.021 A 
HETATM   21  C   UNK N   1      31.208  17.567   4.662  0.00  0.00     0.010 A 
HETATM   22  C   UNK N   1      32.200  17.804   3.717  0.00  0.00     0.002 A 
HETATM   23  C   UNK N   1      33.140  16.823   3.436  0.00  0.00     0.026 A 
HETATM   24  C   UNK N   1      33.070  15.582   4.069  0.00  0.00     0.056 A 
HETATM   25  C   UNK N   1      32.033  15.309   4.998  0.00  0.00     0.063 A 
HETATM   26 Cl   UNK N   1      34.335  14.412   3.715  0.00  0.00    -0.083 Cl
HETATM   27 Cl   UNK N   1      31.986  13.724   5.767  0.00  0.00    -0.082 Cl
ENDBRANCH   1  20
BRANCH   2  28
HETATM   28  C   UNK N   1      31.558  16.781   8.509  0.00  0.00     0.291 C 
HETATM   29  O   UNK N   1      31.785  15.720   9.071  0.00  0.00    -0.260 OA
BRANCH  28  30
HETATM   30  O   UNK N   1      32.496  17.756   8.621  0.00  0.00    -0.323 OA
HETATM   31  C   UNK N   1      33.459  18.018   7.675  0.00  0.00     0.213 C 
ENDBRANCH  28  30
ENDBRANCH   2  28
TORSDOF 10
ENDMDL
MODEL 6
REMARK VINA RESULT:      -6.4      8.057      9.939
REMARK  10 active torsions:
REMARK  status: ('A' for Active; 'I' for Inactive)
REMARK    1  A    between atoms: C_4  and  C_9 
REMARK    2  A    between atoms: C_10  and  C_11 
REMARK    3  A    between atoms: C_11  and  O_12 
REMARK    4  A    between atoms: C_18  and  C_21 
REMARK    5  A    between atoms: C_21  and  O_22 
REMARK    6  A    between atoms: O_22  and  C_23 
REMARK    7  A    between atoms: C_23  and  O_24 
REMARK    8  A    between atoms: O_24  and  C_25 
REMARK    9  A    between atoms: C_25  and  C_26 
REMARK   10  A    between atoms: C_26  and  C_27 
ROOT
HETATM    1  C   UNK N   1      21.474  16.086   3.466  0.00  0.00     0.102 C 
HETATM    2  C   UNK N   1      20.929  15.836   2.054  0.00  0.00     0.052 C 
HETATM    3  C   UNK N   1      20.195  16.829   1.468  0.00  0.00     0.018 C 
HETATM    4  N   UNK N   1      19.963  18.046   2.158  0.00  0.00    -0.362 N 
HETATM    5  C   UNK N   1      20.709  18.436   3.301  0.00  0.00     0.018 C 
HETATM    6  C   UNK N   1      21.487  17.527   3.951  0.00  0.00     0.052 C 
HETATM    7  C   UNK N   1      19.775  16.793   0.034  0.00  0.00     0.069 C 
HETATM    8  C   UNK N   1      20.679  19.885   3.659  0.00  0.00     0.069 C 
HETATM    9  H   UNK N   1      19.254  18.645   1.831  0.00  0.00     0.165 HD
ENDROOT
BRANCH   6  10
HETATM   10  C   UNK N   1      22.401  17.887   5.089  0.00  0.00     0.294 C 
HETATM   11  O   UNK N   1      23.493  18.381   4.839  0.00  0.00    -0.259 OA
BRANCH  10  12
HETATM   12  O   UNK N   1      22.064  17.706   6.383  0.00  0.00    -0.291 OA
BRANCH  12  13
HETATM   13  C   UNK N   1      20.824  18.081   6.855  0.00  0.00     0.358 C 
BRANCH  13  14
HETATM   14  O   UNK N   1      20.623  17.548   8.110  0.00  0.00    -0.295 OA
BRANCH  14  15
HETATM   15  C   UNK N   1      20.224  16.270   8.315  0.00  0.00     0.260 C 
HETATM   16  O   UNK N   1      19.081  15.948   8.035  0.00  0.00    -0.265 OA
BRANCH  15  17
HETATM   17  C   UNK N   1      21.157  15.246   8.897  0.00  0.00     0.111 C 
BRANCH  17  18
HETATM   18  C   UNK N   1      20.380  14.198   9.676  0.00  0.00     0.005 C 
HETATM   19  C   UNK N   1      21.316  13.097  10.141  0.00  0.00     0.005 C 
ENDBRANCH  17  18
ENDBRANCH  15  17
ENDBRANCH  14  15
ENDBRANCH  13  14
ENDBRANCH  12  13
ENDBRANCH  10  12
ENDBRANCH   6  10
BRANCH   1  20
HETATM   20  C   UNK N   1      21.526  14.968   4.529  0.00  0.00    -0.021 A 
HETATM   21  C   UNK N   1      20.298  14.479   4.988  0.00  0.00     0.010 A 
HETATM   22  C   UNK N   1      20.215  13.394   5.854  0.00  0.00     0.002 A 
HETATM   23  C   UNK N   1      21.369  12.729   6.244  0.00  0.00     0.026 A 
HETATM   24  C   UNK N   1      22.617  13.171   5.804  0.00  0.00     0.056 A 
HETATM   25  C   UNK N   1      22.718  14.307   4.961  0.00  0.00     0.063 A 
HETATM   26 Cl   UNK N   1      24.028  12.238   6.283  0.00  0.00    -0.083 Cl
HETATM   27 Cl   UNK N   1      24.318  14.827   4.435  0.00  0.00    -0.082 Cl
ENDBRANCH   1  20
BRANCH   2  28
HETATM   28  C   UNK N   1      21.394  14.618   1.290  0.00  0.00     0.291 C 
HETATM   29  O   UNK N   1      22.464  14.684   0.704  0.00  0.00    -0.260 OA
BRANCH  28  30
HETATM   30  O   UNK N   1      20.685  13.468   1.162  0.00  0.00    -0.323 OA
HETATM   31  C   UNK N   1      21.111  12.239   1.608  0.00  0.00     0.213 C 
ENDBRANCH  28  30
ENDBRANCH   2  28
TORSDOF 10
ENDMDL
MODEL 7
REMARK VINA RESULT:      -6.3      4.453      7.176
REMARK  10 active torsions:
REMARK  status: ('A' for Active; 'I' for Inactive)
REMARK    1  A    between atoms: C_4  and  C_9 
REMARK    2  A    between atoms: C_10  and  C_11 
REMARK    3  A    between atoms: C_11  and  O_12 
REMARK    4  A    between atoms: C_18  and  C_21 
REMARK    5  A    between atoms: C_21  and  O_22 
REMARK    6  A    between atoms: O_22  and  C_23 
REMARK    7  A    between atoms: C_23  and  O_24 
REMARK    8  A    between atoms: O_24  and  C_25 
REMARK    9  A    between atoms: C_25  and  C_26 
REMARK   10  A    between atoms: C_26  and  C_27 
ROOT
HETATM    1  C   UNK N   1      22.484  17.866   3.835  0.00  0.00     0.102 C 
HETATM    2  C   UNK N   1      21.424  18.690   3.092  0.00  0.00     0.052 C 
HETATM    3  C   UNK N   1      21.742  19.971   2.741  0.00  0.00     0.018 C 
HETATM    4  N   UNK N   1      23.020  20.501   3.055  0.00  0.00    -0.362 N 
HETATM    5  C   UNK N   1      24.117  19.685   3.435  0.00  0.00     0.018 C 
HETATM    6  C   UNK N   1      23.912  18.386   3.789  0.00  0.00     0.052 C 
HETATM    7  C   UNK N   1      20.882  20.809   1.851  0.00  0.00     0.069 C 
HETATM    8  C   UNK N   1      25.477  20.289   3.310  0.00  0.00     0.069 C 
HETATM    9  H   UNK N   1      23.151  21.475   3.008  0.00  0.00     0.165 HD
ENDROOT
BRANCH   6  10
HETATM   10  C   UNK N   1      25.030  17.425   4.083  0.00  0.00     0.294 C 
HETATM   11  O   UNK N   1      25.515  16.780   3.162  0.00  0.00    -0.259 OA
BRANCH  10  12
HETATM   12  O   UNK N   1      25.540  17.252   5.319  0.00  0.00    -0.291 OA
BRANCH  12  13
HETATM   13  C   UNK N   1      26.741  16.601   5.509  0.00  0.00     0.358 C 
BRANCH  13  14
HETATM   14  O   UNK N   1      27.554  17.353   6.331  0.00  0.00    -0.295 OA
BRANCH  14  15
HETATM   15  C   UNK N   1      27.972  18.602   6.016  0.00  0.00     0.260 C 
HETATM   16  O   UNK N   1      28.495  18.802   4.931  0.00  0.00    -0.265 OA
BRANCH  15  17
HETATM   17  C   UNK N   1      27.820  19.742   6.982  0.00  0.00     0.111 C 
BRANCH  17  18
HETATM   18  C   UNK N   1      27.623  21.052   6.236  0.00  0.00     0.005 C 
HETATM   19  C   UNK N   1      26.352  21.733   6.711  0.00  0.00     0.005 C 
ENDBRANCH  17  18
ENDBRANCH  15  17
ENDBRANCH  14  15
ENDBRANCH  13  14
ENDBRANCH  12  13
ENDBRANCH  10  12
ENDBRANCH   6  10
BRANCH   1  20
HETATM   20  C   UNK N   1      22.110  16.889   4.969  0.00  0.00    -0.021 A 
HETATM   21  C   UNK N   1      21.620  17.455   6.151  0.00  0.00     0.010 A 
HETATM   22  C   UNK N   1      21.139  16.674   7.197  0.00  0.00     0.002 A 
HETATM   23  C   UNK N   1      21.085  15.294   7.063  0.00  0.00     0.026 A 
HETATM   24  C   UNK N   1      21.551  14.683   5.899  0.00  0.00     0.056 A 
HETATM   25  C   UNK N   1      22.091  15.464   4.846  0.00  0.00     0.063 A 
HETATM   26 Cl   UNK N   1      21.388  12.936   5.774  0.00  0.00    -0.083 Cl
HETATM   27 Cl   UNK N   1      22.669  14.643   3.397  0.00  0.00    -0.082 Cl
ENDBRANCH   1  20
BRANCH   2  28
HETATM   28  C   UNK N   1      20.174  18.002   2.594  0.00  0.00     0.291 C 
HETATM   29  O   UNK N   1      19.209  17.957   3.342  0.00  0.00    -0.260 OA
BRANCH  28  30
HETATM   30  O   UNK N   1      20.060  17.382   1.392  0.00  0.00    -0.323 OA
HETATM   31  C   UNK N   1      20.083  16.017   1.219  0.00  0.00     0.213 C 
ENDBRANCH  28  30
ENDBRANCH   2  28
TORSDOF 10
ENDMDL
MODEL 8
REMARK VINA RESULT:      -6.2     11.727     15.167
REMARK  10 active torsions:
REMARK  status: ('A' for Active; 'I' for Inactive)
REMARK    1  A    between atoms: C_4  and  C_9 
REMARK    2  A    between atoms: C_10  and  C_11 
REMARK    3  A    between atoms: C_11  and  O_12 
REMARK    4  A    between atoms: C_18  and  C_21 
REMARK    5  A    between atoms: C_21  and  O_22 
REMARK    6  A    between atoms: O_22  and  C_23 
REMARK    7  A    between atoms: C_23  and  O_24 
REMARK    8  A    between atoms: O_24  and  C_25 
REMARK    9  A    between atoms: C_25  and  C_26 
REMARK   10  A    between atoms: C_26  and  C_27 
ROOT
HETATM    1  C   UNK N   1      28.189  23.384  -5.824  0.00  0.00     0.102 C 
HETATM    2  C   UNK N   1      28.977  22.218  -6.437  0.00  0.00     0.052 C 
HETATM    3  C   UNK N   1      30.019  21.703  -5.719  0.00  0.00     0.018 C 
HETATM    4  N   UNK N   1      30.339  22.239  -4.445  0.00  0.00    -0.362 N 
HETATM    5  C   UNK N   1      29.452  23.073  -3.716  0.00  0.00     0.018 C 
HETATM    6  C   UNK N   1      28.371  23.625  -4.334  0.00  0.00     0.052 C 
HETATM    7  C   UNK N   1      30.738  20.453  -6.109  0.00  0.00     0.069 C 
HETATM    8  C   UNK N   1      29.705  23.203  -2.251  0.00  0.00     0.069 C 
HETATM    9  H   UNK N   1      31.214  22.023  -4.050  0.00  0.00     0.165 HD
ENDROOT
BRANCH   6  10
HETATM   10  C   UNK N   1      27.319  24.414  -3.606  0.00  0.00     0.294 C 
HETATM   11  O   UNK N   1      26.416  23.815  -3.037  0.00  0.00    -0.259 OA
BRANCH  10  12
HETATM   12  O   UNK N   1      27.334  25.761  -3.535  0.00  0.00    -0.291 OA
BRANCH  12  13
HETATM   13  C   UNK N   1      26.165  26.490  -3.595  0.00  0.00     0.358 C 
BRANCH  13  14
HETATM   14  O   UNK N   1      26.316  27.671  -2.901  0.00  0.00    -0.295 OA
BRANCH  14  15
HETATM   15  C   UNK N   1      26.487  28.870  -3.508  0.00  0.00     0.260 C 
HETATM   16  O   UNK N   1      26.391  29.893  -2.849  0.00  0.00    -0.265 OA
BRANCH  15  17
HETATM   17  C   UNK N   1      26.776  28.964  -4.979  0.00  0.00     0.111 C 
BRANCH  17  18
HETATM   18  C   UNK N   1      28.172  29.516  -5.215  0.00  0.00     0.005 C 
HETATM   19  C   UNK N   1      29.212  28.486  -4.813  0.00  0.00     0.005 C 
ENDBRANCH  17  18
ENDBRANCH  15  17
ENDBRANCH  14  15
ENDBRANCH  13  14
ENDBRANCH  12  13
ENDBRANCH  10  12
ENDBRANCH   6  10
BRANCH   1  20
HETATM   20  C   UNK N   1      27.659  24.551  -6.683  0.00  0.00    -0.021 A 
HETATM   21  C   UNK N   1      26.271  24.636  -6.839  0.00  0.00     0.010 A 
HETATM   22  C   UNK N   1      25.669  25.708  -7.490  0.00  0.00     0.002 A 
HETATM   23  C   UNK N   1      26.444  26.759  -7.957  0.00  0.00     0.026 A 
HETATM   24  C   UNK N   1      27.831  26.726  -7.815  0.00  0.00     0.056 A 
HETATM   25  C   UNK N   1      28.462  25.615  -7.199  0.00  0.00     0.063 A 
HETATM   26 Cl   UNK N   1      28.742  28.125  -8.370  0.00  0.00    -0.083 Cl
HETATM   27 Cl   UNK N   1      30.218  25.621  -7.046  0.00  0.00    -0.082 Cl
ENDBRANCH   1  20
BRANCH   2  28
HETATM   28  C   UNK N   1      28.451  21.552  -7.687  0.00  0.00     0.291 C 
HETATM   29  O   UNK N   1      27.563  20.723  -7.564  0.00  0.00    -0.260 OA
BRANCH  28  30
HETATM   30  O   UNK N   1      28.930  21.768  -8.939  0.00  0.00    -0.323 OA
HETATM   31  C   UNK N   1      29.895  22.698  -9.251  0.00  0.00     0.213 C 
ENDBRANCH  28  30
ENDBRANCH   2  28
TORSDOF 10
ENDMDL
MODEL 9
REMARK VINA RESULT:      -6.2      2.894      4.622
REMARK  10 active torsions:
REMARK  status: ('A' for Active; 'I' for Inactive)
REMARK    1  A    between atoms: C_4  and  C_9 
REMARK    2  A    between atoms: C_10  and  C_11 
REMARK    3  A    between atoms: C_11  and  O_12 
REMARK    4  A    between atoms: C_18  and  C_21 
REMARK    5  A    between atoms: C_21  and  O_22 
REMARK    6  A    between atoms: O_22  and  C_23 
REMARK    7  A    between atoms: C_23  and  O_24 
REMARK    8  A    between atoms: O_24  and  C_25 
REMARK    9  A    between atoms: C_25  and  C_26 
REMARK   10  A    between atoms: C_26  and  C_27 
ROOT
HETATM    1  C   UNK N   1      30.901  16.924   6.375  0.00  0.00     0.102 C 
HETATM    2  C   UNK N   1      29.898  17.381   7.442  0.00  0.00     0.052 C 
HETATM    3  C   UNK N   1      30.391  17.787   8.650  0.00  0.00     0.018 C 
HETATM    4  N   UNK N   1      31.790  17.784   8.886  0.00  0.00    -0.362 N 
HETATM    5  C   UNK N   1      32.745  17.688   7.841  0.00  0.00     0.018 C 
HETATM    6  C   UNK N   1      32.356  17.308   6.593  0.00  0.00     0.052 C 
HETATM    7  C   UNK N   1      29.546  18.434   9.699  0.00  0.00     0.069 C 
HETATM    8  C   UNK N   1      34.135  18.131   8.160  0.00  0.00     0.069 C 
HETATM    9  H   UNK N   1      32.111  17.852   9.814  0.00  0.00     0.165 HD
ENDROOT
BRANCH   6  10
HETATM   10  C   UNK N   1      33.280  17.302   5.407  0.00  0.00     0.294 C 
HETATM   11  O   UNK N   1      32.997  17.986   4.432  0.00  0.00    -0.259 OA
BRANCH  10  12
HETATM   12  O   UNK N   1      34.423  16.587   5.374  0.00  0.00    -0.291 OA
BRANCH  12  13
HETATM   13  C   UNK N   1      34.401  15.215   5.236  0.00  0.00     0.358 C 
BRANCH  13  14
HETATM   14  O   UNK N   1      34.629  14.876   3.919  0.00  0.00    -0.295 OA
BRANCH  14  15
HETATM   15  C   UNK N   1      33.664  14.387   3.103  0.00  0.00     0.260 C 
HETATM   16  O   UNK N   1      32.881  15.160   2.575  0.00  0.00    -0.265 OA
BRANCH  15  17
HETATM   17  C   UNK N   1      33.529  12.913   2.851  0.00  0.00     0.111 C 
BRANCH  17  18
HETATM   18  C   UNK N   1      32.664  12.658   1.628  0.00  0.00     0.005 C 
HETATM   19  C   UNK N   1      31.983  11.306   1.746  0.00  0.00     0.005 C 
ENDBRANCH  17  18
ENDBRANCH  15  17
ENDBRANCH  14  15
ENDBRANCH  13  14
ENDBRANCH  12  13
ENDBRANCH  10  12
ENDBRANCH   6  10
BRANCH   1  20
HETATM   20  C   UNK N   1      30.602  15.744   5.427  0.00  0.00    -0.021 A 
HETATM   21  C   UNK N   1      31.005  14.474   5.859  0.00  0.00     0.010 A 
HETATM   22  C   UNK N   1      30.685  13.322   5.149  0.00  0.00     0.002 A 
HETATM   23  C   UNK N   1      29.901  13.405   4.008  0.00  0.00     0.026 A 
HETATM   24  C   UNK N   1      29.466  14.646   3.544  0.00  0.00     0.056 A 
HETATM   25  C   UNK N   1      29.827  15.834   4.230  0.00  0.00     0.063 A 
HETATM   26 Cl   UNK N   1      28.419  14.668   2.130  0.00  0.00    -0.083 Cl
HETATM   27 Cl   UNK N   1      29.254  17.378   3.601  0.00  0.00    -0.082 Cl
ENDBRANCH   1  20
BRANCH   2  28
HETATM   28  C   UNK N   1      28.449  17.571   7.057  0.00  0.00     0.291 C 
HETATM   29  O   UNK N   1      28.127  18.633   6.548  0.00  0.00    -0.260 OA
BRANCH  28  30
HETATM   30  O   UNK N   1      27.464  16.665   7.283  0.00  0.00    -0.323 OA
HETATM   31  C   UNK N   1      26.718  16.067   6.295  0.00  0.00     0.213 C 
ENDBRANCH  28  30
ENDBRANCH   2  28
TORSDOF 10
ENDMDL
