MODEL 1
REMARK VINA RESULT:      -6.2      0.000      0.000
REMARK  3 active torsions:
REMARK  status: ('A' for Active; 'I' for Inactive)
REMARK    1  A    between atoms: S_1  and  C_14 
REMARK    2  A    between atoms: C_6  and  C_8 
REMARK    3  A    between atoms: C_8  and  C_9 
ROOT
HETATM    1  O   UNK N   1      34.877  18.929   8.364  0.00  0.00    -0.285 OA
HETATM    2  C   UNK N   1      34.390  17.810   8.271  0.00  0.00     0.210 C 
ENDROOT
BRANCH   2   3
HETATM    3  C   UNK N   1      34.923  16.772   9.223  0.00  0.00     0.110 A 
HETATM    4  N   UNK N   1      35.064  17.088  10.529  0.00  0.00    -0.303 N 
HETATM    5  C   UNK N   1      35.537  15.964  11.119  0.00  0.00     0.325 A 
HETATM    6  H   UNK N   1      34.865  17.950  10.960  0.00  0.00     0.171 HD
HETATM    7  O   UNK N   1      35.778  15.881  12.308  0.00  0.00    -0.247 OA
HETATM    8  N   UNK N   1      35.710  14.941  10.252  0.00  0.00    -0.310 N 
HETATM    9  C   UNK N   1      35.329  15.435   9.062  0.00  0.00     0.040 A 
HETATM   10  H   UNK N   1      36.042  14.035  10.450  0.00  0.00     0.170 HD
HETATM   11  C   UNK N   1      35.382  14.586   7.845  0.00  0.00     0.071 C 
ENDBRANCH   2   3
BRANCH   2  12
HETATM   12  C   UNK N   1      33.301  17.633   7.258  0.00  0.00     0.016 A 
HETATM   13  C   UNK N   1      33.538  17.627   5.883  0.00  0.00     0.017 A 
HETATM   14  C   UNK N   1      32.505  17.408   4.969  0.00  0.00     0.019 A 
HETATM   15  C   UNK N   1      31.206  17.184   5.423  0.00  0.00    -0.000 A 
HETATM   16  C   UNK N   1      30.945  17.191   6.796  0.00  0.00     0.019 A 
HETATM   17  C   UNK N   1      31.983  17.424   7.705  0.00  0.00     0.017 A 
BRANCH  15  18
HETATM   18  S   UNK N   1      29.913  16.799   4.240  0.00  0.00    -0.134 SA
HETATM   19  C   UNK N   1      28.797  18.121   4.790  0.00  0.00     0.095 C 
ENDBRANCH  15  18
ENDBRANCH   2  12
TORSDOF 3
ENDMDL
MODEL 2
REMARK VINA RESULT:      -6.0      1.106      1.689
REMARK  3 active torsions:
REMARK  status: ('A' for Active; 'I' for Inactive)
REMARK    1  A    between atoms: S_1  and  C_14 
REMARK    2  A    between atoms: C_6  and  C_8 
REMARK    3  A    between atoms: C_8  and  C_9 
ROOT
HETATM    1  O   UNK N   1      34.437  18.850   8.232  0.00  0.00    -0.285 OA
HETATM    2  C   UNK N   1      33.880  17.780   8.441  0.00  0.00     0.210 C 
ENDROOT
BRANCH   2   3
HETATM    3  C   UNK N   1      34.664  16.765   9.230  0.00  0.00     0.110 A 
HETATM    4  N   UNK N   1      34.907  16.995  10.539  0.00  0.00    -0.303 N 
HETATM    5  C   UNK N   1      35.602  15.914  10.968  0.00  0.00     0.325 A 
HETATM    6  H   UNK N   1      34.635  17.779  11.069  0.00  0.00     0.171 HD
HETATM    7  O   UNK N   1      35.987  15.776  12.113  0.00  0.00    -0.247 OA
HETATM    8  N   UNK N   1      35.821  15.003   9.994  0.00  0.00    -0.310 N 
HETATM    9  C   UNK N   1      35.238  15.524   8.901  0.00  0.00     0.040 A 
HETATM   10  H   UNK N   1      36.302  14.146  10.070  0.00  0.00     0.170 HD
HETATM   11  C   UNK N   1      35.274  14.793   7.610  0.00  0.00     0.071 C 
ENDBRANCH   2   3
BRANCH   2  12
HETATM   12  C   UNK N   1      32.481  17.639   7.924  0.00  0.00     0.016 A 
HETATM   13  C   UNK N   1      31.356  17.976   8.678  0.00  0.00     0.017 A 
HETATM   14  C   UNK N   1      30.069  17.881   8.144  0.00  0.00     0.019 A 
HETATM   15  C   UNK N   1      29.887  17.446   6.832  0.00  0.00    -0.000 A 
HETATM   16  C   UNK N   1      31.000  17.098   6.060  0.00  0.00     0.019 A 
HETATM   17  C   UNK N   1      32.285  17.185   6.607  0.00  0.00     0.017 A 
BRANCH  15  18
HETATM   18  S   UNK N   1      28.236  17.431   6.130  0.00  0.00    -0.134 SA
HETATM   19  C   UNK N   1      27.875  19.162   6.539  0.00  0.00     0.095 C 
ENDBRANCH  15  18
ENDBRANCH   2  12
TORSDOF 3
ENDMDL
MODEL 3
REMARK VINA RESULT:      -5.9      2.400      3.676
REMARK  3 active torsions:
REMARK  status: ('A' for Active; 'I' for Inactive)
REMARK    1  A    between atoms: S_1  and  C_14 
REMARK    2  A    between atoms: C_6  and  C_8 
REMARK    3  A    between atoms: C_8  and  C_9 
ROOT
HETATM    1  O   UNK N   1      31.676  15.211   6.862  0.00  0.00    -0.285 OA
HETATM    2  C   UNK N   1      31.630  16.378   7.229  0.00  0.00     0.210 C 
ENDROOT
BRANCH   2   3
HETATM    3  C   UNK N   1      32.843  16.893   7.956  0.00  0.00     0.110 A 
HETATM    4  N   UNK N   1      33.383  18.074   7.582  0.00  0.00    -0.303 N 
HETATM    5  C   UNK N   1      34.428  18.271   8.420  0.00  0.00     0.325 A 
HETATM    6  H   UNK N   1      33.080  18.666   6.855  0.00  0.00     0.171 HD
HETATM    7  O   UNK N   1      35.148  19.251   8.377  0.00  0.00    -0.247 OA
HETATM    8  N   UNK N   1      34.588  17.270   9.314  0.00  0.00    -0.310 N 
HETATM    9  C   UNK N   1      33.602  16.401   9.034  0.00  0.00     0.040 A 
HETATM   10  H   UNK N   1      35.276  17.194  10.015  0.00  0.00     0.170 HD
HETATM   11  C   UNK N   1      33.454  15.152   9.822  0.00  0.00     0.071 C 
ENDBRANCH   2   3
BRANCH   2  12
HETATM   12  C   UNK N   1      30.397  17.147   6.868  0.00  0.00     0.016 A 
HETATM   13  C   UNK N   1      29.567  17.742   7.819  0.00  0.00     0.017 A 
HETATM   14  C   UNK N   1      28.454  18.496   7.443  0.00  0.00     0.019 A 
HETATM   15  C   UNK N   1      28.153  18.672   6.093  0.00  0.00    -0.000 A 
HETATM   16  C   UNK N   1      28.967  18.080   5.122  0.00  0.00     0.019 A 
HETATM   17  C   UNK N   1      30.074  17.316   5.508  0.00  0.00     0.017 A 
BRANCH  15  18
HETATM   18  S   UNK N   1      26.781  19.730   5.626  0.00  0.00    -0.134 SA
HETATM   19  C   UNK N   1      27.560  21.263   6.208  0.00  0.00     0.095 C 
ENDBRANCH  15  18
ENDBRANCH   2  12
TORSDOF 3
ENDMDL
MODEL 4
REMARK VINA RESULT:      -5.8     17.401     19.116
REMARK  3 active torsions:
REMARK  status: ('A' for Active; 'I' for Inactive)
REMARK    1  A    between atoms: S_1  and  C_14 
REMARK    2  A    between atoms: C_6  and  C_8 
REMARK    3  A    between atoms: C_8  and  C_9 
ROOT
HETATM    1  O   UNK N   1      25.756  26.400  -8.832  0.00  0.00    -0.285 OA
HETATM    2  C   UNK N   1      25.884  25.980  -7.689  0.00  0.00     0.210 C 
ENDROOT
BRANCH   2   3
HETATM    3  C   UNK N   1      25.800  24.487  -7.516  0.00  0.00     0.110 A 
HETATM    4  N   UNK N   1      25.118  23.756  -8.425  0.00  0.00    -0.303 N 
HETATM    5  C   UNK N   1      25.239  22.472  -8.014  0.00  0.00     0.325 A 
HETATM    6  H   UNK N   1      24.635  24.088  -9.217  0.00  0.00     0.171 HD
HETATM    7  O   UNK N   1      24.749  21.529  -8.606  0.00  0.00    -0.247 OA
HETATM    8  N   UNK N   1      25.965  22.342  -6.882  0.00  0.00    -0.310 N 
HETATM    9  C   UNK N   1      26.323  23.597  -6.560  0.00  0.00     0.040 A 
HETATM   10  H   UNK N   1      26.184  21.511  -6.400  0.00  0.00     0.170 HD
HETATM   11  C   UNK N   1      27.143  23.857  -5.351  0.00  0.00     0.071 C 
ENDBRANCH   2   3
BRANCH   2  12
HETATM   12  C   UNK N   1      26.150  27.000  -6.625  0.00  0.00     0.016 A 
HETATM   13  C   UNK N   1      27.231  27.880  -6.670  0.00  0.00     0.017 A 
HETATM   14  C   UNK N   1      27.418  28.853  -5.686  0.00  0.00     0.019 A 
HETATM   15  C   UNK N   1      26.512  28.964  -4.631  0.00  0.00    -0.000 A 
HETATM   16  C   UNK N   1      25.424  28.088  -4.563  0.00  0.00     0.019 A 
HETATM   17  C   UNK N   1      25.251  27.109  -5.547  0.00  0.00     0.017 A 
BRANCH  15  18
HETATM   18  S   UNK N   1      26.709  30.286  -3.435  0.00  0.00    -0.134 SA
HETATM   19  C   UNK N   1      27.879  29.378  -2.386  0.00  0.00     0.095 C 
ENDBRANCH  15  18
ENDBRANCH   2  12
TORSDOF 3
ENDMDL
MODEL 5
REMARK VINA RESULT:      -5.8     10.900     12.296
REMARK  3 active torsions:
REMARK  status: ('A' for Active; 'I' for Inactive)
REMARK    1  A    between atoms: S_1  and  C_14 
REMARK    2  A    between atoms: C_6  and  C_8 
REMARK    3  A    between atoms: C_8  and  C_9 
ROOT
HETATM    1  O   UNK N   1      19.939  12.800  10.505  0.00  0.00    -0.285 OA
HETATM    2  C   UNK N   1      21.011  13.209  10.075  0.00  0.00     0.210 C 
ENDROOT
BRANCH   2   3
HETATM    3  C   UNK N   1      22.239  12.762  10.822  0.00  0.00     0.110 A 
HETATM    4  N   UNK N   1      22.128  12.409  12.122  0.00  0.00    -0.303 N 
HETATM    5  C   UNK N   1      23.375  12.043  12.501  0.00  0.00     0.325 A 
HETATM    6  H   UNK N   1      21.313  12.415  12.675  0.00  0.00     0.171 HD
HETATM    7  O   UNK N   1      23.650  11.655  13.621  0.00  0.00    -0.247 OA
HETATM    8  N   UNK N   1      24.285  12.148  11.507  0.00  0.00    -0.310 N 
HETATM    9  C   UNK N   1      23.586  12.597  10.450  0.00  0.00     0.040 A 
HETATM   10  H   UNK N   1      25.248  11.941  11.548  0.00  0.00     0.170 HD
HETATM   11  C   UNK N   1      24.261  12.839   9.151  0.00  0.00     0.071 C 
ENDBRANCH   2   3
BRANCH   2  12
HETATM   12  C   UNK N   1      20.960  14.058   8.843  0.00  0.00     0.016 A 
HETATM   13  C   UNK N   1      20.997  13.527   7.553  0.00  0.00     0.017 A 
HETATM   14  C   UNK N   1      20.896  14.347   6.427  0.00  0.00     0.019 A 
HETATM   15  C   UNK N   1      20.750  15.726   6.577  0.00  0.00    -0.000 A 
HETATM   16  C   UNK N   1      20.717  16.280   7.860  0.00  0.00     0.019 A 
HETATM   17  C   UNK N   1      20.831  15.453   8.983  0.00  0.00     0.017 A 
BRANCH  15  18
HETATM   18  S   UNK N   1      20.515  16.750   5.123  0.00  0.00    -0.134 SA
HETATM   19  C   UNK N   1      21.572  18.104   5.711  0.00  0.00     0.095 C 
ENDBRANCH  15  18
ENDBRANCH   2  12
TORSDOF 3
ENDMDL
MODEL 6
REMARK VINA RESULT:      -5.7      2.118      2.892
REMARK  3 active torsions:
REMARK  status: ('A' for Active; 'I' for Inactive)
REMARK    1  A    between atoms: S_1  and  C_14 
REMARK    2  A    between atoms: C_6  and  C_8 
REMARK    3  A    between atoms: C_8  and  C_9 
ROOT
HETATM    1  O   UNK N   1      32.284  14.475   8.292  0.00  0.00    -0.285 OA
HETATM    2  C   UNK N   1      32.296  15.669   8.562  0.00  0.00     0.210 C 
ENDROOT
BRANCH   2   3
HETATM    3  C   UNK N   1      33.496  16.166   9.324  0.00  0.00     0.110 A 
HETATM    4  N   UNK N   1      33.918  15.480  10.408  0.00  0.00    -0.303 N 
HETATM    5  C   UNK N   1      35.006  16.152  10.854  0.00  0.00     0.325 A 
HETATM    6  H   UNK N   1      33.520  14.665  10.792  0.00  0.00     0.171 HD
HETATM    7  O   UNK N   1      35.655  15.809  11.825  0.00  0.00    -0.247 OA
HETATM    8  N   UNK N   1      35.302  17.240  10.110  0.00  0.00    -0.310 N 
HETATM    9  C   UNK N   1      34.363  17.260   9.147  0.00  0.00     0.040 A 
HETATM   10  H   UNK N   1      36.041  17.877  10.243  0.00  0.00     0.170 HD
HETATM   11  C   UNK N   1      34.363  18.332   8.121  0.00  0.00     0.071 C 
ENDBRANCH   2   3
BRANCH   2  12
HETATM   12  C   UNK N   1      31.142  16.482   8.063  0.00  0.00     0.016 A 
HETATM   13  C   UNK N   1      30.500  17.447   8.840  0.00  0.00     0.017 A 
HETATM   14  C   UNK N   1      29.460  18.222   8.323  0.00  0.00     0.019 A 
HETATM   15  C   UNK N   1      29.044  18.044   7.003  0.00  0.00    -0.000 A 
HETATM   16  C   UNK N   1      29.670  17.079   6.208  0.00  0.00     0.019 A 
HETATM   17  C   UNK N   1      30.703  16.298   6.738  0.00  0.00     0.017 A 
BRANCH  15  18
HETATM   18  S   UNK N   1      27.780  19.121   6.325  0.00  0.00    -0.134 SA
HETATM   19  C   UNK N   1      28.058  18.623   4.601  0.00  0.00     0.095 C 
ENDBRANCH  15  18
ENDBRANCH   2  12
TORSDOF 3
ENDMDL
MODEL 7
REMARK VINA RESULT:      -5.6     12.650     14.071
REMARK  3 active torsions:
REMARK  status: ('A' for Active; 'I' for Inactive)
REMARK    1  A    between atoms: S_1  and  C_14 
REMARK    2  A    between atoms: C_6  and  C_8 
REMARK    3  A    between atoms: C_8  and  C_9 
ROOT
HETATM    1  O   UNK N   1      30.472  22.944  -1.387  0.00  0.00    -0.285 OA
HETATM    2  C   UNK N   1      30.326  22.885  -2.601  0.00  0.00     0.210 C 
ENDROOT
BRANCH   2   3
HETATM    3  C   UNK N   1      31.208  21.904  -3.329  0.00  0.00     0.110 A 
HETATM    4  N   UNK N   1      32.381  21.533  -2.770  0.00  0.00    -0.303 N 
HETATM    5  C   UNK N   1      32.924  20.647  -3.637  0.00  0.00     0.325 A 
HETATM    6  H   UNK N   1      32.759  21.841  -1.914  0.00  0.00     0.171 HD
HETATM    7  O   UNK N   1      33.993  20.095  -3.450  0.00  0.00    -0.247 OA
HETATM    8  N   UNK N   1      32.158  20.432  -4.729  0.00  0.00    -0.310 N 
HETATM    9  C   UNK N   1      31.080  21.214  -4.548  0.00  0.00     0.040 A 
HETATM   10  H   UNK N   1      32.348  19.836  -5.490  0.00  0.00     0.170 HD
HETATM   11  C   UNK N   1      29.997  21.247  -5.562  0.00  0.00     0.071 C 
ENDBRANCH   2   3
BRANCH   2  12
HETATM   12  C   UNK N   1      29.264  23.758  -3.194  0.00  0.00     0.016 A 
HETATM   13  C   UNK N   1      27.915  23.652  -2.851  0.00  0.00     0.017 A 
HETATM   14  C   UNK N   1      26.960  24.519  -3.385  0.00  0.00     0.019 A 
HETATM   15  C   UNK N   1      27.344  25.519  -4.279  0.00  0.00    -0.000 A 
HETATM   16  C   UNK N   1      28.689  25.639  -4.641  0.00  0.00     0.019 A 
HETATM   17  C   UNK N   1      29.639  24.759  -4.110  0.00  0.00     0.017 A 
BRANCH  15  18
HETATM   18  S   UNK N   1      26.120  26.688  -4.872  0.00  0.00    -0.134 SA
HETATM   19  C   UNK N   1      25.942  27.550  -3.285  0.00  0.00     0.095 C 
ENDBRANCH  15  18
ENDBRANCH   2  12
TORSDOF 3
ENDMDL
MODEL 8
REMARK VINA RESULT:      -5.6      6.995     10.487
REMARK  3 active torsions:
REMARK  status: ('A' for Active; 'I' for Inactive)
REMARK    1  A    between atoms: S_1  and  C_14 
REMARK    2  A    between atoms: C_6  and  C_8 
REMARK    3  A    between atoms: C_8  and  C_9 
ROOT
HETATM    1  O   UNK N   1      37.477  14.796  15.483  0.00  0.00    -0.285 OA
HETATM    2  C   UNK N   1      36.580  14.034  15.142  0.00  0.00     0.210 C 
ENDROOT
BRANCH   2   3
HETATM    3  C   UNK N   1      36.091  14.176  13.725  0.00  0.00     0.110 A 
HETATM    4  N   UNK N   1      36.430  15.277  13.019  0.00  0.00    -0.303 N 
HETATM    5  C   UNK N   1      35.867  15.106  11.799  0.00  0.00     0.325 A 
HETATM    6  H   UNK N   1      36.971  16.041  13.326  0.00  0.00     0.171 HD
HETATM    7  O   UNK N   1      35.973  15.910  10.892  0.00  0.00    -0.247 OA
HETATM    8  N   UNK N   1      35.179  13.947  11.688  0.00  0.00    -0.310 N 
HETATM    9  C   UNK N   1      35.312  13.356  12.888  0.00  0.00     0.040 A 
HETATM   10  H   UNK N   1      34.690  13.612  10.902  0.00  0.00     0.170 HD
HETATM   11  C   UNK N   1      34.679  12.040  13.150  0.00  0.00     0.071 C 
ENDBRANCH   2   3
BRANCH   2  12
HETATM   12  C   UNK N   1      36.122  13.037  16.161  0.00  0.00     0.016 A 
HETATM   13  C   UNK N   1      36.384  11.671  16.058  0.00  0.00     0.017 A 
HETATM   14  C   UNK N   1      35.985  10.778  17.055  0.00  0.00     0.019 A 
HETATM   15  C   UNK N   1      35.315  11.244  18.185  0.00  0.00    -0.000 A 
HETATM   16  C   UNK N   1      35.036  12.609  18.306  0.00  0.00     0.019 A 
HETATM   17  C   UNK N   1      35.428  13.496  17.297  0.00  0.00     0.017 A 
BRANCH  15  18
HETATM   18  S   UNK N   1      34.905  10.099  19.503  0.00  0.00    -0.134 SA
HETATM   19  C   UNK N   1      36.569  10.093  20.230  0.00  0.00     0.095 C 
ENDBRANCH  15  18
ENDBRANCH   2  12
TORSDOF 3
ENDMDL
MODEL 9
REMARK VINA RESULT:      -5.6      1.596      1.881
REMARK  3 active torsions:
REMARK  status: ('A' for Active; 'I' for Inactive)
REMARK    1  A    between atoms: S_1  and  C_14 
REMARK    2  A    between atoms: C_6  and  C_8 
REMARK    3  A    between atoms: C_8  and  C_9 
ROOT
HETATM    1  O   UNK N   1      34.276  17.900   6.190  0.00  0.00    -0.285 OA
HETATM    2  C   UNK N   1      33.391  17.334   6.819  0.00  0.00     0.210 C 
ENDROOT
BRANCH   2   3
HETATM    3  C   UNK N   1      33.781  16.787   8.167  0.00  0.00     0.110 A 
HETATM    4  N   UNK N   1      34.578  17.524   8.971  0.00  0.00    -0.303 N 
HETATM    5  C   UNK N   1      34.730  16.785  10.096  0.00  0.00     0.325 A 
HETATM    6  H   UNK N   1      34.965  18.409   8.781  0.00  0.00     0.171 HD
HETATM    7  O   UNK N   1      35.389  17.148  11.053  0.00  0.00    -0.247 OA
HETATM    8  N   UNK N   1      34.071  15.606  10.052  0.00  0.00    -0.310 N 
HETATM    9  C   UNK N   1      33.473  15.595   8.848  0.00  0.00     0.040 A 
HETATM   10  H   UNK N   1      34.038  14.909  10.747  0.00  0.00     0.170 HD
HETATM   11  C   UNK N   1      32.643  14.437   8.433  0.00  0.00     0.071 C 
ENDBRANCH   2   3
BRANCH   2  12
HETATM   12  C   UNK N   1      32.034  17.302   6.188  0.00  0.00     0.016 A 
HETATM   13  C   UNK N   1      31.839  17.202   4.810  0.00  0.00     0.017 A 
HETATM   14  C   UNK N   1      30.558  17.122   4.261  0.00  0.00     0.019 A 
HETATM   15  C   UNK N   1      29.438  17.136   5.093  0.00  0.00    -0.000 A 
HETATM   16  C   UNK N   1      29.610  17.241   6.477  0.00  0.00     0.019 A 
HETATM   17  C   UNK N   1      30.897  17.333   7.018  0.00  0.00     0.017 A 
BRANCH  15  18
HETATM   18  S   UNK N   1      27.807  16.926   4.378  0.00  0.00    -0.134 SA
HETATM   19  C   UNK N   1      27.542  18.694   4.066  0.00  0.00     0.095 C 
ENDBRANCH  15  18
ENDBRANCH   2  12
TORSDOF 3
ENDMDL
