MODEL 1
REMARK VINA RESULT:      -4.9      0.000      0.000
REMARK  16 active torsions:
REMARK  status: ('A' for Active; 'I' for Inactive)
REMARK    1  A    between atoms: C_2  and  C_3 
REMARK    2  A    between atoms: C_3  and  C_4 
REMARK    3  A    between atoms: C_4  and  C_5 
REMARK    4  A    between atoms: C_5  and  C_6 
REMARK    5  A    between atoms: C_6  and  C_7 
REMARK    6  A    between atoms: C_7  and  C_8 
REMARK    7  A    between atoms: C_8  and  C_9 
REMARK    8  A    between atoms: C_10  and  C_11 
REMARK    9  A    between atoms: C_11  and  C_12 
REMARK   10  A    between atoms: C_12  and  C_13 
REMARK   11  A    between atoms: C_13  and  C_14 
REMARK   12  A    between atoms: C_14  and  C_15 
REMARK   13  A    between atoms: C_15  and  C_16 
REMARK   14  A    between atoms: C_16  and  C_17 
REMARK   15  A    between atoms: C_17  and  C_18 
REMARK   16  A    between atoms: C_18  and  O_19 
ROOT
HETATM    1  C   UNK N   1      28.593  25.328  -3.995  0.00  0.00     0.027 C 
ENDROOT
BRANCH   1   2
HETATM    2  C   UNK N   1      29.796  24.526  -3.643  0.00  0.00    -0.031 C 
HETATM    3  C   UNK N   1      29.667  23.527  -2.785  0.00  0.00    -0.031 C 
BRANCH   3   4
HETATM    4  C   UNK N   1      30.825  22.683  -2.387  0.00  0.00     0.027 C 
BRANCH   4   5
HETATM    5  C   UNK N   1      30.828  21.515  -3.342  0.00  0.00     0.004 C 
BRANCH   5   6
HETATM    6  C   UNK N   1      31.998  21.533  -4.295  0.00  0.00     0.000 C 
BRANCH   6   7
HETATM    7  C   UNK N   1      31.432  21.140  -5.640  0.00  0.00     0.000 C 
BRANCH   7   8
HETATM    8  C   UNK N   1      29.978  21.520  -5.784  0.00  0.00     0.000 C 
BRANCH   8   9
HETATM    9  C   UNK N   1      29.440  20.765  -6.981  0.00  0.00    -0.000 C 
BRANCH   9  10
HETATM   10  C   UNK N   1      30.246  19.511  -7.226  0.00  0.00    -0.005 C 
HETATM   11  C   UNK N   1      29.356  18.482  -7.892  0.00  0.00     0.005 C 
ENDBRANCH   9  10
ENDBRANCH   8   9
ENDBRANCH   7   8
ENDBRANCH   6   7
ENDBRANCH   5   6
ENDBRANCH   4   5
ENDBRANCH   3   4
ENDBRANCH   1   2
BRANCH   1  12
HETATM   12  C   UNK N   1      27.366  24.484  -3.769  0.00  0.00     0.004 C 
BRANCH  12  13
HETATM   13  C   UNK N   1      26.721  24.113  -5.086  0.00  0.00     0.000 C 
BRANCH  13  14
HETATM   14  C   UNK N   1      25.427  24.883  -5.151  0.00  0.00     0.000 C 
BRANCH  14  15
HETATM   15  C   UNK N   1      25.378  25.838  -6.319  0.00  0.00     0.001 C 
BRANCH  15  16
HETATM   16  C   UNK N   1      25.019  27.181  -5.727  0.00  0.00     0.010 C 
BRANCH  16  17
HETATM   17  C   UNK N   1      26.227  27.903  -5.162  0.00  0.00     0.110 C 
BRANCH  17  18
HETATM   18  C   UNK N   1      25.943  28.442  -3.788  0.00  0.00     0.139 C 
HETATM   19  O   UNK N   1      25.738  27.687  -2.846  0.00  0.00    -0.650 OA
BRANCH  18  20
HETATM   20  O   UNK N   1      25.914  29.770  -3.589  0.00  0.00    -0.776 OA
HETATM   21  H   UNK N   1      25.352  30.310  -4.109  0.00  0.00     0.167 HD
ENDBRANCH  18  20
ENDBRANCH  17  18
ENDBRANCH  16  17
ENDBRANCH  15  16
ENDBRANCH  14  15
ENDBRANCH  13  14
ENDBRANCH  12  13
ENDBRANCH   1  12
TORSDOF 16
ENDMDL
MODEL 2
REMARK VINA RESULT:      -4.9      4.081      6.444
REMARK  16 active torsions:
REMARK  status: ('A' for Active; 'I' for Inactive)
REMARK    1  A    between atoms: C_2  and  C_3 
REMARK    2  A    between atoms: C_3  and  C_4 
REMARK    3  A    between atoms: C_4  and  C_5 
REMARK    4  A    between atoms: C_5  and  C_6 
REMARK    5  A    between atoms: C_6  and  C_7 
REMARK    6  A    between atoms: C_7  and  C_8 
REMARK    7  A    between atoms: C_8  and  C_9 
REMARK    8  A    between atoms: C_10  and  C_11 
REMARK    9  A    between atoms: C_11  and  C_12 
REMARK   10  A    between atoms: C_12  and  C_13 
REMARK   11  A    between atoms: C_13  and  C_14 
REMARK   12  A    between atoms: C_14  and  C_15 
REMARK   13  A    between atoms: C_15  and  C_16 
REMARK   14  A    between atoms: C_16  and  C_17 
REMARK   15  A    between atoms: C_17  and  C_18 
REMARK   16  A    between atoms: C_18  and  O_19 
ROOT
HETATM    1  C   UNK N   1      28.373  28.947  -6.920  0.00  0.00     0.027 C 
ENDROOT
BRANCH   1   2
HETATM    2  C   UNK N   1      27.254  28.884  -5.942  0.00  0.00    -0.031 C 
HETATM    3  C   UNK N   1      27.411  29.452  -4.757  0.00  0.00    -0.031 C 
BRANCH   3   4
HETATM    4  C   UNK N   1      26.336  29.428  -3.729  0.00  0.00     0.027 C 
BRANCH   4   5
HETATM    5  C   UNK N   1      25.628  28.109  -3.909  0.00  0.00     0.004 C 
BRANCH   5   6
HETATM    6  C   UNK N   1      26.231  26.997  -3.084  0.00  0.00     0.000 C 
BRANCH   6   7
HETATM    7  C   UNK N   1      26.235  25.782  -3.984  0.00  0.00     0.000 C 
BRANCH   7   8
HETATM    8  C   UNK N   1      27.527  25.006  -3.894  0.00  0.00     0.000 C 
BRANCH   8   9
HETATM    9  C   UNK N   1      28.649  25.978  -4.194  0.00  0.00    -0.000 C 
BRANCH   9  10
HETATM   10  C   UNK N   1      29.923  25.236  -4.522  0.00  0.00    -0.005 C 
HETATM   11  C   UNK N   1      30.369  25.625  -5.916  0.00  0.00     0.005 C 
ENDBRANCH   9  10
ENDBRANCH   8   9
ENDBRANCH   7   8
ENDBRANCH   6   7
ENDBRANCH   5   6
ENDBRANCH   4   5
ENDBRANCH   3   4
ENDBRANCH   1   2
BRANCH   1  12
HETATM   12  C   UNK N   1      28.221  27.814  -7.902  0.00  0.00     0.004 C 
BRANCH  12  13
HETATM   13  C   UNK N   1      27.067  26.918  -7.511  0.00  0.00     0.000 C 
BRANCH  13  14
HETATM   14  C   UNK N   1      27.153  25.707  -8.406  0.00  0.00     0.000 C 
BRANCH  14  15
HETATM   15  C   UNK N   1      27.256  24.417  -7.630  0.00  0.00     0.001 C 
BRANCH  15  16
HETATM   16  C   UNK N   1      25.854  24.124  -7.148  0.00  0.00     0.010 C 
BRANCH  16  17
HETATM   17  C   UNK N   1      25.692  22.690  -6.683  0.00  0.00     0.110 C 
BRANCH  17  18
HETATM   18  C   UNK N   1      25.072  21.838  -7.755  0.00  0.00     0.139 C 
HETATM   19  O   UNK N   1      25.735  21.004  -8.359  0.00  0.00    -0.650 OA
BRANCH  18  20
HETATM   20  O   UNK N   1      23.772  21.994  -8.057  0.00  0.00    -0.776 OA
HETATM   21  H   UNK N   1      23.466  21.806  -8.922  0.00  0.00     0.167 HD
ENDBRANCH  18  20
ENDBRANCH  17  18
ENDBRANCH  16  17
ENDBRANCH  15  16
ENDBRANCH  14  15
ENDBRANCH  13  14
ENDBRANCH  12  13
ENDBRANCH   1  12
TORSDOF 16
ENDMDL
MODEL 3
REMARK VINA RESULT:      -4.8      3.673      7.620
REMARK  16 active torsions:
REMARK  status: ('A' for Active; 'I' for Inactive)
REMARK    1  A    between atoms: C_2  and  C_3 
REMARK    2  A    between atoms: C_3  and  C_4 
REMARK    3  A    between atoms: C_4  and  C_5 
REMARK    4  A    between atoms: C_5  and  C_6 
REMARK    5  A    between atoms: C_6  and  C_7 
REMARK    6  A    between atoms: C_7  and  C_8 
REMARK    7  A    between atoms: C_8  and  C_9 
REMARK    8  A    between atoms: C_10  and  C_11 
REMARK    9  A    between atoms: C_11  and  C_12 
REMARK   10  A    between atoms: C_12  and  C_13 
REMARK   11  A    between atoms: C_13  and  C_14 
REMARK   12  A    between atoms: C_14  and  C_15 
REMARK   13  A    between atoms: C_15  and  C_16 
REMARK   14  A    between atoms: C_16  and  C_17 
REMARK   15  A    between atoms: C_17  and  C_18 
REMARK   16  A    between atoms: C_18  and  O_19 
ROOT
HETATM    1  C   UNK N   1      26.109  23.842  -5.633  0.00  0.00     0.027 C 
ENDROOT
BRANCH   1   2
HETATM    2  C   UNK N   1      25.815  25.188  -5.070  0.00  0.00    -0.031 C 
HETATM    3  C   UNK N   1      25.167  26.065  -5.822  0.00  0.00    -0.031 C 
BRANCH   3   4
HETATM    4  C   UNK N   1      24.839  27.428  -5.325  0.00  0.00     0.027 C 
BRANCH   4   5
HETATM    5  C   UNK N   1      25.518  27.549  -3.984  0.00  0.00     0.004 C 
BRANCH   5   6
HETATM    6  C   UNK N   1      26.397  28.772  -3.875  0.00  0.00     0.000 C 
BRANCH   6   7
HETATM    7  C   UNK N   1      27.793  28.247  -3.631  0.00  0.00     0.000 C 
BRANCH   7   8
HETATM    8  C   UNK N   1      28.564  28.047  -4.913  0.00  0.00     0.000 C 
BRANCH   8   9
HETATM    9  C   UNK N   1      28.136  29.146  -5.863  0.00  0.00    -0.000 C 
BRANCH   9  10
HETATM   10  C   UNK N   1      28.224  28.675  -7.296  0.00  0.00    -0.005 C 
HETATM   11  C   UNK N   1      28.263  27.161  -7.310  0.00  0.00     0.005 C 
ENDBRANCH   9  10
ENDBRANCH   8   9
ENDBRANCH   7   8
ENDBRANCH   6   7
ENDBRANCH   5   6
ENDBRANCH   4   5
ENDBRANCH   3   4
ENDBRANCH   1   2
BRANCH   1  12
HETATM   12  C   UNK N   1      27.602  23.643  -5.652  0.00  0.00     0.004 C 
BRANCH  12  13
HETATM   13  C   UNK N   1      28.254  24.365  -4.494  0.00  0.00     0.000 C 
BRANCH  13  14
HETATM   14  C   UNK N   1      29.644  23.792  -4.370  0.00  0.00     0.000 C 
BRANCH  14  15
HETATM   15  C   UNK N   1      29.749  22.398  -4.939  0.00  0.00     0.001 C 
BRANCH  15  16
HETATM   16  C   UNK N   1      30.348  21.557  -3.835  0.00  0.00     0.010 C 
BRANCH  16  17
HETATM   17  C   UNK N   1      31.615  20.850  -4.273  0.00  0.00     0.110 C 
BRANCH  17  18
HETATM   18  C   UNK N   1      32.760  21.167  -3.352  0.00  0.00     0.139 C 
HETATM   19  O   UNK N   1      33.884  21.373  -3.792  0.00  0.00    -0.650 OA
BRANCH  18  20
HETATM   20  O   UNK N   1      32.548  21.227  -2.026  0.00  0.00    -0.776 OA
HETATM   21  H   UNK N   1      33.259  21.094  -1.432  0.00  0.00     0.167 HD
ENDBRANCH  18  20
ENDBRANCH  17  18
ENDBRANCH  16  17
ENDBRANCH  15  16
ENDBRANCH  14  15
ENDBRANCH  13  14
ENDBRANCH  12  13
ENDBRANCH   1  12
TORSDOF 16
ENDMDL
MODEL 4
REMARK VINA RESULT:      -4.8     10.347     12.661
REMARK  16 active torsions:
REMARK  status: ('A' for Active; 'I' for Inactive)
REMARK    1  A    between atoms: C_2  and  C_3 
REMARK    2  A    between atoms: C_3  and  C_4 
REMARK    3  A    between atoms: C_4  and  C_5 
REMARK    4  A    between atoms: C_5  and  C_6 
REMARK    5  A    between atoms: C_6  and  C_7 
REMARK    6  A    between atoms: C_7  and  C_8 
REMARK    7  A    between atoms: C_8  and  C_9 
REMARK    8  A    between atoms: C_10  and  C_11 
REMARK    9  A    between atoms: C_11  and  C_12 
REMARK   10  A    between atoms: C_12  and  C_13 
REMARK   11  A    between atoms: C_13  and  C_14 
REMARK   12  A    between atoms: C_14  and  C_15 
REMARK   13  A    between atoms: C_15  and  C_16 
REMARK   14  A    between atoms: C_16  and  C_17 
REMARK   15  A    between atoms: C_17  and  C_18 
REMARK   16  A    between atoms: C_18  and  O_19 
ROOT
HETATM    1  C   UNK N   1      28.817  18.316   7.834  0.00  0.00     0.027 C 
ENDROOT
BRANCH   1   2
HETATM    2  C   UNK N   1      30.052  17.625   7.374  0.00  0.00    -0.031 C 
HETATM    3  C   UNK N   1      30.081  17.121   6.150  0.00  0.00    -0.031 C 
BRANCH   3   4
HETATM    4  C   UNK N   1      31.281  16.418   5.622  0.00  0.00     0.027 C 
BRANCH   4   5
HETATM    5  C   UNK N   1      31.976  17.411   4.725  0.00  0.00     0.004 C 
BRANCH   5   6
HETATM    6  C   UNK N   1      33.440  17.581   5.053  0.00  0.00     0.000 C 
BRANCH   6   7
HETATM    7  C   UNK N   1      33.631  16.925   6.401  0.00  0.00     0.000 C 
BRANCH   7   8
HETATM    8  C   UNK N   1      33.934  17.927   7.489  0.00  0.00     0.000 C 
BRANCH   8   9
HETATM    9  C   UNK N   1      33.654  17.244   8.811  0.00  0.00    -0.000 C 
BRANCH   9  10
HETATM   10  C   UNK N   1      33.555  15.748   8.626  0.00  0.00    -0.005 C 
HETATM   11  C   UNK N   1      32.288  15.256   9.295  0.00  0.00     0.005 C 
ENDBRANCH   9  10
ENDBRANCH   8   9
ENDBRANCH   7   8
ENDBRANCH   6   7
ENDBRANCH   5   6
ENDBRANCH   4   5
ENDBRANCH   3   4
ENDBRANCH   1   2
BRANCH   1  12
HETATM   12  C   UNK N   1      27.822  18.332   6.703  0.00  0.00     0.004 C 
BRANCH  12  13
HETATM   13  C   UNK N   1      27.446  19.752   6.342  0.00  0.00     0.000 C 
BRANCH  13  14
HETATM   14  C   UNK N   1      28.059  20.018   4.990  0.00  0.00     0.000 C 
BRANCH  14  15
HETATM   15  C   UNK N   1      27.173  19.572   3.853  0.00  0.00     0.001 C 
BRANCH  15  16
HETATM   16  C   UNK N   1      26.001  20.526   3.857  0.00  0.00     0.010 C 
BRANCH  16  17
HETATM   17  C   UNK N   1      25.113  20.352   2.641  0.00  0.00     0.110 C 
BRANCH  17  18
HETATM   18  C   UNK N   1      23.660  20.472   3.008  0.00  0.00     0.139 C 
HETATM   19  O   UNK N   1      23.060  21.530   2.866  0.00  0.00    -0.650 OA
BRANCH  18  20
HETATM   20  O   UNK N   1      23.009  19.405   3.500  0.00  0.00    -0.776 OA
HETATM   21  H   UNK N   1      22.974  19.263   4.425  0.00  0.00     0.167 HD
ENDBRANCH  18  20
ENDBRANCH  17  18
ENDBRANCH  16  17
ENDBRANCH  15  16
ENDBRANCH  14  15
ENDBRANCH  13  14
ENDBRANCH  12  13
ENDBRANCH   1  12
TORSDOF 16
ENDMDL
MODEL 5
REMARK VINA RESULT:      -4.7      3.869      6.516
REMARK  16 active torsions:
REMARK  status: ('A' for Active; 'I' for Inactive)
REMARK    1  A    between atoms: C_2  and  C_3 
REMARK    2  A    between atoms: C_3  and  C_4 
REMARK    3  A    between atoms: C_4  and  C_5 
REMARK    4  A    between atoms: C_5  and  C_6 
REMARK    5  A    between atoms: C_6  and  C_7 
REMARK    6  A    between atoms: C_7  and  C_8 
REMARK    7  A    between atoms: C_8  and  C_9 
REMARK    8  A    between atoms: C_10  and  C_11 
REMARK    9  A    between atoms: C_11  and  C_12 
REMARK   10  A    between atoms: C_12  and  C_13 
REMARK   11  A    between atoms: C_13  and  C_14 
REMARK   12  A    between atoms: C_14  and  C_15 
REMARK   13  A    between atoms: C_15  and  C_16 
REMARK   14  A    between atoms: C_16  and  C_17 
REMARK   15  A    between atoms: C_17  and  C_18 
REMARK   16  A    between atoms: C_18  and  O_19 
ROOT
HETATM    1  C   UNK N   1      30.233  25.539  -4.725  0.00  0.00     0.027 C 
ENDROOT
BRANCH   1   2
HETATM    2  C   UNK N   1      29.882  26.984  -4.678  0.00  0.00    -0.031 C 
HETATM    3  C   UNK N   1      29.298  27.463  -3.591  0.00  0.00    -0.031 C 
BRANCH   3   4
HETATM    4  C   UNK N   1      28.920  28.896  -3.473  0.00  0.00     0.027 C 
BRANCH   4   5
HETATM    5  C   UNK N   1      27.579  28.910  -2.782  0.00  0.00     0.004 C 
BRANCH   5   6
HETATM    6  C   UNK N   1      26.432  29.192  -3.722  0.00  0.00     0.000 C 
BRANCH   6   7
HETATM    7  C   UNK N   1      25.642  27.906  -3.793  0.00  0.00     0.000 C 
BRANCH   7   8
HETATM    8  C   UNK N   1      25.356  27.486  -5.215  0.00  0.00     0.000 C 
BRANCH   8   9
HETATM    9  C   UNK N   1      26.531  27.939  -6.055  0.00  0.00    -0.000 C 
BRANCH   9  10
HETATM   10  C   UNK N   1      26.931  26.861  -7.036  0.00  0.00    -0.005 C 
HETATM   11  C   UNK N   1      27.961  27.428  -7.990  0.00  0.00     0.005 C 
ENDBRANCH   9  10
ENDBRANCH   8   9
ENDBRANCH   7   8
ENDBRANCH   6   7
ENDBRANCH   5   6
ENDBRANCH   4   5
ENDBRANCH   3   4
ENDBRANCH   1   2
BRANCH   1  12
HETATM   12  C   UNK N   1      29.246  24.774  -3.882  0.00  0.00     0.004 C 
BRANCH  12  13
HETATM   13  C   UNK N   1      28.260  24.029  -4.754  0.00  0.00     0.000 C 
BRANCH  13  14
HETATM   14  C   UNK N   1      26.896  24.298  -4.171  0.00  0.00     0.000 C 
BRANCH  14  15
HETATM   15  C   UNK N   1      25.780  23.995  -5.141  0.00  0.00     0.001 C 
BRANCH  15  16
HETATM   16  C   UNK N   1      26.412  23.168  -6.236  0.00  0.00     0.010 C 
BRANCH  16  17
HETATM   17  C   UNK N   1      25.652  23.267  -7.544  0.00  0.00     0.110 C 
BRANCH  17  18
HETATM   18  C   UNK N   1      24.857  22.019  -7.807  0.00  0.00     0.139 C 
HETATM   19  O   UNK N   1      24.190  21.500  -6.921  0.00  0.00    -0.650 OA
BRANCH  18  20
HETATM   20  O   UNK N   1      24.879  21.463  -9.030  0.00  0.00    -0.776 OA
HETATM   21  H   UNK N   1      24.593  20.579  -9.148  0.00  0.00     0.167 HD
ENDBRANCH  18  20
ENDBRANCH  17  18
ENDBRANCH  16  17
ENDBRANCH  15  16
ENDBRANCH  14  15
ENDBRANCH  13  14
ENDBRANCH  12  13
ENDBRANCH   1  12
TORSDOF 16
ENDMDL
MODEL 6
REMARK VINA RESULT:      -4.7     19.613     22.473
REMARK  16 active torsions:
REMARK  status: ('A' for Active; 'I' for Inactive)
REMARK    1  A    between atoms: C_2  and  C_3 
REMARK    2  A    between atoms: C_3  and  C_4 
REMARK    3  A    between atoms: C_4  and  C_5 
REMARK    4  A    between atoms: C_5  and  C_6 
REMARK    5  A    between atoms: C_6  and  C_7 
REMARK    6  A    between atoms: C_7  and  C_8 
REMARK    7  A    between atoms: C_8  and  C_9 
REMARK    8  A    between atoms: C_10  and  C_11 
REMARK    9  A    between atoms: C_11  and  C_12 
REMARK   10  A    between atoms: C_12  and  C_13 
REMARK   11  A    between atoms: C_13  and  C_14 
REMARK   12  A    between atoms: C_14  and  C_15 
REMARK   13  A    between atoms: C_15  and  C_16 
REMARK   14  A    between atoms: C_16  and  C_17 
REMARK   15  A    between atoms: C_17  and  C_18 
REMARK   16  A    between atoms: C_18  and  O_19 
ROOT
HETATM    1  C   UNK N   1      36.748  13.181  13.862  0.00  0.00     0.027 C 
ENDROOT
BRANCH   1   2
HETATM    2  C   UNK N   1      35.620  13.076  14.828  0.00  0.00    -0.031 C 
HETATM    3  C   UNK N   1      35.872  13.219  16.119  0.00  0.00    -0.031 C 
BRANCH   3   4
HETATM    4  C   UNK N   1      34.796  13.126  17.141  0.00  0.00     0.027 C 
BRANCH   4   5
HETATM    5  C   UNK N   1      35.362  12.284  18.257  0.00  0.00     0.004 C 
BRANCH   5   6
HETATM    6  C   UNK N   1      36.014  11.014  17.766  0.00  0.00     0.000 C 
BRANCH   6   7
HETATM    7  C   UNK N   1      34.888  10.021  17.595  0.00  0.00     0.000 C 
BRANCH   7   8
HETATM    8  C   UNK N   1      34.984   9.263  16.293  0.00  0.00     0.000 C 
BRANCH   8   9
HETATM    9  C   UNK N   1      36.356   9.543  15.717  0.00  0.00    -0.000 C 
BRANCH   9  10
HETATM   10  C   UNK N   1      36.334   9.434  14.211  0.00  0.00    -0.005 C 
HETATM   11  C   UNK N   1      34.932   9.728  13.721  0.00  0.00     0.005 C 
ENDBRANCH   9  10
ENDBRANCH   8   9
ENDBRANCH   7   8
ENDBRANCH   6   7
ENDBRANCH   5   6
ENDBRANCH   4   5
ENDBRANCH   3   4
ENDBRANCH   1   2
BRANCH   1  12
HETATM   12  C   UNK N   1      36.343  14.109  12.747  0.00  0.00     0.004 C 
BRANCH  12  13
HETATM   13  C   UNK N   1      35.034  13.667  12.130  0.00  0.00     0.000 C 
BRANCH  13  14
HETATM   14  C   UNK N   1      34.671  14.721  11.115  0.00  0.00     0.000 C 
BRANCH  14  15
HETATM   15  C   UNK N   1      35.778  15.724  10.898  0.00  0.00     0.001 C 
BRANCH  15  16
HETATM   16  C   UNK N   1      35.101  16.961  10.355  0.00  0.00     0.010 C 
BRANCH  16  17
HETATM   17  C   UNK N   1      34.707  16.810   8.900  0.00  0.00     0.110 C 
BRANCH  17  18
HETATM   18  C   UNK N   1      34.579  18.149   8.230  0.00  0.00     0.139 C 
HETATM   19  O   UNK N   1      33.743  18.339   7.356  0.00  0.00    -0.650 OA
BRANCH  18  20
HETATM   20  O   UNK N   1      35.394  19.154   8.594  0.00  0.00    -0.776 OA
HETATM   21  H   UNK N   1      36.217  18.966   9.000  0.00  0.00     0.167 HD
ENDBRANCH  18  20
ENDBRANCH  17  18
ENDBRANCH  16  17
ENDBRANCH  15  16
ENDBRANCH  14  15
ENDBRANCH  13  14
ENDBRANCH  12  13
ENDBRANCH   1  12
TORSDOF 16
ENDMDL
MODEL 7
REMARK VINA RESULT:      -4.7      3.110      6.777
REMARK  16 active torsions:
REMARK  status: ('A' for Active; 'I' for Inactive)
REMARK    1  A    between atoms: C_2  and  C_3 
REMARK    2  A    between atoms: C_3  and  C_4 
REMARK    3  A    between atoms: C_4  and  C_5 
REMARK    4  A    between atoms: C_5  and  C_6 
REMARK    5  A    between atoms: C_6  and  C_7 
REMARK    6  A    between atoms: C_7  and  C_8 
REMARK    7  A    between atoms: C_8  and  C_9 
REMARK    8  A    between atoms: C_10  and  C_11 
REMARK    9  A    between atoms: C_11  and  C_12 
REMARK   10  A    between atoms: C_12  and  C_13 
REMARK   11  A    between atoms: C_13  and  C_14 
REMARK   12  A    between atoms: C_14  and  C_15 
REMARK   13  A    between atoms: C_15  and  C_16 
REMARK   14  A    between atoms: C_16  and  C_17 
REMARK   15  A    between atoms: C_17  and  C_18 
REMARK   16  A    between atoms: C_18  and  O_19 
ROOT
HETATM    1  C   UNK N   1      28.765  28.023  -7.340  0.00  0.00     0.027 C 
ENDROOT
BRANCH   1   2
HETATM    2  C   UNK N   1      27.863  28.947  -6.601  0.00  0.00    -0.031 C 
HETATM    3  C   UNK N   1      28.313  29.533  -5.502  0.00  0.00    -0.031 C 
BRANCH   3   4
HETATM    4  C   UNK N   1      27.468  30.468  -4.713  0.00  0.00     0.027 C 
BRANCH   4   5
HETATM    5  C   UNK N   1      26.389  29.617  -4.089  0.00  0.00     0.004 C 
BRANCH   5   6
HETATM    6  C   UNK N   1      26.933  28.567  -3.151  0.00  0.00     0.000 C 
BRANCH   6   7
HETATM    7  C   UNK N   1      25.992  27.391  -3.271  0.00  0.00     0.000 C 
BRANCH   7   8
HETATM    8  C   UNK N   1      26.450  26.392  -4.306  0.00  0.00     0.000 C 
BRANCH   8   9
HETATM    9  C   UNK N   1      25.366  26.318  -5.361  0.00  0.00    -0.000 C 
BRANCH   9  10
HETATM   10  C   UNK N   1      25.734  25.319  -6.433  0.00  0.00    -0.005 C 
HETATM   11  C   UNK N   1      25.771  26.030  -7.770  0.00  0.00     0.005 C 
ENDBRANCH   9  10
ENDBRANCH   8   9
ENDBRANCH   7   8
ENDBRANCH   6   7
ENDBRANCH   5   6
ENDBRANCH   4   5
ENDBRANCH   3   4
ENDBRANCH   1   2
BRANCH   1  12
HETATM   12  C   UNK N   1      29.531  27.194  -6.342  0.00  0.00     0.004 C 
BRANCH  12  13
HETATM   13  C   UNK N   1      29.386  25.719  -6.648  0.00  0.00     0.000 C 
BRANCH  13  14
HETATM   14  C   UNK N   1      29.775  24.989  -5.388  0.00  0.00     0.000 C 
BRANCH  14  15
HETATM   15  C   UNK N   1      30.174  23.556  -5.647  0.00  0.00     0.001 C 
BRANCH  15  16
HETATM   16  C   UNK N   1      29.950  22.833  -4.340  0.00  0.00     0.010 C 
BRANCH  16  17
HETATM   17  C   UNK N   1      28.975  23.562  -3.437  0.00  0.00     0.110 C 
BRANCH  17  18
HETATM   18  C   UNK N   1      29.132  23.129  -2.006  0.00  0.00     0.139 C 
HETATM   19  O   UNK N   1      28.153  22.912  -1.303  0.00  0.00    -0.650 OA
BRANCH  18  20
HETATM   20  O   UNK N   1      30.363  22.979  -1.490  0.00  0.00    -0.776 OA
HETATM   21  H   UNK N   1      31.067  22.689  -2.035  0.00  0.00     0.167 HD
ENDBRANCH  18  20
ENDBRANCH  17  18
ENDBRANCH  16  17
ENDBRANCH  15  16
ENDBRANCH  14  15
ENDBRANCH  13  14
ENDBRANCH  12  13
ENDBRANCH   1  12
TORSDOF 16
ENDMDL
MODEL 8
REMARK VINA RESULT:      -4.7      3.521      7.069
REMARK  16 active torsions:
REMARK  status: ('A' for Active; 'I' for Inactive)
REMARK    1  A    between atoms: C_2  and  C_3 
REMARK    2  A    between atoms: C_3  and  C_4 
REMARK    3  A    between atoms: C_4  and  C_5 
REMARK    4  A    between atoms: C_5  and  C_6 
REMARK    5  A    between atoms: C_6  and  C_7 
REMARK    6  A    between atoms: C_7  and  C_8 
REMARK    7  A    between atoms: C_8  and  C_9 
REMARK    8  A    between atoms: C_10  and  C_11 
REMARK    9  A    between atoms: C_11  and  C_12 
REMARK   10  A    between atoms: C_12  and  C_13 
REMARK   11  A    between atoms: C_13  and  C_14 
REMARK   12  A    between atoms: C_14  and  C_15 
REMARK   13  A    between atoms: C_15  and  C_16 
REMARK   14  A    between atoms: C_16  and  C_17 
REMARK   15  A    between atoms: C_17  and  C_18 
REMARK   16  A    between atoms: C_18  and  O_19 
ROOT
HETATM    1  C   UNK N   1      25.582  26.185  -7.140  0.00  0.00     0.027 C 
ENDROOT
BRANCH   1   2
HETATM    2  C   UNK N   1      25.184  26.667  -5.790  0.00  0.00    -0.031 C 
HETATM    3  C   UNK N   1      25.862  27.663  -5.243  0.00  0.00    -0.031 C 
BRANCH   3   4
HETATM    4  C   UNK N   1      25.521  28.197  -3.898  0.00  0.00     0.027 C 
BRANCH   4   5
HETATM    5  C   UNK N   1      26.469  29.346  -3.660  0.00  0.00     0.004 C 
BRANCH   5   6
HETATM    6  C   UNK N   1      27.550  29.021  -2.657  0.00  0.00     0.000 C 
BRANCH   6   7
HETATM    7  C   UNK N   1      28.856  29.267  -3.375  0.00  0.00     0.000 C 
BRANCH   7   8
HETATM    8  C   UNK N   1      28.664  29.995  -4.684  0.00  0.00     0.000 C 
BRANCH   8   9
HETATM    9  C   UNK N   1      29.245  29.114  -5.770  0.00  0.00    -0.000 C 
BRANCH   9  10
HETATM   10  C   UNK N   1      28.558  29.374  -7.091  0.00  0.00    -0.005 C 
HETATM   11  C   UNK N   1      28.612  28.111  -7.925  0.00  0.00     0.005 C 
ENDBRANCH   9  10
ENDBRANCH   8   9
ENDBRANCH   7   8
ENDBRANCH   6   7
ENDBRANCH   5   6
ENDBRANCH   4   5
ENDBRANCH   3   4
ENDBRANCH   1   2
BRANCH   1  12
HETATM   12  C   UNK N   1      26.384  24.919  -6.984  0.00  0.00     0.004 C 
BRANCH  12  13
HETATM   13  C   UNK N   1      25.973  24.175  -5.732  0.00  0.00     0.000 C 
BRANCH  13  14
HETATM   14  C   UNK N   1      27.230  23.993  -4.920  0.00  0.00     0.000 C 
BRANCH  14  15
HETATM   15  C   UNK N   1      27.047  24.382  -3.473  0.00  0.00     0.001 C 
BRANCH  15  16
HETATM   16  C   UNK N   1      28.108  23.619  -2.713  0.00  0.00     0.010 C 
BRANCH  16  17
HETATM   17  C   UNK N   1      29.350  23.375  -3.547  0.00  0.00     0.110 C 
BRANCH  17  18
HETATM   18  C   UNK N   1      30.529  23.038  -2.678  0.00  0.00     0.139 C 
HETATM   19  O   UNK N   1      31.618  22.771  -3.171  0.00  0.00    -0.650 OA
BRANCH  18  20
HETATM   20  O   UNK N   1      30.389  23.030  -1.342  0.00  0.00    -0.776 OA
HETATM   21  H   UNK N   1      29.690  22.548  -0.947  0.00  0.00     0.167 HD
ENDBRANCH  18  20
ENDBRANCH  17  18
ENDBRANCH  16  17
ENDBRANCH  15  16
ENDBRANCH  14  15
ENDBRANCH  13  14
ENDBRANCH  12  13
ENDBRANCH   1  12
TORSDOF 16
ENDMDL
MODEL 9
REMARK VINA RESULT:      -4.6      3.628      7.302
REMARK  16 active torsions:
REMARK  status: ('A' for Active; 'I' for Inactive)
REMARK    1  A    between atoms: C_2  and  C_3 
REMARK    2  A    between atoms: C_3  and  C_4 
REMARK    3  A    between atoms: C_4  and  C_5 
REMARK    4  A    between atoms: C_5  and  C_6 
REMARK    5  A    between atoms: C_6  and  C_7 
REMARK    6  A    between atoms: C_7  and  C_8 
REMARK    7  A    between atoms: C_8  and  C_9 
REMARK    8  A    between atoms: C_10  and  C_11 
REMARK    9  A    between atoms: C_11  and  C_12 
REMARK   10  A    between atoms: C_12  and  C_13 
REMARK   11  A    between atoms: C_13  and  C_14 
REMARK   12  A    between atoms: C_14  and  C_15 
REMARK   13  A    between atoms: C_15  and  C_16 
REMARK   14  A    between atoms: C_16  and  C_17 
REMARK   15  A    between atoms: C_17  and  C_18 
REMARK   16  A    between atoms: C_18  and  O_19 
ROOT
HETATM    1  C   UNK N   1      29.869  26.010  -6.201  0.00  0.00     0.027 C 
ENDROOT
BRANCH   1   2
HETATM    2  C   UNK N   1      28.998  27.173  -5.881  0.00  0.00    -0.031 C 
HETATM    3  C   UNK N   1      28.699  27.416  -4.614  0.00  0.00    -0.031 C 
BRANCH   3   4
HETATM    4  C   UNK N   1      27.835  28.560  -4.220  0.00  0.00     0.027 C 
BRANCH   4   5
HETATM    5  C   UNK N   1      26.638  28.504  -5.137  0.00  0.00     0.004 C 
BRANCH   5   6
HETATM    6  C   UNK N   1      25.450  27.810  -4.515  0.00  0.00     0.000 C 
BRANCH   6   7
HETATM    7  C   UNK N   1      24.751  27.104  -5.654  0.00  0.00     0.000 C 
BRANCH   7   8
HETATM    8  C   UNK N   1      25.586  25.989  -6.237  0.00  0.00     0.000 C 
BRANCH   8   9
HETATM    9  C   UNK N   1      25.460  24.806  -5.300  0.00  0.00    -0.000 C 
BRANCH   9  10
HETATM   10  C   UNK N   1      26.824  24.279  -4.922  0.00  0.00    -0.005 C 
HETATM   11  C   UNK N   1      26.973  24.346  -3.416  0.00  0.00     0.005 C 
ENDBRANCH   9  10
ENDBRANCH   8   9
ENDBRANCH   7   8
ENDBRANCH   6   7
ENDBRANCH   5   6
ENDBRANCH   4   5
ENDBRANCH   3   4
ENDBRANCH   1   2
BRANCH   1  12
HETATM   12  C   UNK N   1      30.978  25.942  -5.184  0.00  0.00     0.004 C 
BRANCH  12  13
HETATM   13  C   UNK N   1      31.148  24.529  -4.670  0.00  0.00     0.000 C 
BRANCH  13  14
HETATM   14  C   UNK N   1      30.749  24.560  -3.216  0.00  0.00     0.000 C 
BRANCH  14  15
HETATM   15  C   UNK N   1      30.348  23.201  -2.696  0.00  0.00     0.001 C 
BRANCH  15  16
HETATM   16  C   UNK N   1      30.164  22.338  -3.922  0.00  0.00     0.010 C 
BRANCH  16  17
HETATM   17  C   UNK N   1      30.520  20.887  -3.664  0.00  0.00     0.110 C 
BRANCH  17  18
HETATM   18  C   UNK N   1      31.622  20.428  -4.578  0.00  0.00     0.139 C 
HETATM   19  O   UNK N   1      31.790  20.949  -5.673  0.00  0.00    -0.650 OA
BRANCH  18  20
HETATM   20  O   UNK N   1      32.434  19.430  -4.189  0.00  0.00    -0.776 OA
HETATM   21  H   UNK N   1      32.902  19.496  -3.380  0.00  0.00     0.167 HD
ENDBRANCH  18  20
ENDBRANCH  17  18
ENDBRANCH  16  17
ENDBRANCH  15  16
ENDBRANCH  14  15
ENDBRANCH  13  14
ENDBRANCH  12  13
ENDBRANCH   1  12
TORSDOF 16
ENDMDL
