MODEL 1
REMARK VINA RESULT:      -9.4      0.000      0.000
REMARK  30 active torsions:
REMARK  status: ('A' for Active; 'I' for Inactive)
REMARK    1  A    between atoms: C_43  and  O_5 
REMARK    2  A    between atoms: C_46  and  O_5 
REMARK    3  A    between atoms: C_41  and  O_6 
REMARK    4  A    between atoms: C_47  and  O_8 
REMARK    5  A    between atoms: C_48  and  O_9 
REMARK    6  A    between atoms: O_9  and  C_61 
REMARK    7  A    between atoms: C_50  and  O_10 
REMARK    8  A    between atoms: C_59  and  O_12 
REMARK    9  A    between atoms: C_65  and  O_12 
REMARK   10  A    between atoms: C_54  and  O_13 
REMARK   11  A    between atoms: O_14  and  C_55 
REMARK   12  A    between atoms: O_21  and  C_103 
REMARK   13  A    between atoms: O_23  and  C_107 
REMARK   14  A    between atoms: C_111  and  O_24 
REMARK   15  A    between atoms: O_25  and  C_112 
REMARK   16  A    between atoms: O_26  and  C_115 
REMARK   17  A    between atoms: C_40  and  N_30 
REMARK   18  A    between atoms: N_30  and  C_52 
REMARK   19  A    between atoms: C_53  and  N_31 
REMARK   20  A    between atoms: C_113  and  N_37 
REMARK       I    between atoms: N_37  and  C_119 
REMARK       I    between atoms: N_38  and  C_118 
REMARK   21  A    between atoms: C_120  and  N_39 
REMARK   22  A    between atoms: C_51  and  C_55 
REMARK   23  A    between atoms: C_52  and  C_56 
REMARK   24  A    between atoms: C_71  and  C_78 
REMARK   25  A    between atoms: C_87  and  C_103 
REMARK   26  A    between atoms: C_99  and  C_114 
REMARK   27  A    between atoms: C_114  and  C_118 
REMARK   28  A    between atoms: C_119  and  C_120 
REMARK   29  A    between atoms: C_120  and  C_121 
REMARK   30  A    between atoms: C_121  and  C_122 
ROOT
HETATM    1 Cl   UNK N   1      29.920  11.031  -0.621  0.00  0.00    -0.081 Cl
HETATM    2 Cl   UNK N   1      34.940   7.518   8.126  0.00  0.00    -0.081 Cl
HETATM    3  O   UNK N   1      30.854  10.012   2.082  0.00  0.00    -0.306 OA
HETATM    4  O   UNK N   1      33.751   9.097   5.839  0.00  0.00    -0.306 OA
HETATM    5  O   UNK N   1      24.417  14.679   1.029  0.00  0.00    -0.271 OA
HETATM    6  O   UNK N   1      28.940  14.259   2.157  0.00  0.00    -0.271 OA
HETATM    7  O   UNK N   1      32.780  14.953   3.526  0.00  0.00    -0.271 OA
HETATM    8  O   UNK N   1      33.861  15.204   6.357  0.00  0.00    -0.271 OA
HETATM    9  O   UNK N   1      35.821  14.500   7.909  0.00  0.00    -0.271 OA
HETATM   10  N   UNK N   1      27.101  13.976   3.389  0.00  0.00    -0.343 N 
HETATM   11  N   UNK N   1      25.012  15.989   2.691  0.00  0.00    -0.341 N 
HETATM   12  N   UNK N   1      30.626  14.827   3.925  0.00  0.00    -0.342 N 
HETATM   13  N   UNK N   1      32.107  13.827   6.568  0.00  0.00    -0.342 N 
HETATM   14  N   UNK N   1      34.048  14.140   9.254  0.00  0.00    -0.345 N 
HETATM   15  C   UNK N   1      32.393   9.467   3.874  0.00  0.00     0.139 C 
HETATM   16  C   UNK N   1      25.746  12.271   2.253  0.00  0.00     0.189 C 
HETATM   17  C   UNK N   1      26.238  13.758   2.212  0.00  0.00     0.210 C 
HETATM   18  C   UNK N   1      31.515  10.360   3.215  0.00  0.00     0.113 C 
HETATM   19  C   UNK N   1      32.850   9.843   5.155  0.00  0.00     0.113 C 
HETATM   20  C   UNK N   1      26.943  11.375   2.091  0.00  0.00    -0.025 A 
HETATM   21  C   UNK N   1      31.296  11.639   3.732  0.00  0.00     0.050 C 
HETATM   22  C   UNK N   1      31.823  12.002   4.950  0.00  0.00    -0.021 C 
HETATM   23  C   UNK N   1      32.504  11.075   5.682  0.00  0.00     0.050 C 
HETATM   24  C   UNK N   1      25.156  14.832   1.983  0.00  0.00     0.244 C 
HETATM   25  C   UNK N   1      32.239  13.402   5.194  0.00  0.00     0.210 C 
HETATM   26  C   UNK N   1      27.694  11.407   0.900  0.00  0.00     0.036 A 
HETATM   27  C   UNK N   1      27.457  10.755   3.219  0.00  0.00     0.012 A 
HETATM   28  C   UNK N   1      29.537  10.353   2.021  0.00  0.00     0.098 A 
HETATM   29  C   UNK N   1      28.981  10.879   0.852  0.00  0.00     0.068 A 
HETATM   30  C   UNK N   1      28.741  10.242   3.182  0.00  0.00     0.040 A 
HETATM   31  C   UNK N   1      28.445  14.194   3.275  0.00  0.00     0.245 C 
HETATM   32  C   UNK N   1      29.381  14.381   4.498  0.00  0.00     0.210 C 
HETATM   33  C   UNK N   1      31.882  14.434   4.170  0.00  0.00     0.246 C 
HETATM   34  C   UNK N   1      25.789  16.424   3.822  0.00  0.00     0.217 C 
HETATM   35  C   UNK N   1      34.768   9.718   6.487  0.00  0.00     0.098 C 
HETATM   36  C   UNK N   1      29.053  15.526   5.400  0.00  0.00    -0.025 A 
HETATM   37  C   UNK N   1      26.026  17.951   3.860  0.00  0.00    -0.009 A 
HETATM   38  C   UNK N   1      33.013  14.700   7.080  0.00  0.00     0.241 C 
HETATM   39  C   UNK N   1      28.198  16.468   4.926  0.00  0.00     0.025 A 
HETATM   40  C   UNK N   1      27.044  18.589   4.690  0.00  0.00     0.019 A 
HETATM   41  C   UNK N   1      28.044  17.732   5.450  0.00  0.00     0.011 A 
HETATM   42  C   UNK N   1      33.063  14.952   8.548  0.00  0.00     0.185 C 
HETATM   43  C   UNK N   1      35.375   9.123   7.591  0.00  0.00     0.068 C 
HETATM   44  C   UNK N   1      35.178  11.004   6.078  0.00  0.00     0.040 C 
HETATM   45  C   UNK N   1      29.858  15.839   6.501  0.00  0.00     0.012 A 
HETATM   46  C   UNK N   1      25.166  18.748   3.098  0.00  0.00     0.047 A 
HETATM   47  C   UNK N   1      36.562  11.197   7.997  0.00  0.00    -0.025 C 
HETATM   48  C   UNK N   1      28.894  18.073   6.555  0.00  0.00     0.076 A 
HETATM   49  C   UNK N   1      29.767  17.104   7.083  0.00  0.00     0.038 A 
HETATM   50  C   UNK N   1      36.263   9.874   8.353  0.00  0.00     0.036 C 
HETATM   51  C   UNK N   1      36.047  11.745   6.834  0.00  0.00     0.012 C 
HETATM   52  C   UNK N   1      37.246  12.090   8.956  0.00  0.00     0.183 C 
HETATM   53  C   UNK N   1      27.096  20.014   4.690  0.00  0.00     0.080 A 
HETATM   54  C   UNK N   1      36.192  12.968   9.682  0.00  0.00     0.210 C 
HETATM   55  C   UNK N   1      25.253  20.131   3.125  0.00  0.00     0.069 A 
HETATM   56  C   UNK N   1      35.343  13.925   8.874  0.00  0.00     0.244 C 
HETATM   57  C   UNK N   1      26.203  20.754   3.919  0.00  0.00     0.074 A 
HETATM   58  H   UNK N   1      26.694  13.965   4.285  0.00  0.00     0.163 HD
HETATM   59  H   UNK N   1      24.295  16.596   2.394  0.00  0.00     0.163 HD
HETATM   60  H   UNK N   1      30.540  15.533   3.244  0.00  0.00     0.163 HD
HETATM   61  H   UNK N   1      31.369  13.490   7.125  0.00  0.00     0.163 HD
HETATM   62  H   UNK N   1      33.752  13.705  10.085  0.00  0.00     0.163 HD
ENDROOT
BRANCH  15  63
HETATM   63  O   UNK N   1      32.771   8.322   3.267  0.00  0.00    -0.312 OA
BRANCH  63  64
HETATM   64  C   UNK N   1      32.057   7.557   2.351  0.00  0.00     0.298 C 
HETATM   65  O   UNK N   1      32.892   6.778   1.523  0.00  0.00    -0.348 OA
HETATM   66  C   UNK N   1      32.132   6.222   0.464  0.00  0.00     0.179 C 
HETATM   67  C   UNK N   1      30.944   5.364   0.981  0.00  0.00     0.180 C 
HETATM   68  C   UNK N   1      30.073   6.120   1.972  0.00  0.00     0.183 C 
HETATM   69  C   UNK N   1      30.983   6.673   3.047  0.00  0.00     0.211 C 
BRANCH  66  70
HETATM   70  C   UNK N   1      33.082   5.331  -0.333  0.00  0.00     0.198 C 
BRANCH  70  71
HETATM   71  O   UNK N   1      32.658   5.176  -1.655  0.00  0.00    -0.398 OA
HETATM   72  H   UNK N   1      31.919   5.700  -2.003  0.00  0.00     0.209 HD
ENDBRANCH  70  71
ENDBRANCH  66  70
BRANCH  67  73
HETATM   73  O   UNK N   1      30.145   4.914  -0.071  0.00  0.00    -0.390 OA
HETATM   74  H   UNK N   1      30.056   5.432  -0.887  0.00  0.00     0.210 HD
ENDBRANCH  67  73
BRANCH  68  75
HETATM   75  O   UNK N   1      29.400   7.162   1.324  0.00  0.00    -0.390 OA
HETATM   76  H   UNK N   1      29.193   8.018   1.730  0.00  0.00     0.210 HD
ENDBRANCH  68  75
BRANCH  69  77
HETATM   77  O   UNK N   1      30.248   7.250   4.112  0.00  0.00    -0.348 OA
BRANCH  77  78
HETATM   78  C   UNK N   1      29.133   6.452   4.340  0.00  0.00     0.263 C 
HETATM   79  O   UNK N   1      29.373   5.277   5.049  0.00  0.00    -0.354 OA
HETATM   80  C   UNK N   1      28.424   4.428   4.463  0.00  0.00     0.151 C 
HETATM   81  C   UNK N   1      26.977   4.841   4.807  0.00  0.00     0.174 C 
HETATM   82  C   UNK N   1      28.715   2.966   4.709  0.00  0.00     0.042 C 
HETATM   83  C   UNK N   1      26.910   6.283   5.426  0.00  0.00     0.055 C 
HETATM   84  C   UNK N   1      27.912   7.219   4.801  0.00  0.00     0.093 C 
HETATM   85  C   UNK N   1      27.345   6.260   6.890  0.00  0.00     0.041 C 
BRANCH  81  86
HETATM   86  O   UNK N   1      26.204   4.734   3.647  0.00  0.00    -0.391 OA
HETATM   87  H   UNK N   1      25.853   4.885   2.756  0.00  0.00     0.210 HD
ENDBRANCH  81  86
BRANCH  83  88
HETATM   88  N   UNK N   1      25.585   6.911   5.293  0.00  0.00    -0.406 N 
HETATM   89  H   UNK N   1      24.726   6.410   5.522  0.00  0.00     0.154 HD
BRANCH  88  90
HETATM   90  C   UNK N   1      25.568   8.288   4.819  0.00  0.00     0.153 C 
BRANCH  90  91
HETATM   91  C   UNK N   1      24.812   9.138   5.747  0.00  0.00    -0.041 C 
HETATM   92  C   UNK N   1      24.021   8.591   6.760  0.00  0.00     0.009 C 
HETATM   93  C   UNK N   1      23.356   9.450   7.633  0.00  0.00     0.013 C 
HETATM   94  C   UNK N   1      23.425  10.843   7.436  0.00  0.00    -0.026 C 
HETATM   95  C   UNK N   1      24.112  11.348   6.329  0.00  0.00     0.013 C 
HETATM   96  C   UNK N   1      24.811  10.505   5.507  0.00  0.00     0.009 C 
BRANCH  94  97
HETATM   97  C   UNK N   1      23.382  11.740   8.593  0.00  0.00    -0.026 A 
HETATM   98  C   UNK N   1      22.151  11.849   9.254  0.00  0.00     0.014 A 
HETATM   99  C   UNK N   1      22.116  12.022  10.633  0.00  0.00     0.024 A 
HETATM  100  C   UNK N   1      23.310  12.091  11.356  0.00  0.00     0.034 A 
HETATM  101 Cl   UNK N   1      23.274  12.039  13.098  0.00  0.00    -0.084 Cl
HETATM  102  C   UNK N   1      24.536  12.103  10.694  0.00  0.00     0.024 A 
HETATM  103  C   UNK N   1      24.573  11.924   9.319  0.00  0.00     0.014 A 
ENDBRANCH  94  97
ENDBRANCH  90  91
ENDBRANCH  88  90
ENDBRANCH  83  88
ENDBRANCH  77  78
ENDBRANCH  69  77
ENDBRANCH  63  64
ENDBRANCH  15  63
BRANCH  16 104
HETATM  104  O   UNK N   1      24.635  11.904   1.454  0.00  0.00    -0.349 OA
BRANCH 104 105
HETATM  105  C   UNK N   1      24.081  10.656   1.827  0.00  0.00     0.263 C 
HETATM  106  O   UNK N   1      24.061   9.767   0.730  0.00  0.00    -0.354 OA
HETATM  107  C   UNK N   1      23.356  10.394  -0.321  0.00  0.00     0.151 C 
HETATM  108  C   UNK N   1      21.861  10.442   0.014  0.00  0.00     0.174 C 
HETATM  109  C   UNK N   1      23.632   9.678  -1.627  0.00  0.00     0.042 C 
HETATM  110  C   UNK N   1      21.665  11.260   1.309  0.00  0.00     0.052 C 
HETATM  111  C   UNK N   1      22.652  10.798   2.394  0.00  0.00     0.093 C 
HETATM  112  C   UNK N   1      21.883  12.740   1.031  0.00  0.00     0.041 C 
BRANCH 108 113
HETATM  113  O   UNK N   1      21.382   9.138   0.175  0.00  0.00    -0.391 OA
HETATM  114  H   UNK N   1      21.143   8.263  -0.170  0.00  0.00     0.210 HD
ENDBRANCH 108 113
BRANCH 110 115
HETATM  115  N   UNK N   1      20.304  11.093   1.790  0.00  0.00    -0.420 N 
HETATM  116  H   UNK N   1      19.540  10.885   1.146  0.00  0.00     0.150 HD
HETATM  117  H   UNK N   1      20.109  11.183   2.787  0.00  0.00     0.150 HD
ENDBRANCH 110 115
ENDBRANCH 104 105
ENDBRANCH  16 104
BRANCH  42 118
HETATM  118  C   UNK N   1      32.891  16.392   9.062  0.00  0.00     0.137 C 
BRANCH 118 119
HETATM  119  C   UNK N   1      34.125  17.254   9.042  0.00  0.00     0.217 C 
HETATM  120  O   UNK N   1      34.914  17.228   9.974  0.00  0.00    -0.274 OA
HETATM  121  N   UNK N   1      34.405  17.998   7.956  0.00  0.00    -0.370 N 
HETATM  122  H   UNK N   1      35.268  17.951   7.483  0.00  0.00     0.159 HD
HETATM  123  H   UNK N   1      33.717  18.616   7.619  0.00  0.00     0.159 HD
ENDBRANCH 118 119
ENDBRANCH  42 118
BRANCH  52 124
HETATM  124  O   UNK N   1      37.936  11.315   9.891  0.00  0.00    -0.388 OA
HETATM  125  H   UNK N   1      37.617  11.008  10.755  0.00  0.00     0.210 HD
ENDBRANCH  52 124
BRANCH  54 126
HETATM  126  N   UNK N   1      36.660  13.601  10.891  0.00  0.00    -0.343 N 
HETATM  127  C   UNK N   1      36.348  13.206  12.153  0.00  0.00     0.240 C 
HETATM  128  O   UNK N   1      36.899  13.763  13.088  0.00  0.00    -0.271 OA
HETATM  129  H   UNK N   1      37.252  14.383  10.794  0.00  0.00     0.163 HD
BRANCH 127 130
HETATM  130  C   UNK N   1      35.350  12.096  12.432  0.00  0.00     0.169 C 
BRANCH 130 131
HETATM  131  N   UNK N   1      35.942  10.776  12.277  0.00  0.00    -0.413 N 
HETATM  132  C   UNK N   1      34.915   9.927  11.697  0.00  0.00     0.140 C 
HETATM  133  H   UNK N   1      36.892  10.502  12.525  0.00  0.00     0.153 HD
ENDBRANCH 130 131
BRANCH 130 134
HETATM  134  C   UNK N   1      34.658  12.206  13.799  0.00  0.00     0.038 C 
BRANCH 134 135
HETATM  135  C   UNK N   1      35.269  11.459  14.991  0.00  0.00    -0.020 C 
HETATM  136  C   UNK N   1      34.285  10.383  15.409  0.00  0.00     0.009 C 
HETATM  137  C   UNK N   1      35.518  12.338  16.205  0.00  0.00     0.009 C 
ENDBRANCH 134 135
ENDBRANCH 130 134
ENDBRANCH 127 130
ENDBRANCH  54 126
BRANCH  34 138
HETATM  138  C   UNK N   1      25.105  15.923   5.065  0.00  0.00     0.168 C 
HETATM  139  O   UNK N   1      25.316  14.796   5.482  0.00  0.00    -0.648 OA
BRANCH 138 140
HETATM  140  O   UNK N   1      24.290  16.745   5.752  0.00  0.00    -0.775 OA
HETATM  141  H   UNK N   1      23.900  16.609   6.593  0.00  0.00     0.167 HD
ENDBRANCH 138 140
ENDBRANCH  34 138
BRANCH  48 142
HETATM  142  O   UNK N   1      28.889  19.280   7.133  0.00  0.00    -0.360 OA
HETATM  143  H   UNK N   1      29.669  19.615   7.529  0.00  0.00     0.217 HD
ENDBRANCH  48 142
BRANCH  53 144
HETATM  144  O   UNK N   1      28.021  20.697   5.376  0.00  0.00    -0.360 OA
HETATM  145  H   UNK N   1      28.088  21.628   5.283  0.00  0.00     0.217 HD
ENDBRANCH  53 144
BRANCH  55 146
HETATM  146  O   UNK N   1      24.413  20.867   2.383  0.00  0.00    -0.361 OA
HETATM  147  H   UNK N   1      23.597  21.196   2.706  0.00  0.00     0.217 HD
ENDBRANCH  55 146
TORSDOF 30
ENDMDL
MODEL 2
REMARK VINA RESULT:      -9.3      2.996      6.300
REMARK  30 active torsions:
REMARK  status: ('A' for Active; 'I' for Inactive)
REMARK    1  A    between atoms: C_43  and  O_5 
REMARK    2  A    between atoms: C_46  and  O_5 
REMARK    3  A    between atoms: C_41  and  O_6 
REMARK    4  A    between atoms: C_47  and  O_8 
REMARK    5  A    between atoms: C_48  and  O_9 
REMARK    6  A    between atoms: O_9  and  C_61 
REMARK    7  A    between atoms: C_50  and  O_10 
REMARK    8  A    between atoms: C_59  and  O_12 
REMARK    9  A    between atoms: C_65  and  O_12 
REMARK   10  A    between atoms: C_54  and  O_13 
REMARK   11  A    between atoms: O_14  and  C_55 
REMARK   12  A    between atoms: O_21  and  C_103 
REMARK   13  A    between atoms: O_23  and  C_107 
REMARK   14  A    between atoms: C_111  and  O_24 
REMARK   15  A    between atoms: O_25  and  C_112 
REMARK   16  A    between atoms: O_26  and  C_115 
REMARK   17  A    between atoms: C_40  and  N_30 
REMARK   18  A    between atoms: N_30  and  C_52 
REMARK   19  A    between atoms: C_53  and  N_31 
REMARK   20  A    between atoms: C_113  and  N_37 
REMARK       I    between atoms: N_37  and  C_119 
REMARK       I    between atoms: N_38  and  C_118 
REMARK   21  A    between atoms: C_120  and  N_39 
REMARK   22  A    between atoms: C_51  and  C_55 
REMARK   23  A    between atoms: C_52  and  C_56 
REMARK   24  A    between atoms: C_71  and  C_78 
REMARK   25  A    between atoms: C_87  and  C_103 
REMARK   26  A    between atoms: C_99  and  C_114 
REMARK   27  A    between atoms: C_114  and  C_118 
REMARK   28  A    between atoms: C_119  and  C_120 
REMARK   29  A    between atoms: C_120  and  C_121 
REMARK   30  A    between atoms: C_121  and  C_122 
ROOT
HETATM    1 Cl   UNK N   1      25.149   9.567   0.417  0.00  0.00    -0.081 Cl
HETATM    2 Cl   UNK N   1      33.530  10.914   6.897  0.00  0.00    -0.081 Cl
HETATM    3  O   UNK N   1      27.166   9.940   2.655  0.00  0.00    -0.306 OA
HETATM    4  O   UNK N   1      31.240  11.173   4.940  0.00  0.00    -0.306 OA
HETATM    5  O   UNK N   1      19.603  12.593   2.947  0.00  0.00    -0.271 OA
HETATM    6  O   UNK N   1      24.137  13.445   2.159  0.00  0.00    -0.271 OA
HETATM    7  O   UNK N   1      27.785  15.278   1.506  0.00  0.00    -0.271 OA
HETATM    8  O   UNK N   1      29.573  16.864   3.386  0.00  0.00    -0.271 OA
HETATM    9  O   UNK N   1      32.042  17.210   4.116  0.00  0.00    -0.271 OA
HETATM   10  N   UNK N   1      22.975  13.397   4.064  0.00  0.00    -0.343 N 
HETATM   11  N   UNK N   1      20.249  14.556   3.696  0.00  0.00    -0.341 N 
HETATM   12  N   UNK N   1      26.027  14.972   2.781  0.00  0.00    -0.342 N 
HETATM   13  N   UNK N   1      28.508  15.428   4.735  0.00  0.00    -0.342 N 
HETATM   14  N   UNK N   1      31.000  17.152   6.114  0.00  0.00    -0.345 N 
HETATM   15  C   UNK N   1      29.284  10.457   3.715  0.00  0.00     0.139 C 
HETATM   16  C   UNK N   1      21.941  11.174   4.205  0.00  0.00     0.189 C 
HETATM   17  C   UNK N   1      21.898  12.568   3.490  0.00  0.00     0.210 C 
HETATM   18  C   UNK N   1      28.007  10.834   3.234  0.00  0.00     0.113 C 
HETATM   19  C   UNK N   1      29.981  11.404   4.495  0.00  0.00     0.113 C 
HETATM   20  C   UNK N   1      23.242  10.506   3.856  0.00  0.00    -0.025 A 
HETATM   21  C   UNK N   1      27.572  12.155   3.357  0.00  0.00     0.050 C 
HETATM   22  C   UNK N   1      28.316  13.076   4.058  0.00  0.00    -0.021 C 
HETATM   23  C   UNK N   1      29.451  12.666   4.694  0.00  0.00     0.050 C 
HETATM   24  C   UNK N   1      20.519  13.251   3.403  0.00  0.00     0.244 C 
HETATM   25  C   UNK N   1      28.323  14.498   3.646  0.00  0.00     0.210 C 
HETATM   26  C   UNK N   1      23.525  10.165   2.518  0.00  0.00     0.036 A 
HETATM   27  C   UNK N   1      24.257  10.509   4.800  0.00  0.00     0.012 A 
HETATM   28  C   UNK N   1      25.861   9.999   3.042  0.00  0.00     0.098 A 
HETATM   29  C   UNK N   1      24.826   9.888   2.110  0.00  0.00     0.068 A 
HETATM   30  C   UNK N   1      25.555  10.250   4.398  0.00  0.00     0.040 A 
HETATM   31  C   UNK N   1      24.071  13.770   3.338  0.00  0.00     0.245 C 
HETATM   32  C   UNK N   1      25.237  14.604   3.930  0.00  0.00     0.210 C 
HETATM   33  C   UNK N   1      27.352  14.933   2.593  0.00  0.00     0.246 C 
HETATM   34  C   UNK N   1      21.167  15.546   4.197  0.00  0.00     0.217 C 
HETATM   35  C   UNK N   1      32.159  12.168   4.870  0.00  0.00     0.098 C 
HETATM   36  C   UNK N   1      24.870  15.948   4.469  0.00  0.00    -0.025 A 
HETATM   37  C   UNK N   1      20.908  16.966   3.643  0.00  0.00    -0.009 A 
HETATM   38  C   UNK N   1      29.205  16.573   4.516  0.00  0.00     0.241 C 
HETATM   39  C   UNK N   1      23.657  16.449   4.121  0.00  0.00     0.025 A 
HETATM   40  C   UNK N   1      21.880  18.052   3.723  0.00  0.00     0.019 A 
HETATM   41  C   UNK N   1      23.287  17.770   4.227  0.00  0.00     0.011 A 
HETATM   42  C   UNK N   1      29.638  17.419   5.664  0.00  0.00     0.185 C 
HETATM   43  C   UNK N   1      33.241  12.199   5.748  0.00  0.00     0.068 C 
HETATM   44  C   UNK N   1      31.989  13.216   3.941  0.00  0.00     0.040 C 
HETATM   45  C   UNK N   1      25.841  16.821   4.972  0.00  0.00     0.012 A 
HETATM   46  C   UNK N   1      19.645  17.217   3.098  0.00  0.00     0.047 A 
HETATM   47  C   UNK N   1      33.776  14.419   4.937  0.00  0.00    -0.025 C 
HETATM   48  C   UNK N   1      24.291  18.678   4.706  0.00  0.00     0.076 A 
HETATM   49  C   UNK N   1      25.545  18.179   5.101  0.00  0.00     0.038 A 
HETATM   50  C   UNK N   1      34.040  13.336   5.788  0.00  0.00     0.036 C 
HETATM   51  C   UNK N   1      32.772  14.338   3.987  0.00  0.00     0.012 C 
HETATM   52  C   UNK N   1      34.410  15.732   5.185  0.00  0.00     0.183 C 
HETATM   53  C   UNK N   1      21.477  19.334   3.246  0.00  0.00     0.080 A 
HETATM   54  C   UNK N   1      33.422  16.642   5.961  0.00  0.00     0.210 C 
HETATM   55  C   UNK N   1      19.294  18.478   2.644  0.00  0.00     0.069 A 
HETATM   56  C   UNK N   1      32.104  17.018   5.320  0.00  0.00     0.244 C 
HETATM   57  C   UNK N   1      20.199  19.525   2.725  0.00  0.00     0.074 A 
HETATM   58  H   UNK N   1      22.900  13.693   5.000  0.00  0.00     0.163 HD
HETATM   59  H   UNK N   1      19.323  14.854   3.548  0.00  0.00     0.163 HD
HETATM   60  H   UNK N   1      25.510  15.304   2.012  0.00  0.00     0.163 HD
HETATM   61  H   UNK N   1      28.133  15.236   5.624  0.00  0.00     0.163 HD
HETATM   62  H   UNK N   1      31.137  17.059   7.084  0.00  0.00     0.163 HD
ENDROOT
BRANCH  15  63
HETATM   63  O   UNK N   1      29.791   9.245   3.406  0.00  0.00    -0.312 OA
BRANCH  63  64
HETATM   64  C   UNK N   1      30.727   8.927   2.427  0.00  0.00     0.298 C 
HETATM   65  O   UNK N   1      31.619   9.986   2.161  0.00  0.00    -0.348 OA
HETATM   66  C   UNK N   1      32.377   9.693   1.000  0.00  0.00     0.179 C 
HETATM   67  C   UNK N   1      33.159   8.357   1.129  0.00  0.00     0.180 C 
HETATM   68  C   UNK N   1      32.261   7.198   1.530  0.00  0.00     0.183 C 
HETATM   69  C   UNK N   1      31.500   7.620   2.769  0.00  0.00     0.211 C 
BRANCH  66  70
HETATM   70  C   UNK N   1      33.370  10.840   0.827  0.00  0.00     0.198 C 
BRANCH  70  71
HETATM   71  O   UNK N   1      34.072  11.098   2.007  0.00  0.00    -0.398 OA
HETATM   72  H   UNK N   1      34.730  11.809   2.047  0.00  0.00     0.209 HD
ENDBRANCH  70  71
ENDBRANCH  66  70
BRANCH  67  73
HETATM   73  O   UNK N   1      33.812   8.033  -0.061  0.00  0.00    -0.390 OA
HETATM   74  H   UNK N   1      33.648   7.186  -0.506  0.00  0.00     0.210 HD
ENDBRANCH  67  73
BRANCH  68  75
HETATM   75  O   UNK N   1      31.371   6.897   0.493  0.00  0.00    -0.390 OA
HETATM   76  H   UNK N   1      30.561   7.396   0.304  0.00  0.00     0.210 HD
ENDBRANCH  68  75
BRANCH  69  77
HETATM   77  O   UNK N   1      30.761   6.546   3.322  0.00  0.00    -0.348 OA
BRANCH  77  78
HETATM   78  C   UNK N   1      30.775   6.689   4.705  0.00  0.00     0.263 C 
HETATM   79  O   UNK N   1      30.101   5.698   5.416  0.00  0.00    -0.354 OA
HETATM   80  C   UNK N   1      29.624   6.445   6.502  0.00  0.00     0.151 C 
HETATM   81  C   UNK N   1      30.761   6.929   7.426  0.00  0.00     0.174 C 
HETATM   82  C   UNK N   1      28.495   5.756   7.234  0.00  0.00     0.042 C 
HETATM   83  C   UNK N   1      32.172   6.770   6.753  0.00  0.00     0.055 C 
HETATM   84  C   UNK N   1      32.131   7.050   5.272  0.00  0.00     0.093 C 
HETATM   85  C   UNK N   1      32.631   5.315   6.803  0.00  0.00     0.041 C 
BRANCH  81  86
HETATM   86  O   UNK N   1      30.500   8.254   7.785  0.00  0.00    -0.391 OA
HETATM   87  H   UNK N   1      30.614   9.164   8.100  0.00  0.00     0.210 HD
ENDBRANCH  81  86
BRANCH  83  88
HETATM   88  N   UNK N   1      33.196   7.654   7.335  0.00  0.00    -0.406 N 
HETATM   89  H   UNK N   1      33.411   8.566   6.933  0.00  0.00     0.154 HD
BRANCH  88  90
HETATM   90  C   UNK N   1      33.885   7.153   8.516  0.00  0.00     0.153 C 
BRANCH  90  91
HETATM   91  C   UNK N   1      34.129   8.246   9.466  0.00  0.00    -0.041 C 
HETATM   92  C   UNK N   1      33.149   8.662  10.370  0.00  0.00     0.009 C 
HETATM   93  C   UNK N   1      33.453   9.681  11.270  0.00  0.00     0.013 C 
HETATM   94  C   UNK N   1      34.704  10.326  11.205  0.00  0.00    -0.026 C 
HETATM   95  C   UNK N   1      35.606   9.977  10.197  0.00  0.00     0.013 C 
HETATM   96  C   UNK N   1      35.327   8.937   9.351  0.00  0.00     0.009 C 
BRANCH  94  97
HETATM   97  C   UNK N   1      35.321  10.832  12.433  0.00  0.00    -0.026 A 
HETATM   98  C   UNK N   1      36.658  11.240  12.338  0.00  0.00     0.014 A 
HETATM   99  C   UNK N   1      37.112  12.316  13.095  0.00  0.00     0.024 A 
HETATM  100  C   UNK N   1      36.232  12.984  13.950  0.00  0.00     0.034 A 
HETATM  101 Cl   UNK N   1      36.716  14.484  14.693  0.00  0.00    -0.084 Cl
HETATM  102  C   UNK N   1      34.935  12.511  14.139  0.00  0.00     0.024 A 
HETATM  103  C   UNK N   1      34.479  11.443  13.381  0.00  0.00     0.014 A 
ENDBRANCH  94  97
ENDBRANCH  90  91
ENDBRANCH  88  90
ENDBRANCH  83  88
ENDBRANCH  77  78
ENDBRANCH  69  77
ENDBRANCH  63  64
ENDBRANCH  15  63
BRANCH  16 104
HETATM  104  O   UNK N   1      20.809  10.327   4.104  0.00  0.00    -0.349 OA
BRANCH 104 105
HETATM  105  C   UNK N   1      20.241  10.020   5.364  0.00  0.00     0.263 C 
HETATM  106  O   UNK N   1      21.060   9.116   6.076  0.00  0.00    -0.354 OA
HETATM  107  C   UNK N   1      21.255   7.978   5.264  0.00  0.00     0.151 C 
HETATM  108  C   UNK N   1      19.958   7.165   5.190  0.00  0.00     0.174 C 
HETATM  109  C   UNK N   1      22.418   7.161   5.789  0.00  0.00     0.042 C 
HETATM  110  C   UNK N   1      18.852   8.044   4.566  0.00  0.00     0.052 C 
HETATM  111  C   UNK N   1      18.821   9.428   5.235  0.00  0.00     0.093 C 
HETATM  112  C   UNK N   1      19.098   8.214   3.075  0.00  0.00     0.041 C 
BRANCH 108 113
HETATM  113  O   UNK N   1      19.596   6.755   6.478  0.00  0.00    -0.391 OA
HETATM  114  H   UNK N   1      18.982   6.342   7.106  0.00  0.00     0.210 HD
ENDBRANCH 108 113
BRANCH 110 115
HETATM  115  N   UNK N   1      17.562   7.397   4.734  0.00  0.00    -0.420 N 
HETATM  116  H   UNK N   1      17.327   6.550   4.217  0.00  0.00     0.150 HD
HETATM  117  H   UNK N   1      16.881   7.795   5.381  0.00  0.00     0.150 HD
ENDBRANCH 110 115
ENDBRANCH 104 105
ENDBRANCH  16 104
BRANCH  42 118
HETATM  118  C   UNK N   1      29.193  18.890   5.713  0.00  0.00     0.137 C 
BRANCH 118 119
HETATM  119  C   UNK N   1      28.268  19.266   6.840  0.00  0.00     0.217 C 
HETATM  120  O   UNK N   1      27.749  20.371   6.872  0.00  0.00    -0.274 OA
HETATM  121  N   UNK N   1      27.944  18.353   7.774  0.00  0.00    -0.370 N 
HETATM  122  H   UNK N   1      27.014  18.127   8.002  0.00  0.00     0.159 HD
HETATM  123  H   UNK N   1      28.671  17.890   8.250  0.00  0.00     0.159 HD
ENDBRANCH 118 119
ENDBRANCH  42 118
BRANCH  52 124
HETATM  124  O   UNK N   1      35.570  15.544   5.940  0.00  0.00    -0.388 OA
HETATM  125  H   UNK N   1      35.705  14.916   6.668  0.00  0.00     0.210 HD
ENDBRANCH  52 124
BRANCH  54 126
HETATM  126  N   UNK N   1      34.025  17.790   6.593  0.00  0.00    -0.343 N 
HETATM  127  C   UNK N   1      34.218  17.936   7.930  0.00  0.00     0.240 C 
HETATM  128  O   UNK N   1      34.838  18.910   8.324  0.00  0.00    -0.271 OA
HETATM  129  H   UNK N   1      34.319  18.527   6.010  0.00  0.00     0.163 HD
BRANCH 127 130
HETATM  130  C   UNK N   1      33.698  16.928   8.940  0.00  0.00     0.169 C 
BRANCH 130 131
HETATM  131  N   UNK N   1      32.245  16.911   8.997  0.00  0.00    -0.413 N 
HETATM  132  C   UNK N   1      31.847  15.515   9.052  0.00  0.00     0.140 C 
HETATM  133  H   UNK N   1      31.626  17.722   8.999  0.00  0.00     0.153 HD
ENDBRANCH 130 131
BRANCH 130 134
HETATM  134  C   UNK N   1      34.234  15.503   8.736  0.00  0.00     0.038 C 
BRANCH 134 135
HETATM  135  C   UNK N   1      35.292  14.973   9.713  0.00  0.00    -0.020 C 
HETATM  136  C   UNK N   1      35.742  13.616   9.206  0.00  0.00     0.009 C 
HETATM  137  C   UNK N   1      34.778  14.778  11.129  0.00  0.00     0.009 C 
ENDBRANCH 134 135
ENDBRANCH 130 134
ENDBRANCH 127 130
ENDBRANCH  54 126
BRANCH  34 138
HETATM  138  C   UNK N   1      21.110  15.502   5.699  0.00  0.00     0.168 C 
HETATM  139  O   UNK N   1      20.344  16.225   6.316  0.00  0.00    -0.648 OA
BRANCH 138 140
HETATM  140  O   UNK N   1      21.876  14.620   6.369  0.00  0.00    -0.775 OA
HETATM  141  H   UNK N   1      22.116  14.627   7.275  0.00  0.00     0.167 HD
ENDBRANCH 138 140
ENDBRANCH  34 138
BRANCH  48 142
HETATM  142  O   UNK N   1      24.089  19.997   4.815  0.00  0.00    -0.360 OA
HETATM  143  H   UNK N   1      23.300  20.320   5.204  0.00  0.00     0.217 HD
ENDBRANCH  48 142
BRANCH  53 144
HETATM  144  O   UNK N   1      22.306  20.385   3.227  0.00  0.00    -0.360 OA
HETATM  145  H   UNK N   1      22.864  20.535   2.489  0.00  0.00     0.217 HD
ENDBRANCH  53 144
BRANCH  55 146
HETATM  146  O   UNK N   1      18.075  18.686   2.127  0.00  0.00    -0.361 OA
HETATM  147  H   UNK N   1      17.397  19.147   2.581  0.00  0.00     0.217 HD
ENDBRANCH  55 146
TORSDOF 30
ENDMDL
MODEL 3
REMARK VINA RESULT:      -9.2      3.198      6.825
REMARK  30 active torsions:
REMARK  status: ('A' for Active; 'I' for Inactive)
REMARK    1  A    between atoms: C_43  and  O_5 
REMARK    2  A    between atoms: C_46  and  O_5 
REMARK    3  A    between atoms: C_41  and  O_6 
REMARK    4  A    between atoms: C_47  and  O_8 
REMARK    5  A    between atoms: C_48  and  O_9 
REMARK    6  A    between atoms: O_9  and  C_61 
REMARK    7  A    between atoms: C_50  and  O_10 
REMARK    8  A    between atoms: C_59  and  O_12 
REMARK    9  A    between atoms: C_65  and  O_12 
REMARK   10  A    between atoms: C_54  and  O_13 
REMARK   11  A    between atoms: O_14  and  C_55 
REMARK   12  A    between atoms: O_21  and  C_103 
REMARK   13  A    between atoms: O_23  and  C_107 
REMARK   14  A    between atoms: C_111  and  O_24 
REMARK   15  A    between atoms: O_25  and  C_112 
REMARK   16  A    between atoms: O_26  and  C_115 
REMARK   17  A    between atoms: C_40  and  N_30 
REMARK   18  A    between atoms: N_30  and  C_52 
REMARK   19  A    between atoms: C_53  and  N_31 
REMARK   20  A    between atoms: C_113  and  N_37 
REMARK       I    between atoms: N_37  and  C_119 
REMARK       I    between atoms: N_38  and  C_118 
REMARK   21  A    between atoms: C_120  and  N_39 
REMARK   22  A    between atoms: C_51  and  C_55 
REMARK   23  A    between atoms: C_52  and  C_56 
REMARK   24  A    between atoms: C_71  and  C_78 
REMARK   25  A    between atoms: C_87  and  C_103 
REMARK   26  A    between atoms: C_99  and  C_114 
REMARK   27  A    between atoms: C_114  and  C_118 
REMARK   28  A    between atoms: C_119  and  C_120 
REMARK   29  A    between atoms: C_120  and  C_121 
REMARK   30  A    between atoms: C_121  and  C_122 
ROOT
HETATM    1 Cl   UNK N   1      25.127   9.622   0.237  0.00  0.00    -0.081 Cl
HETATM    2 Cl   UNK N   1      33.446  10.946   6.802  0.00  0.00    -0.081 Cl
HETATM    3  O   UNK N   1      27.123   9.982   2.496  0.00  0.00    -0.306 OA
HETATM    4  O   UNK N   1      31.171  11.213   4.828  0.00  0.00    -0.306 OA
HETATM    5  O   UNK N   1      19.545  12.595   2.749  0.00  0.00    -0.271 OA
HETATM    6  O   UNK N   1      24.080  13.477   2.009  0.00  0.00    -0.271 OA
HETATM    7  O   UNK N   1      27.725  15.335   1.405  0.00  0.00    -0.271 OA
HETATM    8  O   UNK N   1      29.489  16.910   3.315  0.00  0.00    -0.271 OA
HETATM    9  O   UNK N   1      31.950  17.261   4.071  0.00  0.00    -0.271 OA
HETATM   10  N   UNK N   1      22.903  13.404   3.903  0.00  0.00    -0.343 N 
HETATM   11  N   UNK N   1      20.174  14.553   3.523  0.00  0.00    -0.341 N 
HETATM   12  N   UNK N   1      25.958  15.007   2.662  0.00  0.00    -0.342 N 
HETATM   13  N   UNK N   1      28.420  15.456   4.641  0.00  0.00    -0.342 N 
HETATM   14  N   UNK N   1      30.891  17.178   6.059  0.00  0.00    -0.345 N 
HETATM   15  C   UNK N   1      29.229  10.499   3.578  0.00  0.00     0.139 C 
HETATM   16  C   UNK N   1      21.879  11.175   4.013  0.00  0.00     0.189 C 
HETATM   17  C   UNK N   1      21.835  12.575   3.312  0.00  0.00     0.210 C 
HETATM   18  C   UNK N   1      27.955  10.874   3.091  0.00  0.00     0.113 C 
HETATM   19  C   UNK N   1      29.915  11.442   4.374  0.00  0.00     0.113 C 
HETATM   20  C   UNK N   1      23.187  10.517   3.668  0.00  0.00    -0.025 A 
HETATM   21  C   UNK N   1      27.512  12.192   3.223  0.00  0.00     0.050 C 
HETATM   22  C   UNK N   1      28.245  13.110   3.940  0.00  0.00    -0.021 C 
HETATM   23  C   UNK N   1      29.377  12.699   4.581  0.00  0.00     0.050 C 
HETATM   24  C   UNK N   1      20.453  13.253   3.219  0.00  0.00     0.244 C 
HETATM   25  C   UNK N   1      28.249  14.536   3.541  0.00  0.00     0.210 C 
HETATM   26  C   UNK N   1      23.482  10.190   2.330  0.00  0.00     0.036 A 
HETATM   27  C   UNK N   1      24.193  10.515   4.621  0.00  0.00     0.012 A 
HETATM   28  C   UNK N   1      25.815  10.031   2.872  0.00  0.00     0.098 A 
HETATM   29  C   UNK N   1      24.788   9.924   1.930  0.00  0.00     0.068 A 
HETATM   30  C   UNK N   1      25.496  10.267   4.227  0.00  0.00     0.040 A 
HETATM   31  C   UNK N   1      24.003  13.790   3.190  0.00  0.00     0.245 C 
HETATM   32  C   UNK N   1      25.160  14.623   3.801  0.00  0.00     0.210 C 
HETATM   33  C   UNK N   1      27.284  14.976   2.485  0.00  0.00     0.246 C 
HETATM   34  C   UNK N   1      21.083  15.543   4.042  0.00  0.00     0.217 C 
HETATM   35  C   UNK N   1      32.086  12.213   4.775  0.00  0.00     0.098 C 
HETATM   36  C   UNK N   1      24.781  15.960   4.349  0.00  0.00    -0.025 A 
HETATM   37  C   UNK N   1      20.822  16.967   3.499  0.00  0.00    -0.009 A 
HETATM   38  C   UNK N   1      29.113  16.606   4.440  0.00  0.00     0.241 C 
HETATM   39  C   UNK N   1      23.569  16.459   3.995  0.00  0.00     0.025 A 
HETATM   40  C   UNK N   1      21.788  18.057   3.598  0.00  0.00     0.019 A 
HETATM   41  C   UNK N   1      23.192  17.777   4.112  0.00  0.00     0.011 A 
HETATM   42  C   UNK N   1      29.532  17.443   5.600  0.00  0.00     0.185 C 
HETATM   43  C   UNK N   1      33.160  12.240   5.663  0.00  0.00     0.068 C 
HETATM   44  C   UNK N   1      31.918  13.269   3.855  0.00  0.00     0.040 C 
HETATM   45  C   UNK N   1      25.744  16.833   4.869  0.00  0.00     0.012 A 
HETATM   46  C   UNK N   1      19.562  17.217   2.946  0.00  0.00     0.047 A 
HETATM   47  C   UNK N   1      33.690  14.472   4.879  0.00  0.00    -0.025 C 
HETATM   48  C   UNK N   1      24.187  18.685   4.608  0.00  0.00     0.076 A 
HETATM   49  C   UNK N   1      25.440  18.188   5.009  0.00  0.00     0.038 A 
HETATM   50  C   UNK N   1      33.953  13.381   5.721  0.00  0.00     0.036 C 
HETATM   51  C   UNK N   1      32.696  14.395   3.919  0.00  0.00     0.012 C 
HETATM   52  C   UNK N   1      34.316  15.784   5.145  0.00  0.00     0.183 C 
HETATM   53  C   UNK N   1      21.382  19.342   3.131  0.00  0.00     0.080 A 
HETATM   54  C   UNK N   1      33.316  16.682   5.921  0.00  0.00     0.210 C 
HETATM   55  C   UNK N   1      19.209  18.481   2.501  0.00  0.00     0.069 A 
HETATM   56  C   UNK N   1      32.002  17.058   5.273  0.00  0.00     0.244 C 
HETATM   57  C   UNK N   1      20.108  19.531   2.601  0.00  0.00     0.074 A 
HETATM   58  H   UNK N   1      22.819  13.691   4.841  0.00  0.00     0.163 HD
HETATM   59  H   UNK N   1      19.248  14.848   3.370  0.00  0.00     0.163 HD
HETATM   60  H   UNK N   1      25.446  15.344   1.892  0.00  0.00     0.163 HD
HETATM   61  H   UNK N   1      28.038  15.253   5.525  0.00  0.00     0.163 HD
HETATM   62  H   UNK N   1      31.020  17.077   7.029  0.00  0.00     0.163 HD
ENDROOT
BRANCH  15  63
HETATM   63  O   UNK N   1      29.745   9.292   3.262  0.00  0.00    -0.312 OA
BRANCH  63  64
HETATM   64  C   UNK N   1      29.594   8.087   3.940  0.00  0.00     0.298 C 
HETATM   65  O   UNK N   1      28.341   7.974   4.578  0.00  0.00    -0.348 OA
HETATM   66  C   UNK N   1      28.345   6.851   5.444  0.00  0.00     0.179 C 
HETATM   67  C   UNK N   1      28.684   5.533   4.695  0.00  0.00     0.180 C 
HETATM   68  C   UNK N   1      29.971   5.637   3.892  0.00  0.00     0.183 C 
HETATM   69  C   UNK N   1      29.860   6.865   3.015  0.00  0.00     0.211 C 
BRANCH  66  70
HETATM   70  C   UNK N   1      26.938   6.747   6.029  0.00  0.00     0.198 C 
BRANCH  70  71
HETATM   71  O   UNK N   1      26.961   6.313   7.355  0.00  0.00    -0.398 OA
HETATM   72  H   UNK N   1      27.798   6.079   7.787  0.00  0.00     0.209 HD
ENDBRANCH  70  71
ENDBRANCH  66  70
BRANCH  67  73
HETATM   73  O   UNK N   1      28.788   4.458   5.579  0.00  0.00    -0.390 OA
HETATM   74  H   UNK N   1      28.014   4.136   6.067  0.00  0.00     0.210 HD
ENDBRANCH  67  73
BRANCH  68  75
HETATM   75  O   UNK N   1      31.067   5.755   4.754  0.00  0.00    -0.390 OA
HETATM   76  H   UNK N   1      31.341   5.075   5.390  0.00  0.00     0.210 HD
ENDBRANCH  68  75
BRANCH  69  77
HETATM   77  O   UNK N   1      30.939   6.956   2.101  0.00  0.00    -0.348 OA
BRANCH  77  78
HETATM   78  C   UNK N   1      30.405   7.054   0.822  0.00  0.00     0.263 C 
HETATM   79  O   UNK N   1      29.066   6.690   0.702  0.00  0.00    -0.354 OA
HETATM   80  C   UNK N   1      29.064   6.148  -0.591  0.00  0.00     0.151 C 
HETATM   81  C   UNK N   1      29.310   7.217  -1.676  0.00  0.00     0.174 C 
HETATM   82  C   UNK N   1      27.859   5.275  -0.857  0.00  0.00     0.042 C 
HETATM   83  C   UNK N   1      29.839   8.563  -1.063  0.00  0.00     0.055 C 
HETATM   84  C   UNK N   1      30.770   8.334   0.099  0.00  0.00     0.093 C 
HETATM   85  C   UNK N   1      28.697   9.349  -0.424  0.00  0.00     0.041 C 
BRANCH  81  86
HETATM   86  O   UNK N   1      30.196   6.688  -2.618  0.00  0.00    -0.391 OA
HETATM   87  H   UNK N   1      30.897   6.159  -3.030  0.00  0.00     0.210 HD
ENDBRANCH  81  86
BRANCH  83  88
HETATM   88  N   UNK N   1      30.558   9.402  -2.037  0.00  0.00    -0.406 N 
HETATM   89  H   UNK N   1      31.144   8.997  -2.767  0.00  0.00     0.154 HD
BRANCH  88  90
HETATM   90  C   UNK N   1      30.385  10.842  -1.901  0.00  0.00     0.153 C 
BRANCH  90  91
HETATM   91  C   UNK N   1      31.513  11.423  -1.161  0.00  0.00    -0.041 C 
HETATM   92  C   UNK N   1      31.391  11.801   0.178  0.00  0.00     0.009 C 
HETATM   93  C   UNK N   1      32.508  12.313   0.837  0.00  0.00     0.013 C 
HETATM   94  C   UNK N   1      33.709  12.515   0.129  0.00  0.00    -0.026 C 
HETATM   95  C   UNK N   1      33.751  12.256  -1.243  0.00  0.00     0.013 C 
HETATM   96  C   UNK N   1      32.671  11.699  -1.874  0.00  0.00     0.009 C 
BRANCH  94  97
HETATM   97  C   UNK N   1      34.991  12.363   0.822  0.00  0.00    -0.026 A 
HETATM   98  C   UNK N   1      35.531  13.521   1.397  0.00  0.00     0.014 A 
HETATM   99  C   UNK N   1      36.246  13.437   2.588  0.00  0.00     0.024 A 
HETATM  100  C   UNK N   1      36.425  12.197   3.205  0.00  0.00     0.034 A 
HETATM  101 Cl   UNK N   1      37.081  12.116   4.818  0.00  0.00    -0.084 Cl
HETATM  102  C   UNK N   1      35.994  11.028   2.579  0.00  0.00     0.024 A 
HETATM  103  C   UNK N   1      35.276  11.110   1.396  0.00  0.00     0.014 A 
ENDBRANCH  94  97
ENDBRANCH  90  91
ENDBRANCH  88  90
ENDBRANCH  83  88
ENDBRANCH  77  78
ENDBRANCH  69  77
ENDBRANCH  63  64
ENDBRANCH  15  63
BRANCH  16 104
HETATM  104  O   UNK N   1      20.753  10.323   3.894  0.00  0.00    -0.349 OA
BRANCH 104 105
HETATM  105  C   UNK N   1      20.122  10.073   5.136  0.00  0.00     0.263 C 
HETATM  106  O   UNK N   1      20.935   9.263   5.958  0.00  0.00    -0.354 OA
HETATM  107  C   UNK N   1      21.235   8.084   5.242  0.00  0.00     0.151 C 
HETATM  108  C   UNK N   1      19.984   7.202   5.148  0.00  0.00     0.174 C 
HETATM  109  C   UNK N   1      22.399   7.366   5.892  0.00  0.00     0.042 C 
HETATM  110  C   UNK N   1      18.880   7.979   4.399  0.00  0.00     0.052 C 
HETATM  111  C   UNK N   1      18.742   9.402   4.965  0.00  0.00     0.093 C 
HETATM  112  C   UNK N   1      19.211   8.060   2.916  0.00  0.00     0.041 C 
BRANCH 108 113
HETATM  113  O   UNK N   1      19.562   6.863   6.438  0.00  0.00    -0.391 OA
HETATM  114  H   UNK N   1      19.578   6.294   7.224  0.00  0.00     0.210 HD
ENDBRANCH 108 113
BRANCH 110 115
HETATM  115  N   UNK N   1      17.614   7.279   4.535  0.00  0.00    -0.420 N 
HETATM  116  H   UNK N   1      16.728   7.783   4.499  0.00  0.00     0.150 HD
HETATM  117  H   UNK N   1      17.611   6.268   4.667  0.00  0.00     0.150 HD
ENDBRANCH 110 115
ENDBRANCH 104 105
ENDBRANCH  16 104
BRANCH  42 118
HETATM  118  C   UNK N   1      29.079  18.911   5.659  0.00  0.00     0.137 C 
BRANCH 118 119
HETATM  119  C   UNK N   1      28.144  19.272   6.783  0.00  0.00     0.217 C 
HETATM  120  O   UNK N   1      27.610  20.370   6.816  0.00  0.00    -0.274 OA
HETATM  121  N   UNK N   1      27.827  18.352   7.712  0.00  0.00    -0.370 N 
HETATM  122  H   UNK N   1      26.898  18.113   7.935  0.00  0.00     0.159 HD
HETATM  123  H   UNK N   1      28.557  17.896   8.191  0.00  0.00     0.159 HD
ENDBRANCH 118 119
ENDBRANCH  42 118
BRANCH  52 124
HETATM  124  O   UNK N   1      35.470  15.595   5.908  0.00  0.00    -0.388 OA
HETATM  125  H   UNK N   1      36.213  15.000   5.718  0.00  0.00     0.210 HD
ENDBRANCH  52 124
BRANCH  54 126
HETATM  126  N   UNK N   1      33.908  17.827   6.570  0.00  0.00    -0.343 N 
HETATM  127  C   UNK N   1      34.121  17.946   7.906  0.00  0.00     0.240 C 
HETATM  128  O   UNK N   1      34.729  18.922   8.313  0.00  0.00    -0.271 OA
HETATM  129  H   UNK N   1      34.179  18.583   5.999  0.00  0.00     0.163 HD
BRANCH 127 130
HETATM  130  C   UNK N   1      33.636  16.905   8.902  0.00  0.00     0.169 C 
BRANCH 130 131
HETATM  131  N   UNK N   1      32.194  16.729   8.849  0.00  0.00    -0.413 N 
HETATM  132  C   UNK N   1      31.940  15.314   9.063  0.00  0.00     0.140 C 
HETATM  133  H   UNK N   1      31.496  17.457   8.694  0.00  0.00     0.153 HD
ENDBRANCH 130 131
BRANCH 130 134
HETATM  134  C   UNK N   1      34.339  15.545   8.778  0.00  0.00     0.038 C 
BRANCH 134 135
HETATM  135  C   UNK N   1      35.511  15.239   9.718  0.00  0.00    -0.020 C 
HETATM  136  C   UNK N   1      35.274  13.864  10.311  0.00  0.00     0.009 C 
HETATM  137  C   UNK N   1      35.642  16.213  10.876  0.00  0.00     0.009 C 
ENDBRANCH 134 135
ENDBRANCH 130 134
ENDBRANCH 127 130
ENDBRANCH  54 126
BRANCH  34 138
HETATM  138  C   UNK N   1      21.013  15.484   5.543  0.00  0.00     0.168 C 
HETATM  139  O   UNK N   1      20.239  16.196   6.160  0.00  0.00    -0.648 OA
BRANCH 138 140
HETATM  140  O   UNK N   1      21.778  14.599   6.210  0.00  0.00    -0.775 OA
HETATM  141  H   UNK N   1      22.579  14.199   5.935  0.00  0.00     0.167 HD
ENDBRANCH 138 140
ENDBRANCH  34 138
BRANCH  48 142
HETATM  142  O   UNK N   1      23.977  20.002   4.728  0.00  0.00    -0.360 OA
HETATM  143  H   UNK N   1      23.471  20.457   4.085  0.00  0.00     0.217 HD
ENDBRANCH  48 142
BRANCH  53 144
HETATM  144  O   UNK N   1      22.206  20.397   3.129  0.00  0.00    -0.360 OA
HETATM  145  H   UNK N   1      22.264  20.954   3.882  0.00  0.00     0.217 HD
ENDBRANCH  53 144
BRANCH  55 146
HETATM  146  O   UNK N   1      17.993  18.688   1.976  0.00  0.00    -0.361 OA
HETATM  147  H   UNK N   1      17.689  18.258   1.200  0.00  0.00     0.217 HD
ENDBRANCH  55 146
TORSDOF 30
ENDMDL
MODEL 4
REMARK VINA RESULT:      -9.2      3.060      6.638
REMARK  30 active torsions:
REMARK  status: ('A' for Active; 'I' for Inactive)
REMARK    1  A    between atoms: C_43  and  O_5 
REMARK    2  A    between atoms: C_46  and  O_5 
REMARK    3  A    between atoms: C_41  and  O_6 
REMARK    4  A    between atoms: C_47  and  O_8 
REMARK    5  A    between atoms: C_48  and  O_9 
REMARK    6  A    between atoms: O_9  and  C_61 
REMARK    7  A    between atoms: C_50  and  O_10 
REMARK    8  A    between atoms: C_59  and  O_12 
REMARK    9  A    between atoms: C_65  and  O_12 
REMARK   10  A    between atoms: C_54  and  O_13 
REMARK   11  A    between atoms: O_14  and  C_55 
REMARK   12  A    between atoms: O_21  and  C_103 
REMARK   13  A    between atoms: O_23  and  C_107 
REMARK   14  A    between atoms: C_111  and  O_24 
REMARK   15  A    between atoms: O_25  and  C_112 
REMARK   16  A    between atoms: O_26  and  C_115 
REMARK   17  A    between atoms: C_40  and  N_30 
REMARK   18  A    between atoms: N_30  and  C_52 
REMARK   19  A    between atoms: C_53  and  N_31 
REMARK   20  A    between atoms: C_113  and  N_37 
REMARK       I    between atoms: N_37  and  C_119 
REMARK       I    between atoms: N_38  and  C_118 
REMARK   21  A    between atoms: C_120  and  N_39 
REMARK   22  A    between atoms: C_51  and  C_55 
REMARK   23  A    between atoms: C_52  and  C_56 
REMARK   24  A    between atoms: C_71  and  C_78 
REMARK   25  A    between atoms: C_87  and  C_103 
REMARK   26  A    between atoms: C_99  and  C_114 
REMARK   27  A    between atoms: C_114  and  C_118 
REMARK   28  A    between atoms: C_119  and  C_120 
REMARK   29  A    between atoms: C_120  and  C_121 
REMARK   30  A    between atoms: C_121  and  C_122 
ROOT
HETATM    1 Cl   UNK N   1      25.142   9.577   0.444  0.00  0.00    -0.081 Cl
HETATM    2 Cl   UNK N   1      33.443  11.058   6.999  0.00  0.00    -0.081 Cl
HETATM    3  O   UNK N   1      27.132   9.992   2.700  0.00  0.00    -0.306 OA
HETATM    4  O   UNK N   1      31.174  11.277   5.013  0.00  0.00    -0.306 OA
HETATM    5  O   UNK N   1      19.555  12.615   2.866  0.00  0.00    -0.271 OA
HETATM    6  O   UNK N   1      24.093  13.476   2.117  0.00  0.00    -0.271 OA
HETATM    7  O   UNK N   1      27.742  15.315   1.479  0.00  0.00    -0.271 OA
HETATM    8  O   UNK N   1      29.501  16.937   3.355  0.00  0.00    -0.271 OA
HETATM    9  O   UNK N   1      31.959  17.305   4.108  0.00  0.00    -0.271 OA
HETATM   10  N   UNK N   1      22.910  13.451   4.009  0.00  0.00    -0.343 N 
HETATM   11  N   UNK N   1      20.184  14.592   3.593  0.00  0.00    -0.341 N 
HETATM   12  N   UNK N   1      25.970  15.020   2.738  0.00  0.00    -0.342 N 
HETATM   13  N   UNK N   1      28.427  15.516   4.713  0.00  0.00    -0.342 N 
HETATM   14  N   UNK N   1      30.894  17.272   6.095  0.00  0.00    -0.345 N 
HETATM   15  C   UNK N   1      29.236  10.534   3.775  0.00  0.00     0.139 C 
HETATM   16  C   UNK N   1      21.884  11.226   4.171  0.00  0.00     0.189 C 
HETATM   17  C   UNK N   1      21.843  12.608   3.435  0.00  0.00     0.210 C 
HETATM   18  C   UNK N   1      27.963  10.898   3.275  0.00  0.00     0.113 C 
HETATM   19  C   UNK N   1      29.920  11.496   4.549  0.00  0.00     0.113 C 
HETATM   20  C   UNK N   1      23.193  10.558   3.847  0.00  0.00    -0.025 A 
HETATM   21  C   UNK N   1      27.520  12.219   3.373  0.00  0.00     0.050 C 
HETATM   22  C   UNK N   1      28.252  13.153   4.069  0.00  0.00    -0.021 C 
HETATM   23  C   UNK N   1      29.382  12.758   4.724  0.00  0.00     0.050 C 
HETATM   24  C   UNK N   1      20.462  13.284   3.322  0.00  0.00     0.244 C 
HETATM   25  C   UNK N   1      28.258  14.569   3.636  0.00  0.00     0.210 C 
HETATM   26  C   UNK N   1      23.492  10.198   2.518  0.00  0.00     0.036 A 
HETATM   27  C   UNK N   1      24.196  10.579   4.803  0.00  0.00     0.012 A 
HETATM   28  C   UNK N   1      25.823  10.051   3.071  0.00  0.00     0.098 A 
HETATM   29  C   UNK N   1      24.799   9.922   2.129  0.00  0.00     0.068 A 
HETATM   30  C   UNK N   1      25.500  10.320   4.419  0.00  0.00     0.040 A 
HETATM   31  C   UNK N   1      24.013  13.817   3.290  0.00  0.00     0.245 C 
HETATM   32  C   UNK N   1      25.169  14.665   3.883  0.00  0.00     0.210 C 
HETATM   33  C   UNK N   1      27.297  14.984   2.566  0.00  0.00     0.246 C 
HETATM   34  C   UNK N   1      21.091  15.593   4.090  0.00  0.00     0.217 C 
HETATM   35  C   UNK N   1      32.090  12.276   4.938  0.00  0.00     0.098 C 
HETATM   36  C   UNK N   1      24.789  16.015   4.398  0.00  0.00    -0.025 A 
HETATM   37  C   UNK N   1      20.833  17.003   3.511  0.00  0.00    -0.009 A 
HETATM   38  C   UNK N   1      29.121  16.661   4.485  0.00  0.00     0.241 C 
HETATM   39  C   UNK N   1      23.579  16.506   4.028  0.00  0.00     0.025 A 
HETATM   40  C   UNK N   1      21.800  18.095   3.586  0.00  0.00     0.019 A 
HETATM   41  C   UNK N   1      23.201  17.827   4.111  0.00  0.00     0.011 A 
HETATM   42  C   UNK N   1      29.537  17.525   5.625  0.00  0.00     0.185 C 
HETATM   43  C   UNK N   1      33.161  12.324   5.828  0.00  0.00     0.068 C 
HETATM   44  C   UNK N   1      31.926  13.308   3.992  0.00  0.00     0.040 C 
HETATM   45  C   UNK N   1      25.751  16.901   4.898  0.00  0.00     0.012 A 
HETATM   46  C   UNK N   1      19.575  17.240   2.948  0.00  0.00     0.047 A 
HETATM   47  C   UNK N   1      33.696  14.535   4.990  0.00  0.00    -0.025 C 
HETATM   48  C   UNK N   1      24.196  18.746   4.587  0.00  0.00     0.076 A 
HETATM   49  C   UNK N   1      25.448  18.259   5.005  0.00  0.00     0.038 A 
HETATM   50  C   UNK N   1      33.955  13.465   5.860  0.00  0.00     0.036 C 
HETATM   51  C   UNK N   1      32.704  14.435   4.030  0.00  0.00     0.012 C 
HETATM   52  C   UNK N   1      34.322  15.853   5.225  0.00  0.00     0.183 C 
HETATM   53  C   UNK N   1      21.396  19.368   3.086  0.00  0.00     0.080 A 
HETATM   54  C   UNK N   1      33.320  16.770   5.976  0.00  0.00     0.210 C 
HETATM   55  C   UNK N   1      19.224  18.493   2.471  0.00  0.00     0.069 A 
HETATM   56  C   UNK N   1      32.008  17.131   5.316  0.00  0.00     0.244 C 
HETATM   57  C   UNK N   1      20.124  19.545   2.548  0.00  0.00     0.074 A 
HETATM   58  H   UNK N   1      22.823  13.760   4.940  0.00  0.00     0.163 HD
HETATM   59  H   UNK N   1      19.258  14.883   3.430  0.00  0.00     0.163 HD
HETATM   60  H   UNK N   1      25.460  15.338   1.958  0.00  0.00     0.163 HD
HETATM   61  H   UNK N   1      28.042  15.335   5.600  0.00  0.00     0.163 HD
HETATM   62  H   UNK N   1      31.021  17.194   7.067  0.00  0.00     0.163 HD
ENDROOT
BRANCH  15  63
HETATM   63  O   UNK N   1      29.751   9.320   3.490  0.00  0.00    -0.312 OA
BRANCH  63  64
HETATM   64  C   UNK N   1      29.305   8.073   3.918  0.00  0.00     0.298 C 
HETATM   65  O   UNK N   1      28.965   7.220   2.849  0.00  0.00    -0.348 OA
HETATM   66  C   UNK N   1      28.293   6.075   3.346  0.00  0.00     0.179 C 
HETATM   67  C   UNK N   1      29.142   5.304   4.393  0.00  0.00     0.180 C 
HETATM   68  C   UNK N   1      29.636   6.205   5.514  0.00  0.00     0.183 C 
HETATM   69  C   UNK N   1      30.326   7.389   4.872  0.00  0.00     0.211 C 
BRANCH  66  70
HETATM   70  C   UNK N   1      28.033   5.167   2.145  0.00  0.00     0.198 C 
BRANCH  70  71
HETATM   71  O   UNK N   1      28.947   4.112   2.088  0.00  0.00    -0.398 OA
HETATM   72  H   UNK N   1      29.899   4.275   2.187  0.00  0.00     0.209 HD
ENDBRANCH  70  71
ENDBRANCH  66  70
BRANCH  67  73
HETATM   73  O   UNK N   1      28.424   4.244   4.949  0.00  0.00    -0.390 OA
HETATM   74  H   UNK N   1      28.441   3.362   4.544  0.00  0.00     0.210 HD
ENDBRANCH  67  73
BRANCH  68  75
HETATM   75  O   UNK N   1      28.559   6.636   6.295  0.00  0.00    -0.390 OA
HETATM   76  H   UNK N   1      28.602   7.363   6.936  0.00  0.00     0.210 HD
ENDBRANCH  68  75
BRANCH  69  77
HETATM   77  O   UNK N   1      30.973   8.204   5.834  0.00  0.00    -0.348 OA
BRANCH  77  78
HETATM   78  C   UNK N   1      31.802   7.387   6.595  0.00  0.00     0.263 C 
HETATM   79  O   UNK N   1      32.858   6.797   5.904  0.00  0.00    -0.354 OA
HETATM   80  C   UNK N   1      32.961   5.579   6.590  0.00  0.00     0.151 C 
HETATM   81  C   UNK N   1      33.455   5.763   8.040  0.00  0.00     0.174 C 
HETATM   82  C   UNK N   1      33.727   4.533   5.813  0.00  0.00     0.042 C 
HETATM   83  C   UNK N   1      33.388   7.265   8.497  0.00  0.00     0.055 C 
HETATM   84  C   UNK N   1      32.187   7.978   7.934  0.00  0.00     0.093 C 
HETATM   85  C   UNK N   1      34.552   8.058   7.906  0.00  0.00     0.041 C 
BRANCH  81  86
HETATM   86  O   UNK N   1      32.697   4.931   8.870  0.00  0.00    -0.391 OA
HETATM   87  H   UNK N   1      32.425   4.368   9.611  0.00  0.00     0.210 HD
ENDBRANCH  81  86
BRANCH  83  88
HETATM   88  N   UNK N   1      33.346   7.426   9.960  0.00  0.00    -0.406 N 
HETATM   89  H   UNK N   1      33.671   6.695  10.592  0.00  0.00     0.154 HD
BRANCH  88  90
HETATM   90  C   UNK N   1      32.814   8.689  10.454  0.00  0.00     0.153 C 
BRANCH  90  91
HETATM   91  C   UNK N   1      33.847   9.420  11.199  0.00  0.00    -0.041 C 
HETATM   92  C   UNK N   1      34.114  10.768  10.945  0.00  0.00     0.009 C 
HETATM   93  C   UNK N   1      35.082  11.417  11.709  0.00  0.00     0.013 C 
HETATM   94  C   UNK N   1      35.825  10.694  12.663  0.00  0.00    -0.026 C 
HETATM   95  C   UNK N   1      35.627   9.317  12.790  0.00  0.00     0.013 C 
HETATM   96  C   UNK N   1      34.636   8.694  12.079  0.00  0.00     0.009 C 
BRANCH  94  97
HETATM   97  C   UNK N   1      36.282  11.363  13.883  0.00  0.00    -0.026 A 
HETATM   98  C   UNK N   1      36.217  12.763  13.890  0.00  0.00     0.014 A 
HETATM   99  C   UNK N   1      35.918  13.439  15.068  0.00  0.00     0.024 A 
HETATM  100  C   UNK N   1      35.686  12.720  16.243  0.00  0.00     0.034 A 
HETATM  101 Cl   UNK N   1      35.054  13.533  17.649  0.00  0.00    -0.084 Cl
HETATM  102  C   UNK N   1      35.865  11.338  16.271  0.00  0.00     0.024 A 
HETATM  103  C   UNK N   1      36.157  10.661  15.097  0.00  0.00     0.014 A 
ENDBRANCH  94  97
ENDBRANCH  90  91
ENDBRANCH  88  90
ENDBRANCH  83  88
ENDBRANCH  77  78
ENDBRANCH  69  77
ENDBRANCH  63  64
ENDBRANCH  15  63
BRANCH  16 104
HETATM  104  O   UNK N   1      20.758  10.372   4.070  0.00  0.00    -0.349 OA
BRANCH 104 105
HETATM  105  C   UNK N   1      20.195  10.056   5.330  0.00  0.00     0.263 C 
HETATM  106  O   UNK N   1      21.023   9.159   6.039  0.00  0.00    -0.354 OA
HETATM  107  C   UNK N   1      21.227   8.024   5.224  0.00  0.00     0.151 C 
HETATM  108  C   UNK N   1      19.937   7.199   5.150  0.00  0.00     0.174 C 
HETATM  109  C   UNK N   1      22.398   7.217   5.745  0.00  0.00     0.042 C 
HETATM  110  C   UNK N   1      18.823   8.070   4.530  0.00  0.00     0.052 C 
HETATM  111  C   UNK N   1      18.780   9.452   5.202  0.00  0.00     0.093 C 
HETATM  112  C   UNK N   1      19.064   8.246   3.039  0.00  0.00     0.041 C 
BRANCH 108 113
HETATM  113  O   UNK N   1      19.581   6.783   6.437  0.00  0.00    -0.391 OA
HETATM  114  H   UNK N   1      19.130   6.181   7.050  0.00  0.00     0.210 HD
ENDBRANCH 108 113
BRANCH 110 115
HETATM  115  N   UNK N   1      17.539   7.410   4.699  0.00  0.00    -0.420 N 
HETATM  116  H   UNK N   1      17.047   7.005   3.903  0.00  0.00     0.150 HD
HETATM  117  H   UNK N   1      17.123   7.351   5.628  0.00  0.00     0.150 HD
ENDBRANCH 110 115
ENDBRANCH 104 105
ENDBRANCH  16 104
BRANCH  42 118
HETATM  118  C   UNK N   1      29.085  18.995   5.647  0.00  0.00     0.137 C 
BRANCH 118 119
HETATM  119  C   UNK N   1      28.165  19.389   6.772  0.00  0.00     0.217 C 
HETATM  120  O   UNK N   1      27.660  20.502   6.798  0.00  0.00    -0.274 OA
HETATM  121  N   UNK N   1      27.828  18.485   7.710  0.00  0.00    -0.370 N 
HETATM  122  H   UNK N   1      26.894  18.274   7.939  0.00  0.00     0.159 HD
HETATM  123  H   UNK N   1      28.548  18.015   8.189  0.00  0.00     0.159 HD
ENDBRANCH 118 119
ENDBRANCH  42 118
BRANCH  52 124
HETATM  124  O   UNK N   1      35.473  15.682   5.997  0.00  0.00    -0.388 OA
HETATM  125  H   UNK N   1      35.810  14.856   6.380  0.00  0.00     0.210 HD
ENDBRANCH  52 124
BRANCH  54 126
HETATM  126  N   UNK N   1      33.911  17.930   6.599  0.00  0.00    -0.343 N 
HETATM  127  C   UNK N   1      34.137  18.075   7.930  0.00  0.00     0.240 C 
HETATM  128  O   UNK N   1      34.742  19.063   8.313  0.00  0.00    -0.271 OA
HETATM  129  H   UNK N   1      34.172  18.678   6.012  0.00  0.00     0.163 HD
BRANCH 127 130
HETATM  130  C   UNK N   1      33.668  17.050   8.949  0.00  0.00     0.169 C 
BRANCH 130 131
HETATM  131  N   UNK N   1      32.221  16.913   8.961  0.00  0.00    -0.413 N 
HETATM  132  C   UNK N   1      31.939  15.490   9.061  0.00  0.00     0.140 C 
HETATM  133  H   UNK N   1      31.537  17.668   8.911  0.00  0.00     0.153 HD
ENDBRANCH 130 131
BRANCH 130 134
HETATM  134  C   UNK N   1      34.328  15.671   8.798  0.00  0.00     0.038 C 
BRANCH 134 135
HETATM  135  C   UNK N   1      35.495  15.312   9.726  0.00  0.00    -0.020 C 
HETATM  136  C   UNK N   1      36.071  13.994   9.247  0.00  0.00     0.009 C 
HETATM  137  C   UNK N   1      35.090  15.125  11.179  0.00  0.00     0.009 C 
ENDBRANCH 134 135
ENDBRANCH 130 134
ENDBRANCH 127 130
ENDBRANCH  54 126
BRANCH  34 138
HETATM  138  C   UNK N   1      21.017  15.571   5.592  0.00  0.00     0.168 C 
HETATM  139  O   UNK N   1      20.260  16.318   6.190  0.00  0.00    -0.648 OA
BRANCH 138 140
HETATM  140  O   UNK N   1      21.758  14.683   6.281  0.00  0.00    -0.775 OA
HETATM  141  H   UNK N   1      21.466  13.952   6.791  0.00  0.00     0.167 HD
ENDBRANCH 138 140
ENDBRANCH  34 138
BRANCH  48 142
HETATM  142  O   UNK N   1      23.987  20.066   4.675  0.00  0.00    -0.360 OA
HETATM  143  H   UNK N   1      24.714  20.657   4.685  0.00  0.00     0.217 HD
ENDBRANCH  48 142
BRANCH  53 144
HETATM  144  O   UNK N   1      22.221  20.422   3.061  0.00  0.00    -0.360 OA
HETATM  145  H   UNK N   1      22.539  20.756   2.244  0.00  0.00     0.217 HD
ENDBRANCH  53 144
BRANCH  55 146
HETATM  146  O   UNK N   1      18.009  18.688   1.937  0.00  0.00    -0.361 OA
HETATM  147  H   UNK N   1      17.605  18.081   1.349  0.00  0.00     0.217 HD
ENDBRANCH  55 146
TORSDOF 30
ENDMDL
MODEL 5
REMARK VINA RESULT:      -9.2      1.563      2.753
REMARK  30 active torsions:
REMARK  status: ('A' for Active; 'I' for Inactive)
REMARK    1  A    between atoms: C_43  and  O_5 
REMARK    2  A    between atoms: C_46  and  O_5 
REMARK    3  A    between atoms: C_41  and  O_6 
REMARK    4  A    between atoms: C_47  and  O_8 
REMARK    5  A    between atoms: C_48  and  O_9 
REMARK    6  A    between atoms: O_9  and  C_61 
REMARK    7  A    between atoms: C_50  and  O_10 
REMARK    8  A    between atoms: C_59  and  O_12 
REMARK    9  A    between atoms: C_65  and  O_12 
REMARK   10  A    between atoms: C_54  and  O_13 
REMARK   11  A    between atoms: O_14  and  C_55 
REMARK   12  A    between atoms: O_21  and  C_103 
REMARK   13  A    between atoms: O_23  and  C_107 
REMARK   14  A    between atoms: C_111  and  O_24 
REMARK   15  A    between atoms: O_25  and  C_112 
REMARK   16  A    between atoms: O_26  and  C_115 
REMARK   17  A    between atoms: C_40  and  N_30 
REMARK   18  A    between atoms: N_30  and  C_52 
REMARK   19  A    between atoms: C_53  and  N_31 
REMARK   20  A    between atoms: C_113  and  N_37 
REMARK       I    between atoms: N_37  and  C_119 
REMARK       I    between atoms: N_38  and  C_118 
REMARK   21  A    between atoms: C_120  and  N_39 
REMARK   22  A    between atoms: C_51  and  C_55 
REMARK   23  A    between atoms: C_52  and  C_56 
REMARK   24  A    between atoms: C_71  and  C_78 
REMARK   25  A    between atoms: C_87  and  C_103 
REMARK   26  A    between atoms: C_99  and  C_114 
REMARK   27  A    between atoms: C_114  and  C_118 
REMARK   28  A    between atoms: C_119  and  C_120 
REMARK   29  A    between atoms: C_120  and  C_121 
REMARK   30  A    between atoms: C_121  and  C_122 
ROOT
HETATM    1 Cl   UNK N   1      29.955  11.197  -0.643  0.00  0.00    -0.081 Cl
HETATM    2 Cl   UNK N   1      35.008   7.783   8.125  0.00  0.00    -0.081 Cl
HETATM    3  O   UNK N   1      30.898  10.195   2.064  0.00  0.00    -0.306 OA
HETATM    4  O   UNK N   1      33.795   9.339   5.833  0.00  0.00    -0.306 OA
HETATM    5  O   UNK N   1      24.365  14.721   0.985  0.00  0.00    -0.271 OA
HETATM    6  O   UNK N   1      28.890  14.399   2.134  0.00  0.00    -0.271 OA
HETATM    7  O   UNK N   1      32.707  15.175   3.524  0.00  0.00    -0.271 OA
HETATM    8  O   UNK N   1      33.769  15.446   6.359  0.00  0.00    -0.271 OA
HETATM    9  O   UNK N   1      35.736  14.783   7.921  0.00  0.00    -0.271 OA
HETATM   10  N   UNK N   1      27.052  14.073   3.356  0.00  0.00    -0.343 N 
HETATM   11  N   UNK N   1      24.923  16.042   2.651  0.00  0.00    -0.341 N 
HETATM   12  N   UNK N   1      30.555  15.001   3.911  0.00  0.00    -0.342 N 
HETATM   13  N   UNK N   1      32.045  14.031   6.560  0.00  0.00    -0.342 N 
HETATM   14  N   UNK N   1      33.965  14.382   9.256  0.00  0.00    -0.345 N 
HETATM   15  C   UNK N   1      32.440   9.681   3.862  0.00  0.00     0.139 C 
HETATM   16  C   UNK N   1      25.740  12.341   2.212  0.00  0.00     0.189 C 
HETATM   17  C   UNK N   1      26.200  13.838   2.175  0.00  0.00     0.210 C 
HETATM   18  C   UNK N   1      31.545  10.556   3.200  0.00  0.00     0.113 C 
HETATM   19  C   UNK N   1      32.882  10.066   5.146  0.00  0.00     0.113 C 
HETATM   20  C   UNK N   1      26.957  11.471   2.055  0.00  0.00    -0.025 A 
HETATM   21  C   UNK N   1      31.295  11.829   3.718  0.00  0.00     0.050 C 
HETATM   22  C   UNK N   1      31.808  12.202   4.939  0.00  0.00    -0.021 C 
HETATM   23  C   UNK N   1      32.506  11.288   5.672  0.00  0.00     0.050 C 
HETATM   24  C   UNK N   1      25.096  14.889   1.942  0.00  0.00     0.244 C 
HETATM   25  C   UNK N   1      32.193  13.611   5.186  0.00  0.00     0.210 C 
HETATM   26  C   UNK N   1      27.714  11.522   0.868  0.00  0.00     0.036 A 
HETATM   27  C   UNK N   1      27.479  10.861   3.185  0.00  0.00     0.012 A 
HETATM   28  C   UNK N   1      29.574  10.507   1.996  0.00  0.00     0.098 A 
HETATM   29  C   UNK N   1      29.012  11.022   0.825  0.00  0.00     0.068 A 
HETATM   30  C   UNK N   1      28.775  10.377   3.153  0.00  0.00     0.040 A 
HETATM   31  C   UNK N   1      28.392  14.321   3.250  0.00  0.00     0.245 C 
HETATM   32  C   UNK N   1      29.317  14.527   4.478  0.00  0.00     0.210 C 
HETATM   33  C   UNK N   1      31.818  14.635   4.162  0.00  0.00     0.246 C 
HETATM   34  C   UNK N   1      25.685  16.491   3.787  0.00  0.00     0.217 C 
HETATM   35  C   UNK N   1      34.796   9.981   6.487  0.00  0.00     0.098 C 
HETATM   36  C   UNK N   1      28.960  15.664   5.379  0.00  0.00    -0.025 A 
HETATM   37  C   UNK N   1      25.888  18.024   3.827  0.00  0.00    -0.009 A 
HETATM   38  C   UNK N   1      32.928  14.922   7.078  0.00  0.00     0.241 C 
HETATM   39  C   UNK N   1      28.087  16.588   4.902  0.00  0.00     0.025 A 
HETATM   40  C   UNK N   1      26.887  18.683   4.663  0.00  0.00     0.019 A 
HETATM   41  C   UNK N   1      27.902  17.846   5.427  0.00  0.00     0.011 A 
HETATM   42  C   UNK N   1      32.966  15.173   8.547  0.00  0.00     0.185 C 
HETATM   43  C   UNK N   1      35.410   9.398   7.593  0.00  0.00     0.068 C 
HETATM   44  C   UNK N   1      35.179  11.277   6.082  0.00  0.00     0.040 C 
HETATM   45  C   UNK N   1      29.752  15.993   6.485  0.00  0.00     0.012 A 
HETATM   46  C   UNK N   1      25.014  18.803   3.063  0.00  0.00     0.047 A 
HETATM   47  C   UNK N   1      36.549  11.497   8.008  0.00  0.00    -0.025 C 
HETATM   48  C   UNK N   1      28.740  18.204   6.537  0.00  0.00     0.076 A 
HETATM   49  C   UNK N   1      29.630  17.255   7.068  0.00  0.00     0.038 A 
HETATM   50  C   UNK N   1      36.277  10.167   8.361  0.00  0.00     0.036 C 
HETATM   51  C   UNK N   1      36.028  12.035   6.843  0.00  0.00     0.012 C 
HETATM   52  C   UNK N   1      37.209  12.403   8.972  0.00  0.00     0.183 C 
HETATM   53  C   UNK N   1      26.908  20.109   4.666  0.00  0.00     0.080 A 
HETATM   54  C   UNK N   1      36.132  13.257   9.693  0.00  0.00     0.210 C 
HETATM   55  C   UNK N   1      25.070  20.187   3.092  0.00  0.00     0.069 A 
HETATM   56  C   UNK N   1      35.266  14.196   8.882  0.00  0.00     0.244 C 
HETATM   57  C   UNK N   1      26.003  20.830   3.891  0.00  0.00     0.074 A 
HETATM   58  H   UNK N   1      26.641  14.052   4.251  0.00  0.00     0.163 HD
HETATM   59  H   UNK N   1      24.194  16.632   2.352  0.00  0.00     0.163 HD
HETATM   60  H   UNK N   1      30.457  15.706   3.230  0.00  0.00     0.163 HD
HETATM   61  H   UNK N   1      31.312  13.677   7.113  0.00  0.00     0.163 HD
HETATM   62  H   UNK N   1      33.675  13.939  10.085  0.00  0.00     0.163 HD
ENDROOT
BRANCH  15  63
HETATM   63  O   UNK N   1      32.846   8.546   3.256  0.00  0.00    -0.312 OA
BRANCH  63  64
HETATM   64  C   UNK N   1      32.390   7.248   3.464  0.00  0.00     0.298 C 
HETATM   65  O   UNK N   1      31.736   7.092   4.703  0.00  0.00    -0.348 OA
HETATM   66  C   UNK N   1      31.520   5.715   4.960  0.00  0.00     0.179 C 
HETATM   67  C   UNK N   1      30.698   5.029   3.834  0.00  0.00     0.180 C 
HETATM   68  C   UNK N   1      31.297   5.264   2.456  0.00  0.00     0.183 C 
HETATM   69  C   UNK N   1      31.490   6.756   2.294  0.00  0.00     0.211 C 
BRANCH  66  70
HETATM   70  C   UNK N   1      30.738   5.633   6.270  0.00  0.00     0.198 C 
BRANCH  70  71
HETATM   71  O   UNK N   1      29.365   5.517   6.046  0.00  0.00    -0.398 OA
HETATM   72  H   UNK N   1      28.762   6.241   6.277  0.00  0.00     0.209 HD
ENDBRANCH  70  71
ENDBRANCH  66  70
BRANCH  67  73
HETATM   73  O   UNK N   1      30.588   3.655   4.050  0.00  0.00    -0.390 OA
HETATM   74  H   UNK N   1      30.583   3.289   4.949  0.00  0.00     0.210 HD
ENDBRANCH  67  73
BRANCH  68  75
HETATM   75  O   UNK N   1      32.524   4.602   2.345  0.00  0.00    -0.390 OA
HETATM   76  H   UNK N   1      32.697   3.864   1.740  0.00  0.00     0.210 HD
ENDBRANCH  68  75
BRANCH  69  77
HETATM   77  O   UNK N   1      31.884   7.094   0.976  0.00  0.00    -0.348 OA
BRANCH  77  78
HETATM   78  C   UNK N   1      30.738   7.152   0.191  0.00  0.00     0.263 C 
HETATM   79  O   UNK N   1      30.713   6.283  -0.897  0.00  0.00    -0.354 OA
HETATM   80  C   UNK N   1      29.984   7.049  -1.817  0.00  0.00     0.151 C 
HETATM   81  C   UNK N   1      28.513   7.234  -1.391  0.00  0.00     0.174 C 
HETATM   82  C   UNK N   1      30.150   6.568  -3.241  0.00  0.00     0.042 C 
HETATM   83  C   UNK N   1      28.281   6.827   0.109  0.00  0.00     0.055 C 
HETATM   84  C   UNK N   1      29.450   7.193   0.986  0.00  0.00     0.093 C 
HETATM   85  C   UNK N   1      28.223   5.307   0.249  0.00  0.00     0.041 C 
BRANCH  81  86
HETATM   86  O   UNK N   1      28.151   8.562  -1.633  0.00  0.00    -0.391 OA
HETATM   87  H   UNK N   1      27.666   9.346  -1.936  0.00  0.00     0.210 HD
ENDBRANCH  81  86
BRANCH  83  88
HETATM   88  N   UNK N   1      27.082   7.444   0.701  0.00  0.00    -0.406 N 
HETATM   89  H   UNK N   1      26.934   8.453   0.685  0.00  0.00     0.154 HD
BRANCH  88  90
HETATM   90  C   UNK N   1      26.121   6.535   1.309  0.00  0.00     0.153 C 
BRANCH  90  91
HETATM   91  C   UNK N   1      25.645   7.078   2.588  0.00  0.00    -0.041 C 
HETATM   92  C   UNK N   1      26.530   7.403   3.618  0.00  0.00     0.009 C 
HETATM   93  C   UNK N   1      26.021   7.948   4.795  0.00  0.00     0.013 C 
HETATM   94  C   UNK N   1      24.629   8.088   4.960  0.00  0.00    -0.026 C 
HETATM   95  C   UNK N   1      23.768   7.622   3.963  0.00  0.00     0.013 C 
HETATM   96  C   UNK N   1      24.273   7.141   2.785  0.00  0.00     0.009 C 
BRANCH  94  97
HETATM   97  C   UNK N   1      24.103   9.201   5.754  0.00  0.00    -0.026 A 
HETATM   98  C   UNK N   1      24.813  10.407   5.687  0.00  0.00     0.014 A 
HETATM   99  C   UNK N   1      24.132  11.619   5.747  0.00  0.00     0.024 A 
HETATM  100  C   UNK N   1      22.741  11.629   5.877  0.00  0.00     0.034 A 
HETATM  101 Cl   UNK N   1      21.861  13.121   5.685  0.00  0.00    -0.084 Cl
HETATM  102  C   UNK N   1      22.041  10.438   6.062  0.00  0.00     0.024 A 
HETATM  103  C   UNK N   1      22.716   9.229   5.997  0.00  0.00     0.014 A 
ENDBRANCH  94  97
ENDBRANCH  90  91
ENDBRANCH  88  90
ENDBRANCH  83  88
ENDBRANCH  77  78
ENDBRANCH  69  77
ENDBRANCH  63  64
ENDBRANCH  15  63
BRANCH  16 104
HETATM  104  O   UNK N   1      24.642  11.951   1.407  0.00  0.00    -0.349 OA
BRANCH 104 105
HETATM  105  C   UNK N   1      24.132  10.677   1.757  0.00  0.00     0.263 C 
HETATM  106  O   UNK N   1      24.132   9.813   0.641  0.00  0.00    -0.354 OA
HETATM  107  C   UNK N   1      23.399  10.438  -0.391  0.00  0.00     0.151 C 
HETATM  108  C   UNK N   1      21.906  10.430  -0.045  0.00  0.00     0.174 C 
HETATM  109  C   UNK N   1      23.688   9.761  -1.715  0.00  0.00     0.042 C 
HETATM  110  C   UNK N   1      21.693  11.213   1.269  0.00  0.00     0.052 C 
HETATM  111  C   UNK N   1      22.703  10.760   2.337  0.00  0.00     0.093 C 
HETATM  112  C   UNK N   1      21.860  12.704   1.023  0.00  0.00     0.041 C 
BRANCH 108 113
HETATM  113  O   UNK N   1      21.471   9.107   0.092  0.00  0.00    -0.391 OA
HETATM  114  H   UNK N   1      21.337   8.297   0.609  0.00  0.00     0.210 HD
ENDBRANCH 108 113
BRANCH 110 115
HETATM  115  N   UNK N   1      20.343  10.990   1.756  0.00  0.00    -0.420 N 
HETATM  116  H   UNK N   1      19.606  11.676   1.597  0.00  0.00     0.150 HD
HETATM  117  H   UNK N   1      20.128  10.132   2.265  0.00  0.00     0.150 HD
ENDBRANCH 110 115
ENDBRANCH 104 105
ENDBRANCH  16 104
BRANCH  42 118
HETATM  118  C   UNK N   1      32.760  16.608   9.061  0.00  0.00     0.137 C 
BRANCH 118 119
HETATM  119  C   UNK N   1      33.948  17.527   8.957  0.00  0.00     0.217 C 
HETATM  120  O   UNK N   1      34.821  17.510   9.812  0.00  0.00    -0.274 OA
HETATM  121  N   UNK N   1      34.095  18.313   7.875  0.00  0.00    -0.370 N 
HETATM  122  H   UNK N   1      34.911  18.319   7.324  0.00  0.00     0.159 HD
HETATM  123  H   UNK N   1      33.353  18.908   7.622  0.00  0.00     0.159 HD
ENDBRANCH 118 119
ENDBRANCH  42 118
BRANCH  52 124
HETATM  124  O   UNK N   1      37.911  11.643   9.909  0.00  0.00    -0.388 OA
HETATM  125  H   UNK N   1      37.650  10.790  10.292  0.00  0.00     0.210 HD
ENDBRANCH  52 124
BRANCH  54 126
HETATM  126  N   UNK N   1      36.580  13.899  10.905  0.00  0.00    -0.343 N 
HETATM  127  C   UNK N   1      36.279  13.489  12.165  0.00  0.00     0.240 C 
HETATM  128  O   UNK N   1      36.812  14.058  13.103  0.00  0.00    -0.271 OA
HETATM  129  H   UNK N   1      37.148  14.698  10.813  0.00  0.00     0.163 HD
BRANCH 127 130
HETATM  130  C   UNK N   1      35.314  12.348  12.439  0.00  0.00     0.169 C 
BRANCH 130 131
HETATM  131  N   UNK N   1      35.933  11.048  12.236  0.00  0.00    -0.413 N 
HETATM  132  C   UNK N   1      34.929  10.203  11.611  0.00  0.00     0.140 C 
HETATM  133  H   UNK N   1      36.886  10.781  12.483  0.00  0.00     0.153 HD
ENDBRANCH 130 131
BRANCH 130 134
HETATM  134  C   UNK N   1      34.653  12.407  13.824  0.00  0.00     0.038 C 
BRANCH 134 135
HETATM  135  C   UNK N   1      35.235  11.546  14.951  0.00  0.00    -0.020 C 
HETATM  136  C   UNK N   1      34.188  10.516  15.327  0.00  0.00     0.009 C 
HETATM  137  C   UNK N   1      35.573  12.326  16.210  0.00  0.00     0.009 C 
ENDBRANCH 134 135
ENDBRANCH 130 134
ENDBRANCH 127 130
ENDBRANCH  54 126
BRANCH  34 138
HETATM  138  C   UNK N   1      25.006  15.974   5.025  0.00  0.00     0.168 C 
HETATM  139  O   UNK N   1      24.076  16.583   5.527  0.00  0.00    -0.648 OA
BRANCH 138 140
HETATM  140  O   UNK N   1      25.397  14.801   5.557  0.00  0.00    -0.775 OA
HETATM  141  H   UNK N   1      25.194  13.933   5.267  0.00  0.00     0.167 HD
ENDBRANCH 138 140
ENDBRANCH  34 138
BRANCH  48 142
HETATM  142  O   UNK N   1      28.704  19.411   7.117  0.00  0.00    -0.360 OA
HETATM  143  H   UNK N   1      28.646  19.482   8.049  0.00  0.00     0.217 HD
ENDBRANCH  48 142
BRANCH  53 144
HETATM  144  O   UNK N   1      27.814  20.811   5.357  0.00  0.00    -0.360 OA
HETATM  145  H   UNK N   1      27.948  21.721   5.175  0.00  0.00     0.217 HD
ENDBRANCH  53 144
BRANCH  55 146
HETATM  146  O   UNK N   1      24.218  20.906   2.347  0.00  0.00    -0.361 OA
HETATM  147  H   UNK N   1      23.945  20.649   1.488  0.00  0.00     0.217 HD
ENDBRANCH  55 146
TORSDOF 30
ENDMDL
MODEL 6
REMARK VINA RESULT:      -9.0      2.128      3.424
REMARK  30 active torsions:
REMARK  status: ('A' for Active; 'I' for Inactive)
REMARK    1  A    between atoms: C_43  and  O_5 
REMARK    2  A    between atoms: C_46  and  O_5 
REMARK    3  A    between atoms: C_41  and  O_6 
REMARK    4  A    between atoms: C_47  and  O_8 
REMARK    5  A    between atoms: C_48  and  O_9 
REMARK    6  A    between atoms: O_9  and  C_61 
REMARK    7  A    between atoms: C_50  and  O_10 
REMARK    8  A    between atoms: C_59  and  O_12 
REMARK    9  A    between atoms: C_65  and  O_12 
REMARK   10  A    between atoms: C_54  and  O_13 
REMARK   11  A    between atoms: O_14  and  C_55 
REMARK   12  A    between atoms: O_21  and  C_103 
REMARK   13  A    between atoms: O_23  and  C_107 
REMARK   14  A    between atoms: C_111  and  O_24 
REMARK   15  A    between atoms: O_25  and  C_112 
REMARK   16  A    between atoms: O_26  and  C_115 
REMARK   17  A    between atoms: C_40  and  N_30 
REMARK   18  A    between atoms: N_30  and  C_52 
REMARK   19  A    between atoms: C_53  and  N_31 
REMARK   20  A    between atoms: C_113  and  N_37 
REMARK       I    between atoms: N_37  and  C_119 
REMARK       I    between atoms: N_38  and  C_118 
REMARK   21  A    between atoms: C_120  and  N_39 
REMARK   22  A    between atoms: C_51  and  C_55 
REMARK   23  A    between atoms: C_52  and  C_56 
REMARK   24  A    between atoms: C_71  and  C_78 
REMARK   25  A    between atoms: C_87  and  C_103 
REMARK   26  A    between atoms: C_99  and  C_114 
REMARK   27  A    between atoms: C_114  and  C_118 
REMARK   28  A    between atoms: C_119  and  C_120 
REMARK   29  A    between atoms: C_120  and  C_121 
REMARK   30  A    between atoms: C_121  and  C_122 
ROOT
HETATM    1 Cl   UNK N   1      25.493  10.223   0.014  0.00  0.00    -0.081 Cl
HETATM    2 Cl   UNK N   1      32.940   7.812   7.278  0.00  0.00    -0.081 Cl
HETATM    3  O   UNK N   1      27.220   9.631   2.439  0.00  0.00    -0.306 OA
HETATM    4  O   UNK N   1      31.154   9.066   5.186  0.00  0.00    -0.306 OA
HETATM    5  O   UNK N   1      21.148  14.870   2.431  0.00  0.00    -0.271 OA
HETATM    6  O   UNK N   1      25.744  14.039   2.129  0.00  0.00    -0.271 OA
HETATM    7  O   UNK N   1      29.858  14.432   2.008  0.00  0.00    -0.271 OA
HETATM    8  O   UNK N   1      31.855  15.077   4.208  0.00  0.00    -0.271 OA
HETATM    9  O   UNK N   1      34.174  14.418   5.177  0.00  0.00    -0.271 OA
HETATM   10  N   UNK N   1      24.420  14.267   3.911  0.00  0.00    -0.343 N 
HETATM   11  N   UNK N   1      22.362  16.383   3.465  0.00  0.00    -0.341 N 
HETATM   12  N   UNK N   1      27.967  14.696   3.087  0.00  0.00    -0.342 N 
HETATM   13  N   UNK N   1      30.188  14.032   5.279  0.00  0.00    -0.342 N 
HETATM   14  N   UNK N   1      32.946  14.585   7.060  0.00  0.00    -0.345 N 
HETATM   15  C   UNK N   1      29.236   9.233   3.725  0.00  0.00     0.139 C 
HETATM   16  C   UNK N   1      22.645  12.585   3.693  0.00  0.00     0.189 C 
HETATM   17  C   UNK N   1      23.195  13.949   3.153  0.00  0.00     0.210 C 
HETATM   18  C   UNK N   1      28.250  10.096   3.190  0.00  0.00     0.113 C 
HETATM   19  C   UNK N   1      30.128   9.784   4.670  0.00  0.00     0.113 C 
HETATM   20  C   UNK N   1      23.650  11.512   3.373  0.00  0.00    -0.025 A 
HETATM   21  C   UNK N   1      28.309  11.469   3.438  0.00  0.00     0.050 C 
HETATM   22  C   UNK N   1      29.244  11.985   4.306  0.00  0.00    -0.021 C 
HETATM   23  C   UNK N   1      30.068  11.131   4.978  0.00  0.00     0.050 C 
HETATM   24  C   UNK N   1      22.177  15.101   3.037  0.00  0.00     0.244 C 
HETATM   25  C   UNK N   1      29.814  13.332   4.073  0.00  0.00     0.210 C 
HETATM   26  C   UNK N   1      23.951  11.203   2.032  0.00  0.00     0.036 A 
HETATM   27  C   UNK N   1      24.474  11.059   4.391  0.00  0.00     0.012 A 
HETATM   28  C   UNK N   1      25.988  10.138   2.722  0.00  0.00     0.098 A 
HETATM   29  C   UNK N   1      25.104  10.498   1.701  0.00  0.00     0.068 A 
HETATM   30  C   UNK N   1      25.630  10.370   4.068  0.00  0.00     0.040 A 
HETATM   31  C   UNK N   1      25.657  14.265   3.329  0.00  0.00     0.245 C 
HETATM   32  C   UNK N   1      26.964  14.553   4.113  0.00  0.00     0.210 C 
HETATM   33  C   UNK N   1      29.201  14.183   3.005  0.00  0.00     0.246 C 
HETATM   34  C   UNK N   1      23.507  16.915   4.157  0.00  0.00     0.217 C 
HETATM   35  C   UNK N   1      32.372   9.650   5.314  0.00  0.00     0.098 C 
HETATM   36  C   UNK N   1      27.043  15.887   4.780  0.00  0.00    -0.025 A 
HETATM   37  C   UNK N   1      23.848  18.370   3.762  0.00  0.00    -0.009 A 
HETATM   38  C   UNK N   1      31.272  14.850   5.260  0.00  0.00     0.241 C 
HETATM   39  C   UNK N   1      26.145  16.831   4.397  0.00  0.00     0.025 A 
HETATM   40  C   UNK N   1      25.129  19.006   4.054  0.00  0.00     0.019 A 
HETATM   41  C   UNK N   1      26.266  18.181   4.634  0.00  0.00     0.011 A 
HETATM   42  C   UNK N   1      31.837  15.375   6.535  0.00  0.00     0.185 C 
HETATM   43  C   UNK N   1      33.276   9.203   6.275  0.00  0.00     0.068 C 
HETATM   44  C   UNK N   1      32.705  10.759   4.510  0.00  0.00     0.040 C 
HETATM   45  C   UNK N   1      28.195  16.292   5.464  0.00  0.00     0.012 A 
HETATM   46  C   UNK N   1      22.837  19.117   3.150  0.00  0.00     0.047 A 
HETATM   47  C   UNK N   1      34.670  11.125   5.789  0.00  0.00    -0.025 C 
HETATM   48  C   UNK N   1      27.464  18.607   5.301  0.00  0.00     0.076 A 
HETATM   49  C   UNK N   1      28.396  17.646   5.735  0.00  0.00     0.038 A 
HETATM   50  C   UNK N   1      34.420   9.954   6.520  0.00  0.00     0.036 C 
HETATM   51  C   UNK N   1      33.829  11.503   4.757  0.00  0.00     0.012 C 
HETATM   52  C   UNK N   1      35.700  12.082   6.247  0.00  0.00     0.183 C 
HETATM   53  C   UNK N   1      25.277  20.382   3.707  0.00  0.00     0.080 A 
HETATM   54  C   UNK N   1      35.020  13.226   7.045  0.00  0.00     0.210 C 
HETATM   55  C   UNK N   1      23.022  20.452   2.826  0.00  0.00     0.069 A 
HETATM   56  C   UNK N   1      34.015  14.117   6.349  0.00  0.00     0.244 C 
HETATM   57  C   UNK N   1      24.227  21.076   3.109  0.00  0.00     0.074 A 
HETATM   58  H   UNK N   1      24.344  14.491   4.867  0.00  0.00     0.163 HD
HETATM   59  H   UNK N   1      21.631  17.015   3.279  0.00  0.00     0.163 HD
HETATM   60  H   UNK N   1      27.702  15.259   2.324  0.00  0.00     0.163 HD
HETATM   61  H   UNK N   1      29.663  13.920   6.104  0.00  0.00     0.163 HD
HETATM   62  H   UNK N   1      32.921  14.367   8.019  0.00  0.00     0.163 HD
ENDROOT
BRANCH  15  63
HETATM   63  O   UNK N   1      29.305   7.950   3.312  0.00  0.00    -0.312 OA
BRANCH  63  64
HETATM   64  C   UNK N   1      28.971   6.799   4.020  0.00  0.00     0.298 C 
HETATM   65  O   UNK N   1      29.158   6.940   5.410  0.00  0.00    -0.348 OA
HETATM   66  C   UNK N   1      29.040   5.675   6.039  0.00  0.00     0.179 C 
HETATM   67  C   UNK N   1      27.670   5.002   5.752  0.00  0.00     0.180 C 
HETATM   68  C   UNK N   1      27.362   4.928   4.265  0.00  0.00     0.183 C 
HETATM   69  C   UNK N   1      27.525   6.322   3.698  0.00  0.00     0.211 C 
BRANCH  66  70
HETATM   70  C   UNK N   1      29.170   5.922   7.541  0.00  0.00     0.198 C 
BRANCH  70  71
HETATM   71  O   UNK N   1      29.777   7.150   7.812  0.00  0.00    -0.398 OA
HETATM   72  H   UNK N   1      30.459   7.226   8.498  0.00  0.00     0.209 HD
ENDBRANCH  70  71
ENDBRANCH  66  70
BRANCH  67  73
HETATM   73  O   UNK N   1      27.614   3.715   6.289  0.00  0.00    -0.390 OA
HETATM   74  H   UNK N   1      27.085   3.020   5.866  0.00  0.00     0.210 HD
ENDBRANCH  67  73
BRANCH  68  75
HETATM   75  O   UNK N   1      28.244   4.043   3.634  0.00  0.00    -0.390 OA
HETATM   76  H   UNK N   1      28.557   4.139   2.721  0.00  0.00     0.210 HD
ENDBRANCH  68  75
BRANCH  69  77
HETATM   77  O   UNK N   1      27.094   6.395   2.351  0.00  0.00    -0.348 OA
BRANCH  77  78
HETATM   78  C   UNK N   1      25.707   6.310   2.343  0.00  0.00     0.263 C 
HETATM   79  O   UNK N   1      25.186   5.036   2.126  0.00  0.00    -0.354 OA
HETATM   80  C   UNK N   1      24.016   5.356   1.424  0.00  0.00     0.151 C 
HETATM   81  C   UNK N   1      22.984   6.089   2.306  0.00  0.00     0.174 C 
HETATM   82  C   UNK N   1      23.445   4.176   0.671  0.00  0.00     0.042 C 
HETATM   83  C   UNK N   1      23.619   6.600   3.650  0.00  0.00     0.055 C 
HETATM   84  C   UNK N   1      25.037   7.074   3.466  0.00  0.00     0.093 C 
HETATM   85  C   UNK N   1      23.779   5.448   4.640  0.00  0.00     0.041 C 
BRANCH  81  86
HETATM   86  O   UNK N   1      22.433   7.134   1.559  0.00  0.00    -0.391 OA
HETATM   87  H   UNK N   1      22.058   7.645   0.826  0.00  0.00     0.210 HD
ENDBRANCH  81  86
BRANCH  83  88
HETATM   88  N   UNK N   1      22.866   7.706   4.265  0.00  0.00    -0.406 N 
HETATM   89  H   UNK N   1      22.587   8.529   3.731  0.00  0.00     0.154 HD
BRANCH  88  90
HETATM   90  C   UNK N   1      22.542   7.560   5.677  0.00  0.00     0.153 C 
BRANCH  90  91
HETATM   91  C   UNK N   1      22.765   8.828   6.385  0.00  0.00    -0.041 C 
HETATM   92  C   UNK N   1      21.910   9.919   6.215  0.00  0.00     0.009 C 
HETATM   93  C   UNK N   1      22.153  11.083   6.942  0.00  0.00     0.013 C 
HETATM   94  C   UNK N   1      23.290  11.171   7.769  0.00  0.00    -0.026 C 
HETATM   95  C   UNK N   1      24.198  10.109   7.805  0.00  0.00     0.013 C 
HETATM   96  C   UNK N   1      23.926   8.946   7.135  0.00  0.00     0.009 C 
BRANCH  94  97
HETATM   97  C   UNK N   1      23.234  11.972   8.993  0.00  0.00    -0.026 A 
HETATM   98  C   UNK N   1      22.026  11.946   9.703  0.00  0.00     0.014 A 
HETATM   99  C   UNK N   1      22.035  12.011  11.093  0.00  0.00     0.024 A 
HETATM  100  C   UNK N   1      23.250  12.106  11.776  0.00  0.00     0.034 A 
HETATM  101 Cl   UNK N   1      23.288  11.920  13.509  0.00  0.00    -0.084 Cl
HETATM  102  C   UNK N   1      24.445  12.252  11.075  0.00  0.00     0.024 A 
HETATM  103  C   UNK N   1      24.440  12.181   9.690  0.00  0.00     0.014 A 
ENDBRANCH  94  97
ENDBRANCH  90  91
ENDBRANCH  88  90
ENDBRANCH  83  88
ENDBRANCH  77  78
ENDBRANCH  69  77
ENDBRANCH  63  64
ENDBRANCH  15  63
BRANCH  16 104
HETATM  104  O   UNK N   1      21.306  12.230   3.396  0.00  0.00    -0.349 OA
BRANCH 104 105
HETATM  105  C   UNK N   1      21.212  11.234   2.394  0.00  0.00     0.263 C 
HETATM  106  O   UNK N   1      20.567  11.739   1.244  0.00  0.00    -0.354 OA
HETATM  107  C   UNK N   1      19.311  12.245   1.640  0.00  0.00     0.151 C 
HETATM  108  C   UNK N   1      18.370  11.086   1.989  0.00  0.00     0.174 C 
HETATM  109  C   UNK N   1      18.746  13.138   0.554  0.00  0.00     0.042 C 
HETATM  110  C   UNK N   1      18.980  10.283   3.158  0.00  0.00     0.052 C 
HETATM  111  C   UNK N   1      20.463   9.978   2.888  0.00  0.00     0.093 C 
HETATM  112  C   UNK N   1      18.859  11.070   4.454  0.00  0.00     0.041 C 
BRANCH 108 113
HETATM  113  O   UNK N   1      18.204  10.272   0.863  0.00  0.00    -0.391 OA
HETATM  114  H   UNK N   1      17.667   9.708   0.285  0.00  0.00     0.210 HD
ENDBRANCH 108 113
BRANCH 110 115
HETATM  115  N   UNK N   1      18.253   9.036   3.324  0.00  0.00    -0.420 N 
HETATM  116  H   UNK N   1      17.687   8.652   2.568  0.00  0.00     0.150 HD
HETATM  117  H   UNK N   1      18.311   8.535   4.211  0.00  0.00     0.150 HD
ENDBRANCH 110 115
ENDBRANCH 104 105
ENDBRANCH  16 104
BRANCH  42 118
HETATM  118  C   UNK N   1      31.951  16.897   6.727  0.00  0.00     0.137 C 
BRANCH 118 119
HETATM  119  C   UNK N   1      33.321  17.422   7.064  0.00  0.00     0.217 C 
HETATM  120  O   UNK N   1      34.174  17.525   6.196  0.00  0.00    -0.274 OA
HETATM  121  N   UNK N   1      33.583  17.860   8.309  0.00  0.00    -0.370 N 
HETATM  122  H   UNK N   1      33.948  18.756   8.495  0.00  0.00     0.159 HD
HETATM  123  H   UNK N   1      33.403  17.259   9.067  0.00  0.00     0.159 HD
ENDBRANCH 118 119
ENDBRANCH  42 118
BRANCH  52 124
HETATM  124  O   UNK N   1      36.613  11.414   7.067  0.00  0.00    -0.388 OA
HETATM  125  H   UNK N   1      37.103  10.601   6.865  0.00  0.00     0.210 HD
ENDBRANCH  52 124
BRANCH  54 126
HETATM  126  N   UNK N   1      35.915  14.010   7.861  0.00  0.00    -0.343 N 
HETATM  127  C   UNK N   1      36.051  13.895   9.207  0.00  0.00     0.240 C 
HETATM  128  O   UNK N   1      36.922  14.545   9.761  0.00  0.00    -0.271 OA
HETATM  129  H   UNK N   1      36.472  14.684   7.406  0.00  0.00     0.163 HD
BRANCH 127 130
HETATM  130  C   UNK N   1      35.164  12.982  10.038  0.00  0.00     0.169 C 
BRANCH 130 131
HETATM  131  N   UNK N   1      35.701  11.634  10.132  0.00  0.00    -0.413 N 
HETATM  132  C   UNK N   1      34.567  10.729  10.053  0.00  0.00     0.140 C 
HETATM  133  H   UNK N   1      36.683  11.376  10.232  0.00  0.00     0.153 HD
ENDBRANCH 130 131
BRANCH 130 134
HETATM  134  C   UNK N   1      34.847  13.524  11.439  0.00  0.00     0.038 C 
BRANCH 134 135
HETATM  135  C   UNK N   1      35.702  13.045  12.620  0.00  0.00    -0.020 C 
HETATM  136  C   UNK N   1      34.795  12.267  13.554  0.00  0.00     0.009 C 
HETATM  137  C   UNK N   1      36.322  14.172  13.427  0.00  0.00     0.009 C 
ENDBRANCH 134 135
ENDBRANCH 130 134
ENDBRANCH 127 130
ENDBRANCH  54 126
BRANCH  34 138
HETATM  138  C   UNK N   1      23.256  16.770   5.633  0.00  0.00     0.168 C 
HETATM  139  O   UNK N   1      23.642  15.784   6.238  0.00  0.00    -0.648 OA
BRANCH 138 140
HETATM  140  O   UNK N   1      22.640  17.762   6.303  0.00  0.00    -0.775 OA
HETATM  141  H   UNK N   1      21.722  17.941   6.365  0.00  0.00     0.167 HD
ENDBRANCH 138 140
ENDBRANCH  34 138
BRANCH  48 142
HETATM  142  O   UNK N   1      27.740  19.892   5.554  0.00  0.00    -0.360 OA
HETATM  143  H   UNK N   1      27.184  20.388   6.124  0.00  0.00     0.217 HD
ENDBRANCH  48 142
BRANCH  53 144
HETATM  144  O   UNK N   1      26.424  21.047   3.885  0.00  0.00    -0.360 OA
HETATM  145  H   UNK N   1      27.237  20.582   3.939  0.00  0.00     0.217 HD
ENDBRANCH  53 144
BRANCH  55 146
HETATM  146  O   UNK N   1      22.032  21.140   2.239  0.00  0.00    -0.361 OA
HETATM  147  H   UNK N   1      21.831  22.031   2.452  0.00  0.00     0.217 HD
ENDBRANCH  55 146
TORSDOF 30
ENDMDL
MODEL 7
REMARK VINA RESULT:      -9.0      2.979      7.062
REMARK  30 active torsions:
REMARK  status: ('A' for Active; 'I' for Inactive)
REMARK    1  A    between atoms: C_43  and  O_5 
REMARK    2  A    between atoms: C_46  and  O_5 
REMARK    3  A    between atoms: C_41  and  O_6 
REMARK    4  A    between atoms: C_47  and  O_8 
REMARK    5  A    between atoms: C_48  and  O_9 
REMARK    6  A    between atoms: O_9  and  C_61 
REMARK    7  A    between atoms: C_50  and  O_10 
REMARK    8  A    between atoms: C_59  and  O_12 
REMARK    9  A    between atoms: C_65  and  O_12 
REMARK   10  A    between atoms: C_54  and  O_13 
REMARK   11  A    between atoms: O_14  and  C_55 
REMARK   12  A    between atoms: O_21  and  C_103 
REMARK   13  A    between atoms: O_23  and  C_107 
REMARK   14  A    between atoms: C_111  and  O_24 
REMARK   15  A    between atoms: O_25  and  C_112 
REMARK   16  A    between atoms: O_26  and  C_115 
REMARK   17  A    between atoms: C_40  and  N_30 
REMARK   18  A    between atoms: N_30  and  C_52 
REMARK   19  A    between atoms: C_53  and  N_31 
REMARK   20  A    between atoms: C_113  and  N_37 
REMARK       I    between atoms: N_37  and  C_119 
REMARK       I    between atoms: N_38  and  C_118 
REMARK   21  A    between atoms: C_120  and  N_39 
REMARK   22  A    between atoms: C_51  and  C_55 
REMARK   23  A    between atoms: C_52  and  C_56 
REMARK   24  A    between atoms: C_71  and  C_78 
REMARK   25  A    between atoms: C_87  and  C_103 
REMARK   26  A    between atoms: C_99  and  C_114 
REMARK   27  A    between atoms: C_114  and  C_118 
REMARK   28  A    between atoms: C_119  and  C_120 
REMARK   29  A    between atoms: C_120  and  C_121 
REMARK   30  A    between atoms: C_121  and  C_122 
ROOT
HETATM    1 Cl   UNK N   1      30.571  11.196  -0.419  0.00  0.00    -0.081 Cl
HETATM    2 Cl   UNK N   1      35.253   7.751   8.540  0.00  0.00    -0.081 Cl
HETATM    3  O   UNK N   1      31.399  10.174   2.318  0.00  0.00    -0.306 OA
HETATM    4  O   UNK N   1      34.125   9.317   6.213  0.00  0.00    -0.306 OA
HETATM    5  O   UNK N   1      24.845  14.598   0.980  0.00  0.00    -0.271 OA
HETATM    6  O   UNK N   1      29.314  14.340   2.344  0.00  0.00    -0.271 OA
HETATM    7  O   UNK N   1      33.044  15.164   3.927  0.00  0.00    -0.271 OA
HETATM    8  O   UNK N   1      33.962  15.415   6.815  0.00  0.00    -0.271 OA
HETATM    9  O   UNK N   1      35.863  14.766   8.462  0.00  0.00    -0.271 OA
HETATM   10  N   UNK N   1      27.425  13.965   3.471  0.00  0.00    -0.343 N 
HETATM   11  N   UNK N   1      25.297  15.906   2.687  0.00  0.00    -0.341 N 
HETATM   12  N   UNK N   1      30.880  14.947   4.207  0.00  0.00    -0.342 N 
HETATM   13  N   UNK N   1      32.257  13.967   6.913  0.00  0.00    -0.342 N 
HETATM   14  N   UNK N   1      34.037  14.316   9.704  0.00  0.00    -0.345 N 
HETATM   15  C   UNK N   1      32.861   9.662   4.183  0.00  0.00     0.139 C 
HETATM   16  C   UNK N   1      26.202  12.226   2.242  0.00  0.00     0.189 C 
HETATM   17  C   UNK N   1      26.636  13.732   2.246  0.00  0.00     0.210 C 
HETATM   18  C   UNK N   1      31.984  10.530   3.489  0.00  0.00     0.113 C 
HETATM   19  C   UNK N   1      33.234  10.037   5.491  0.00  0.00     0.113 C 
HETATM   20  C   UNK N   1      27.441  11.380   2.133  0.00  0.00    -0.025 A 
HETATM   21  C   UNK N   1      31.686  11.791   4.010  0.00  0.00     0.050 C 
HETATM   22  C   UNK N   1      32.132  12.157   5.259  0.00  0.00    -0.021 C 
HETATM   23  C   UNK N   1      32.811  11.246   6.014  0.00  0.00     0.050 C 
HETATM   24  C   UNK N   1      25.525  14.766   1.973  0.00  0.00     0.244 C 
HETATM   25  C   UNK N   1      32.479  13.568   5.543  0.00  0.00     0.210 C 
HETATM   26  C   UNK N   1      28.253  11.460   0.985  0.00  0.00     0.036 A 
HETATM   27  C   UNK N   1      27.919  10.764   3.279  0.00  0.00     0.012 A 
HETATM   28  C   UNK N   1      30.075  10.463   2.190  0.00  0.00     0.098 A 
HETATM   29  C   UNK N   1      29.561  10.984   0.999  0.00  0.00     0.068 A 
HETATM   30  C   UNK N   1      29.223  10.303   3.305  0.00  0.00     0.040 A 
HETATM   31  C   UNK N   1      28.764  14.238   3.433  0.00  0.00     0.245 C 
HETATM   32  C   UNK N   1      29.624  14.444   4.707  0.00  0.00     0.210 C 
HETATM   33  C   UNK N   1      32.135  14.600   4.515  0.00  0.00     0.246 C 
HETATM   34  C   UNK N   1      25.995  16.353   3.865  0.00  0.00     0.217 C 
HETATM   35  C   UNK N   1      35.081   9.968   6.922  0.00  0.00     0.098 C 
HETATM   36  C   UNK N   1      29.203  15.561   5.605  0.00  0.00    -0.025 A 
HETATM   37  C   UNK N   1      26.168  17.888   3.935  0.00  0.00    -0.009 A 
HETATM   38  C   UNK N   1      33.097  14.867   7.485  0.00  0.00     0.241 C 
HETATM   39  C   UNK N   1      28.337  16.476   5.097  0.00  0.00     0.025 A 
HETATM   40  C   UNK N   1      27.113  18.553   4.827  0.00  0.00     0.019 A 
HETATM   41  C   UNK N   1      28.105  17.724   5.628  0.00  0.00     0.011 A 
HETATM   42  C   UNK N   1      33.059  15.099   8.957  0.00  0.00     0.185 C 
HETATM   43  C   UNK N   1      35.652   9.381   8.050  0.00  0.00     0.068 C 
HETATM   44  C   UNK N   1      35.460  11.275   6.553  0.00  0.00     0.040 C 
HETATM   45  C   UNK N   1      29.935  15.889   6.751  0.00  0.00     0.012 A 
HETATM   46  C   UNK N   1      25.318  18.662   3.138  0.00  0.00     0.047 A 
HETATM   47  C   UNK N   1      36.731  11.494   8.546  0.00  0.00    -0.025 C 
HETATM   48  C   UNK N   1      28.881  18.082   6.782  0.00  0.00     0.076 A 
HETATM   49  C   UNK N   1      29.762  17.141   7.344  0.00  0.00     0.038 A 
HETATM   50  C   UNK N   1      36.466  10.155   8.869  0.00  0.00     0.036 C 
HETATM   51  C   UNK N   1      36.257  12.038   7.365  0.00  0.00     0.012 C 
HETATM   52  C   UNK N   1      37.326  12.398   9.553  0.00  0.00     0.183 C 
HETATM   53  C   UNK N   1      27.108  19.979   4.849  0.00  0.00     0.080 A 
HETATM   54  C   UNK N   1      36.200  13.223  10.232  0.00  0.00     0.210 C 
HETATM   55  C   UNK N   1      25.347  20.047   3.188  0.00  0.00     0.069 A 
HETATM   56  C   UNK N   1      35.358  14.157   9.391  0.00  0.00     0.244 C 
HETATM   57  C   UNK N   1      26.228  20.695   4.040  0.00  0.00     0.074 A 
HETATM   58  H   UNK N   1      26.972  13.925   4.344  0.00  0.00     0.163 HD
HETATM   59  H   UNK N   1      24.573  16.487   2.361  0.00  0.00     0.163 HD
HETATM   60  H   UNK N   1      30.801  15.660   3.532  0.00  0.00     0.163 HD
HETATM   61  H   UNK N   1      31.504  13.593   7.426  0.00  0.00     0.163 HD
HETATM   62  H   UNK N   1      33.715  13.856  10.512  0.00  0.00     0.163 HD
ENDROOT
BRANCH  15  63
HETATM   63  O   UNK N   1      33.317   8.543   3.582  0.00  0.00    -0.312 OA
BRANCH  63  64
HETATM   64  C   UNK N   1      34.028   8.433   2.391  0.00  0.00     0.298 C 
HETATM   65  O   UNK N   1      33.191   8.242   1.273  0.00  0.00    -0.348 OA
HETATM   66  C   UNK N   1      33.975   7.894   0.144  0.00  0.00     0.179 C 
HETATM   67  C   UNK N   1      35.055   8.964  -0.175  0.00  0.00     0.180 C 
HETATM   68  C   UNK N   1      35.915   9.295   1.034  0.00  0.00     0.183 C 
HETATM   69  C   UNK N   1      34.982   9.643   2.174  0.00  0.00     0.211 C 
BRANCH  66  70
HETATM   70  C   UNK N   1      33.012   7.787  -1.038  0.00  0.00     0.198 C 
BRANCH  70  71
HETATM   71  O   UNK N   1      33.013   8.950  -1.811  0.00  0.00    -0.398 OA
HETATM   72  H   UNK N   1      33.568   9.708  -1.568  0.00  0.00     0.209 HD
ENDBRANCH  70  71
ENDBRANCH  66  70
BRANCH  67  73
HETATM   73  O   UNK N   1      35.884   8.554  -1.220  0.00  0.00    -0.390 OA
HETATM   74  H   UNK N   1      36.101   9.155  -1.951  0.00  0.00     0.210 HD
ENDBRANCH  67  73
BRANCH  68  75
HETATM   75  O   UNK N   1      36.709   8.194   1.377  0.00  0.00    -0.390 OA
HETATM   76  H   UNK N   1      37.082   7.567   0.738  0.00  0.00     0.210 HD
ENDBRANCH  68  75
BRANCH  69  77
HETATM   77  O   UNK N   1      35.688  10.133   3.300  0.00  0.00    -0.348 OA
BRANCH  77  78
HETATM   78  C   UNK N   1      36.427  11.236   2.890  0.00  0.00     0.263 C 
HETATM   79  O   UNK N   1      35.684  12.373   2.579  0.00  0.00    -0.354 OA
HETATM   80  C   UNK N   1      36.471  12.918   1.554  0.00  0.00     0.151 C 
HETATM   81  C   UNK N   1      37.832  13.431   2.069  0.00  0.00     0.174 C 
HETATM   82  C   UNK N   1      35.719  13.924   0.712  0.00  0.00     0.042 C 
HETATM   83  C   UNK N   1      38.144  12.913   3.519  0.00  0.00     0.055 C 
HETATM   84  C   UNK N   1      37.652  11.506   3.739  0.00  0.00     0.093 C 
HETATM   85  C   UNK N   1      37.353  13.707   4.555  0.00  0.00     0.041 C 
BRANCH  81  86
HETATM   86  O   UNK N   1      38.817  13.049   1.155  0.00  0.00    -0.391 OA
HETATM   87  H   UNK N   1      39.659  12.992   0.676  0.00  0.00     0.210 HD
ENDBRANCH  81  86
BRANCH  83  88
HETATM   88  N   UNK N   1      39.580  12.928   3.845  0.00  0.00    -0.406 N 
HETATM   89  H   UNK N   1      40.277  12.514   3.226  0.00  0.00     0.154 HD
BRANCH  88  90
HETATM   90  C   UNK N   1      39.950  13.566   5.101  0.00  0.00     0.153 C 
BRANCH  90  91
HETATM   91  C   UNK N   1      40.427  12.563   6.062  0.00  0.00    -0.041 C 
HETATM   92  C   UNK N   1      40.378  12.789   7.439  0.00  0.00     0.009 C 
HETATM   93  C   UNK N   1      40.812  11.784   8.301  0.00  0.00     0.013 C 
HETATM   94  C   UNK N   1      41.361  10.598   7.777  0.00  0.00    -0.026 C 
HETATM   95  C   UNK N   1      41.522  10.465   6.396  0.00  0.00     0.013 C 
HETATM   96  C   UNK N   1      41.042  11.429   5.550  0.00  0.00     0.009 C 
BRANCH  94  97
HETATM   97  C   UNK N   1      41.177   9.335   8.497  0.00  0.00    -0.026 A 
HETATM   98  C   UNK N   1      42.328   8.753   9.044  0.00  0.00     0.014 A 
HETATM   99  C   UNK N   1      42.252   8.062  10.249  0.00  0.00     0.024 A 
HETATM  100  C   UNK N   1      41.027   7.949  10.909  0.00  0.00     0.034 A 
HETATM  101 Cl   UNK N   1      40.971   7.323  12.535  0.00  0.00    -0.084 Cl
HETATM  102  C   UNK N   1      39.858   8.422  10.315  0.00  0.00     0.024 A 
HETATM  103  C   UNK N   1      39.932   9.116   9.117  0.00  0.00     0.014 A 
ENDBRANCH  94  97
ENDBRANCH  90  91
ENDBRANCH  88  90
ENDBRANCH  83  88
ENDBRANCH  77  78
ENDBRANCH  69  77
ENDBRANCH  63  64
ENDBRANCH  15  63
BRANCH  16 104
HETATM  104  O   UNK N   1      25.151  11.828   1.379  0.00  0.00    -0.349 OA
BRANCH 104 105
HETATM  105  C   UNK N   1      24.362  10.786   1.923  0.00  0.00     0.263 C 
HETATM  106  O   UNK N   1      24.545   9.588   1.199  0.00  0.00    -0.354 OA
HETATM  107  C   UNK N   1      24.253   9.853  -0.156  0.00  0.00     0.151 C 
HETATM  108  C   UNK N   1      22.743  10.047  -0.334  0.00  0.00     0.174 C 
HETATM  109  C   UNK N   1      24.798   8.742  -1.031  0.00  0.00     0.042 C 
HETATM  110  C   UNK N   1      22.290  11.250   0.522  0.00  0.00     0.052 C 
HETATM  111  C   UNK N   1      22.860  11.143   1.947  0.00  0.00     0.093 C 
HETATM  112  C   UNK N   1      22.761  12.550  -0.110  0.00  0.00     0.041 C 
BRANCH 108 113
HETATM  113  O   UNK N   1      22.078   8.881   0.059  0.00  0.00    -0.391 OA
HETATM  114  H   UNK N   1      21.371   8.415   0.532  0.00  0.00     0.210 HD
ENDBRANCH 108 113
BRANCH 110 115
HETATM  115  N   UNK N   1      20.838  11.284   0.585  0.00  0.00    -0.420 N 
HETATM  116  H   UNK N   1      20.347  12.095   0.960  0.00  0.00     0.150 HD
HETATM  117  H   UNK N   1      20.302  10.485   0.246  0.00  0.00     0.150 HD
ENDBRANCH 110 115
ENDBRANCH 104 105
ENDBRANCH  16 104
BRANCH  42 118
HETATM  118  C   UNK N   1      32.803  16.522   9.479  0.00  0.00     0.137 C 
BRANCH 118 119
HETATM  119  C   UNK N   1      33.537  17.630   8.772  0.00  0.00     0.217 C 
HETATM  120  O   UNK N   1      32.926  18.446   8.098  0.00  0.00    -0.274 OA
HETATM  121  N   UNK N   1      34.863  17.775   8.949  0.00  0.00    -0.370 N 
HETATM  122  H   UNK N   1      35.275  18.620   9.240  0.00  0.00     0.159 HD
HETATM  123  H   UNK N   1      35.447  17.001   8.780  0.00  0.00     0.159 HD
ENDBRANCH 118 119
ENDBRANCH  42 118
BRANCH  52 124
HETATM  124  O   UNK N   1      37.996  11.637  10.513  0.00  0.00    -0.388 OA
HETATM  125  H   UNK N   1      38.488  10.811  10.374  0.00  0.00     0.210 HD
ENDBRANCH  52 124
BRANCH  54 126
HETATM  126  N   UNK N   1      36.577  13.856  11.472  0.00  0.00    -0.343 N 
HETATM  127  C   UNK N   1      36.255  13.403  12.712  0.00  0.00     0.240 C 
HETATM  128  O   UNK N   1      36.728  13.974  13.680  0.00  0.00    -0.271 OA
HETATM  129  H   UNK N   1      37.110  14.682  11.417  0.00  0.00     0.163 HD
BRANCH 127 130
HETATM  130  C   UNK N   1      35.335  12.212  12.927  0.00  0.00     0.169 C 
BRANCH 130 131
HETATM  131  N   UNK N   1      36.032  10.947  12.762  0.00  0.00    -0.413 N 
HETATM  132  C   UNK N   1      35.078  10.021  12.176  0.00  0.00     0.140 C 
HETATM  133  H   UNK N   1      37.002  10.748  13.009  0.00  0.00     0.153 HD
ENDBRANCH 130 131
BRANCH 130 134
HETATM  134  C   UNK N   1      34.589  12.233  14.270  0.00  0.00     0.038 C 
BRANCH 134 135
HETATM  135  C   UNK N   1      35.276  11.625  15.499  0.00  0.00    -0.020 C 
HETATM  136  C   UNK N   1      34.503  10.378  15.884  0.00  0.00     0.009 C 
HETATM  137  C   UNK N   1      35.289  12.540  16.712  0.00  0.00     0.009 C 
ENDBRANCH 134 135
ENDBRANCH 130 134
ENDBRANCH 127 130
ENDBRANCH  54 126
BRANCH  34 138
HETATM  138  C   UNK N   1      25.266  15.807   5.062  0.00  0.00     0.168 C 
HETATM  139  O   UNK N   1      25.466  14.667   5.448  0.00  0.00    -0.648 OA
BRANCH 138 140
HETATM  140  O   UNK N   1      24.421  16.602   5.745  0.00  0.00    -0.775 OA
HETATM  141  H   UNK N   1      23.608  16.971   5.458  0.00  0.00     0.167 HD
ENDBRANCH 138 140
ENDBRANCH  34 138
BRANCH  48 142
HETATM  142  O   UNK N   1      28.796  19.279   7.375  0.00  0.00    -0.360 OA
HETATM  143  H   UNK N   1      28.237  19.941   7.018  0.00  0.00     0.217 HD
ENDBRANCH  48 142
BRANCH  53 144
HETATM  144  O   UNK N   1      27.967  20.687   5.592  0.00  0.00    -0.360 OA
HETATM  145  H   UNK N   1      27.716  20.994   6.442  0.00  0.00     0.217 HD
ENDBRANCH  53 144
BRANCH  55 146
HETATM  146  O   UNK N   1      24.519  20.760   2.412  0.00  0.00    -0.361 OA
HETATM  147  H   UNK N   1      23.855  21.325   2.754  0.00  0.00     0.217 HD
ENDBRANCH  55 146
TORSDOF 30
ENDMDL
MODEL 8
REMARK VINA RESULT:      -9.0      3.806      7.603
REMARK  30 active torsions:
REMARK  status: ('A' for Active; 'I' for Inactive)
REMARK    1  A    between atoms: C_43  and  O_5 
REMARK    2  A    between atoms: C_46  and  O_5 
REMARK    3  A    between atoms: C_41  and  O_6 
REMARK    4  A    between atoms: C_47  and  O_8 
REMARK    5  A    between atoms: C_48  and  O_9 
REMARK    6  A    between atoms: O_9  and  C_61 
REMARK    7  A    between atoms: C_50  and  O_10 
REMARK    8  A    between atoms: C_59  and  O_12 
REMARK    9  A    between atoms: C_65  and  O_12 
REMARK   10  A    between atoms: C_54  and  O_13 
REMARK   11  A    between atoms: O_14  and  C_55 
REMARK   12  A    between atoms: O_21  and  C_103 
REMARK   13  A    between atoms: O_23  and  C_107 
REMARK   14  A    between atoms: C_111  and  O_24 
REMARK   15  A    between atoms: O_25  and  C_112 
REMARK   16  A    between atoms: O_26  and  C_115 
REMARK   17  A    between atoms: C_40  and  N_30 
REMARK   18  A    between atoms: N_30  and  C_52 
REMARK   19  A    between atoms: C_53  and  N_31 
REMARK   20  A    between atoms: C_113  and  N_37 
REMARK       I    between atoms: N_37  and  C_119 
REMARK       I    between atoms: N_38  and  C_118 
REMARK   21  A    between atoms: C_120  and  N_39 
REMARK   22  A    between atoms: C_51  and  C_55 
REMARK   23  A    between atoms: C_52  and  C_56 
REMARK   24  A    between atoms: C_71  and  C_78 
REMARK   25  A    between atoms: C_87  and  C_103 
REMARK   26  A    between atoms: C_99  and  C_114 
REMARK   27  A    between atoms: C_114  and  C_118 
REMARK   28  A    between atoms: C_119  and  C_120 
REMARK   29  A    between atoms: C_120  and  C_121 
REMARK   30  A    between atoms: C_121  and  C_122 
ROOT
HETATM    1 Cl   UNK N   1      25.187   9.629   0.279  0.00  0.00    -0.081 Cl
HETATM    2 Cl   UNK N   1      33.561  10.918   6.781  0.00  0.00    -0.081 Cl
HETATM    3  O   UNK N   1      27.202   9.976   2.523  0.00  0.00    -0.306 OA
HETATM    4  O   UNK N   1      31.268  11.196   4.830  0.00  0.00    -0.306 OA
HETATM    5  O   UNK N   1      19.622  12.574   2.863  0.00  0.00    -0.271 OA
HETATM    6  O   UNK N   1      24.150  13.469   2.089  0.00  0.00    -0.271 OA
HETATM    7  O   UNK N   1      27.787  15.337   1.468  0.00  0.00    -0.271 OA
HETATM    8  O   UNK N   1      29.564  16.901   3.374  0.00  0.00    -0.271 OA
HETATM    9  O   UNK N   1      32.031  17.251   4.111  0.00  0.00    -0.271 OA
HETATM   10  N   UNK N   1      22.989  13.380   3.993  0.00  0.00    -0.343 N 
HETATM   11  N   UNK N   1      20.256  14.528   3.645  0.00  0.00    -0.341 N 
HETATM   12  N   UNK N   1      26.031  14.997   2.737  0.00  0.00    -0.342 N 
HETATM   13  N   UNK N   1      28.509  15.436   4.698  0.00  0.00    -0.342 N 
HETATM   14  N   UNK N   1      30.989  17.152   6.107  0.00  0.00    -0.345 N 
HETATM   15  C   UNK N   1      29.317  10.488   3.591  0.00  0.00     0.139 C 
HETATM   16  C   UNK N   1      21.970  11.149   4.095  0.00  0.00     0.189 C 
HETATM   17  C   UNK N   1      21.917  12.554   3.405  0.00  0.00     0.210 C 
HETATM   18  C   UNK N   1      28.038  10.865   3.118  0.00  0.00     0.113 C 
HETATM   19  C   UNK N   1      30.009  11.426   4.388  0.00  0.00     0.113 C 
HETATM   20  C   UNK N   1      23.275  10.495   3.734  0.00  0.00    -0.025 A 
HETATM   21  C   UNK N   1      27.594  12.181   3.263  0.00  0.00     0.050 C 
HETATM   22  C   UNK N   1      28.332  13.094   3.981  0.00  0.00    -0.021 C 
HETATM   23  C   UNK N   1      29.470  12.681   4.609  0.00  0.00     0.050 C 
HETATM   24  C   UNK N   1      20.534  13.230   3.329  0.00  0.00     0.244 C 
HETATM   25  C   UNK N   1      28.330  14.523   3.593  0.00  0.00     0.210 C 
HETATM   26  C   UNK N   1      23.560  10.179   2.391  0.00  0.00     0.036 A 
HETATM   27  C   UNK N   1      24.290  10.488   4.678  0.00  0.00     0.012 A 
HETATM   28  C   UNK N   1      25.897  10.019   2.911  0.00  0.00     0.098 A 
HETATM   29  C   UNK N   1      24.863   9.918   1.978  0.00  0.00     0.068 A 
HETATM   30  C   UNK N   1      25.590  10.245   4.271  0.00  0.00     0.040 A 
HETATM   31  C   UNK N   1      24.083  13.773   3.273  0.00  0.00     0.245 C 
HETATM   32  C   UNK N   1      25.244  14.604   3.880  0.00  0.00     0.210 C 
HETATM   33  C   UNK N   1      27.356  14.970   2.549  0.00  0.00     0.246 C 
HETATM   34  C   UNK N   1      21.167  15.514   4.164  0.00  0.00     0.217 C 
HETATM   35  C   UNK N   1      32.181  12.198   4.776  0.00  0.00     0.098 C 
HETATM   36  C   UNK N   1      24.867  15.936   4.442  0.00  0.00    -0.025 A 
HETATM   37  C   UNK N   1      20.899  16.942   3.634  0.00  0.00    -0.009 A 
HETATM   38  C   UNK N   1      29.198  16.589   4.499  0.00  0.00     0.241 C 
HETATM   39  C   UNK N   1      23.651  16.435   4.102  0.00  0.00     0.025 A 
HETATM   40  C   UNK N   1      21.864  18.033   3.733  0.00  0.00     0.019 A 
HETATM   41  C   UNK N   1      23.273  17.752   4.232  0.00  0.00     0.011 A 
HETATM   42  C   UNK N   1      29.626  17.417   5.662  0.00  0.00     0.185 C 
HETATM   43  C   UNK N   1      33.263  12.220   5.654  0.00  0.00     0.068 C 
HETATM   44  C   UNK N   1      32.004  13.260   3.866  0.00  0.00     0.040 C 
HETATM   45  C   UNK N   1      25.833  16.807   4.959  0.00  0.00     0.012 A 
HETATM   46  C   UNK N   1      19.634  17.194   3.094  0.00  0.00     0.047 A 
HETATM   47  C   UNK N   1      33.783  14.458   4.883  0.00  0.00    -0.025 C 
HETATM   48  C   UNK N   1      24.271  18.658   4.726  0.00  0.00     0.076 A 
HETATM   49  C   UNK N   1      25.528  18.160   5.113  0.00  0.00     0.038 A 
HETATM   50  C   UNK N   1      34.054  13.362   5.714  0.00  0.00     0.036 C 
HETATM   51  C   UNK N   1      32.780  14.387   3.931  0.00  0.00     0.012 C 
HETATM   52  C   UNK N   1      34.409  15.770   5.153  0.00  0.00     0.183 C 
HETATM   53  C   UNK N   1      21.452  19.321   3.279  0.00  0.00     0.080 A 
HETATM   54  C   UNK N   1      33.415  16.660   5.945  0.00  0.00     0.210 C 
HETATM   55  C   UNK N   1      19.275  18.461   2.661  0.00  0.00     0.069 A 
HETATM   56  C   UNK N   1      32.094  17.039   5.311  0.00  0.00     0.244 C 
HETATM   57  C   UNK N   1      20.173  19.512   2.761  0.00  0.00     0.074 A 
HETATM   58  H   UNK N   1      22.913  13.660   4.934  0.00  0.00     0.163 HD
HETATM   59  H   UNK N   1      19.327  14.822   3.503  0.00  0.00     0.163 HD
HETATM   60  H   UNK N   1      25.511  15.339   1.974  0.00  0.00     0.163 HD
HETATM   61  H   UNK N   1      28.135  15.225   5.584  0.00  0.00     0.163 HD
HETATM   62  H   UNK N   1      31.127  17.043   7.075  0.00  0.00     0.163 HD
ENDROOT
BRANCH  15  63
HETATM   63  O   UNK N   1      29.832   9.285   3.262  0.00  0.00    -0.312 OA
BRANCH  63  64
HETATM   64  C   UNK N   1      29.643   8.063   3.900  0.00  0.00     0.298 C 
HETATM   65  O   UNK N   1      28.442   8.014   4.638  0.00  0.00    -0.348 OA
HETATM   66  C   UNK N   1      28.429   6.855   5.453  0.00  0.00     0.179 C 
HETATM   67  C   UNK N   1      28.599   5.552   4.625  0.00  0.00     0.180 C 
HETATM   68  C   UNK N   1      29.819   5.597   3.719  0.00  0.00     0.183 C 
HETATM   69  C   UNK N   1      29.734   6.870   2.905  0.00  0.00     0.211 C 
BRANCH  66  70
HETATM   70  C   UNK N   1      27.071   6.829   6.153  0.00  0.00     0.198 C 
BRANCH  70  71
HETATM   71  O   UNK N   1      27.132   6.158   7.375  0.00  0.00    -0.398 OA
HETATM   72  H   UNK N   1      27.813   5.485   7.539  0.00  0.00     0.209 HD
ENDBRANCH  70  71
ENDBRANCH  66  70
BRANCH  67  73
HETATM   73  O   UNK N   1      28.691   4.431   5.452  0.00  0.00    -0.390 OA
HETATM   74  H   UNK N   1      27.899   4.038   5.850  0.00  0.00     0.210 HD
ENDBRANCH  67  73
BRANCH  68  75
HETATM   75  O   UNK N   1      30.989   5.590   4.487  0.00  0.00    -0.390 OA
HETATM   76  H   UNK N   1      31.872   5.794   4.143  0.00  0.00     0.210 HD
ENDBRANCH  68  75
BRANCH  69  77
HETATM   77  O   UNK N   1      30.737   6.923   1.907  0.00  0.00    -0.348 OA
BRANCH  77  78
HETATM   78  C   UNK N   1      30.113   7.177   0.691  0.00  0.00     0.263 C 
HETATM   79  O   UNK N   1      28.735   7.369   0.753  0.00  0.00    -0.354 OA
HETATM   80  C   UNK N   1      28.347   6.824  -0.479  0.00  0.00     0.151 C 
HETATM   81  C   UNK N   1      28.836   7.669  -1.674  0.00  0.00     0.174 C 
HETATM   82  C   UNK N   1      26.874   6.489  -0.532  0.00  0.00     0.042 C 
HETATM   83  C   UNK N   1      29.924   8.718  -1.244  0.00  0.00     0.055 C 
HETATM   84  C   UNK N   1      30.843   8.182  -0.176  0.00  0.00     0.093 C 
HETATM   85  C   UNK N   1      29.273   9.914  -0.551  0.00  0.00     0.041 C 
BRANCH  81  86
HETATM   86  O   UNK N   1      29.311   6.799  -2.659  0.00  0.00    -0.391 OA
HETATM   87  H   UNK N   1      29.692   6.460  -3.484  0.00  0.00     0.210 HD
ENDBRANCH  81  86
BRANCH  83  88
HETATM   88  N   UNK N   1      30.771   9.169  -2.361  0.00  0.00    -0.406 N 
HETATM   89  H   UNK N   1      31.452   8.552  -2.802  0.00  0.00     0.154 HD
BRANCH  88  90
HETATM   90  C   UNK N   1      30.581  10.544  -2.800  0.00  0.00     0.153 C 
BRANCH  90  91
HETATM   91  C   UNK N   1      31.880  11.211  -2.964  0.00  0.00    -0.041 C 
HETATM   92  C   UNK N   1      32.759  10.856  -3.990  0.00  0.00     0.009 C 
HETATM   93  C   UNK N   1      33.961  11.550  -4.115  0.00  0.00     0.013 C 
HETATM   94  C   UNK N   1      34.305  12.535  -3.169  0.00  0.00    -0.026 C 
HETATM   95  C   UNK N   1      33.464  12.764  -2.077  0.00  0.00     0.013 C 
HETATM   96  C   UNK N   1      32.258  12.122  -1.989  0.00  0.00     0.009 C 
BRANCH  94  97
HETATM   97  C   UNK N   1      35.098  13.693  -3.586  0.00  0.00    -0.026 A 
HETATM   98  C   UNK N   1      35.584  13.677  -4.901  0.00  0.00     0.014 A 
HETATM   99  C   UNK N   1      35.683  14.864  -5.620  0.00  0.00     0.024 A 
HETATM  100  C   UNK N   1      35.300  16.070  -5.027  0.00  0.00     0.034 A 
HETATM  101 Cl   UNK N   1      35.168  17.511  -5.998  0.00  0.00    -0.084 Cl
HETATM  102  C   UNK N   1      34.929  16.110  -3.684  0.00  0.00     0.024 A 
HETATM  103  C   UNK N   1      34.824  14.928  -2.967  0.00  0.00     0.014 A 
ENDBRANCH  94  97
ENDBRANCH  90  91
ENDBRANCH  88  90
ENDBRANCH  83  88
ENDBRANCH  77  78
ENDBRANCH  69  77
ENDBRANCH  63  64
ENDBRANCH  15  63
BRANCH  16 104
HETATM  104  O   UNK N   1      20.844  10.296   3.979  0.00  0.00    -0.349 OA
BRANCH 104 105
HETATM  105  C   UNK N   1      20.221  10.040   5.224  0.00  0.00     0.263 C 
HETATM  106  O   UNK N   1      21.017   9.186   6.018  0.00  0.00    -0.354 OA
HETATM  107  C   UNK N   1      21.268   8.014   5.273  0.00  0.00     0.151 C 
HETATM  108  C   UNK N   1      19.988   7.176   5.178  0.00  0.00     0.174 C 
HETATM  109  C   UNK N   1      22.417   7.243   5.892  0.00  0.00     0.042 C 
HETATM  110  C   UNK N   1      18.901   8.004   4.460  0.00  0.00     0.052 C 
HETATM  111  C   UNK N   1      18.817   9.419   5.058  0.00  0.00     0.093 C 
HETATM  112  C   UNK N   1      19.216   8.107   2.975  0.00  0.00     0.041 C 
BRANCH 108 113
HETATM  113  O   UNK N   1      19.571   6.822   6.466  0.00  0.00    -0.391 OA
HETATM  114  H   UNK N   1      19.264   6.175   7.120  0.00  0.00     0.210 HD
ENDBRANCH 108 113
BRANCH 110 115
HETATM  115  N   UNK N   1      17.614   7.344   4.598  0.00  0.00    -0.420 N 
HETATM  116  H   UNK N   1      16.752   7.883   4.680  0.00  0.00     0.150 HD
HETATM  117  H   UNK N   1      17.572   6.325   4.613  0.00  0.00     0.150 HD
ENDBRANCH 110 115
ENDBRANCH 104 105
ENDBRANCH  16 104
BRANCH  42 118
HETATM  118  C   UNK N   1      29.171  18.884   5.737  0.00  0.00     0.137 C 
BRANCH 118 119
HETATM  119  C   UNK N   1      28.227  19.230   6.857  0.00  0.00     0.217 C 
HETATM  120  O   UNK N   1      27.698  20.330   6.904  0.00  0.00    -0.274 OA
HETATM  121  N   UNK N   1      27.898  18.296   7.768  0.00  0.00    -0.370 N 
HETATM  122  H   UNK N   1      26.966  18.058   7.978  0.00  0.00     0.159 HD
HETATM  123  H   UNK N   1      28.621  17.829   8.245  0.00  0.00     0.159 HD
ENDBRANCH 118 119
ENDBRANCH  42 118
BRANCH  52 124
HETATM  124  O   UNK N   1      35.570  15.577   5.905  0.00  0.00    -0.388 OA
HETATM  125  H   UNK N   1      36.414  15.204   5.603  0.00  0.00     0.210 HD
ENDBRANCH  52 124
BRANCH  54 126
HETATM  126  N   UNK N   1      34.010  17.801   6.597  0.00  0.00    -0.343 N 
HETATM  127  C   UNK N   1      34.224  17.915   7.933  0.00  0.00     0.240 C 
HETATM  128  O   UNK N   1      34.835  18.889   8.343  0.00  0.00    -0.271 OA
HETATM  129  H   UNK N   1      34.284  18.558   6.028  0.00  0.00     0.163 HD
BRANCH 127 130
HETATM  130  C   UNK N   1      33.736  16.873   8.926  0.00  0.00     0.169 C 
BRANCH 130 131
HETATM  131  N   UNK N   1      32.290  16.727   8.898  0.00  0.00    -0.413 N 
HETATM  132  C   UNK N   1      32.011  15.317   9.112  0.00  0.00     0.140 C 
HETATM  133  H   UNK N   1      31.605  17.470   8.757  0.00  0.00     0.153 HD
ENDBRANCH 130 131
BRANCH 130 134
HETATM  134  C   UNK N   1      34.409  15.501   8.773  0.00  0.00     0.038 C 
BRANCH 134 135
HETATM  135  C   UNK N   1      35.676  15.212   9.588  0.00  0.00    -0.020 C 
HETATM  136  C   UNK N   1      35.629  13.755  10.004  0.00  0.00     0.009 C 
HETATM  137  C   UNK N   1      35.793  16.040  10.857  0.00  0.00     0.009 C 
ENDBRANCH 134 135
ENDBRANCH 130 134
ENDBRANCH 127 130
ENDBRANCH  54 126
BRANCH  34 138
HETATM  138  C   UNK N   1      21.110  15.444   5.665  0.00  0.00     0.168 C 
HETATM  139  O   UNK N   1      20.339  16.150   6.294  0.00  0.00    -0.648 OA
BRANCH 138 140
HETATM  140  O   UNK N   1      21.884  14.557   6.319  0.00  0.00    -0.775 OA
HETATM  141  H   UNK N   1      21.833  13.622   6.310  0.00  0.00     0.167 HD
ENDBRANCH 138 140
ENDBRANCH  34 138
BRANCH  48 142
HETATM  142  O   UNK N   1      24.060  19.973   4.858  0.00  0.00    -0.360 OA
HETATM  143  H   UNK N   1      24.559  20.469   5.477  0.00  0.00     0.217 HD
ENDBRANCH  48 142
BRANCH  53 144
HETATM  144  O   UNK N   1      22.274  20.377   3.278  0.00  0.00    -0.360 OA
HETATM  145  H   UNK N   1      23.012  20.403   2.699  0.00  0.00     0.217 HD
ENDBRANCH  53 144
BRANCH  55 146
HETATM  146  O   UNK N   1      18.054  18.670   2.148  0.00  0.00    -0.361 OA
HETATM  147  H   UNK N   1      17.447  19.289   2.503  0.00  0.00     0.217 HD
ENDBRANCH  55 146
TORSDOF 30
ENDMDL
MODEL 9
REMARK VINA RESULT:      -8.9      2.713      4.904
REMARK  30 active torsions:
REMARK  status: ('A' for Active; 'I' for Inactive)
REMARK    1  A    between atoms: C_43  and  O_5 
REMARK    2  A    between atoms: C_46  and  O_5 
REMARK    3  A    between atoms: C_41  and  O_6 
REMARK    4  A    between atoms: C_47  and  O_8 
REMARK    5  A    between atoms: C_48  and  O_9 
REMARK    6  A    between atoms: O_9  and  C_61 
REMARK    7  A    between atoms: C_50  and  O_10 
REMARK    8  A    between atoms: C_59  and  O_12 
REMARK    9  A    between atoms: C_65  and  O_12 
REMARK   10  A    between atoms: C_54  and  O_13 
REMARK   11  A    between atoms: O_14  and  C_55 
REMARK   12  A    between atoms: O_21  and  C_103 
REMARK   13  A    between atoms: O_23  and  C_107 
REMARK   14  A    between atoms: C_111  and  O_24 
REMARK   15  A    between atoms: O_25  and  C_112 
REMARK   16  A    between atoms: O_26  and  C_115 
REMARK   17  A    between atoms: C_40  and  N_30 
REMARK   18  A    between atoms: N_30  and  C_52 
REMARK   19  A    between atoms: C_53  and  N_31 
REMARK   20  A    between atoms: C_113  and  N_37 
REMARK       I    between atoms: N_37  and  C_119 
REMARK       I    between atoms: N_38  and  C_118 
REMARK   21  A    between atoms: C_120  and  N_39 
REMARK   22  A    between atoms: C_51  and  C_55 
REMARK   23  A    between atoms: C_52  and  C_56 
REMARK   24  A    between atoms: C_71  and  C_78 
REMARK   25  A    between atoms: C_87  and  C_103 
REMARK   26  A    between atoms: C_99  and  C_114 
REMARK   27  A    between atoms: C_114  and  C_118 
REMARK   28  A    between atoms: C_119  and  C_120 
REMARK   29  A    between atoms: C_120  and  C_121 
REMARK   30  A    between atoms: C_121  and  C_122 
ROOT
HETATM    1 Cl   UNK N   1      30.009  11.714  -0.839  0.00  0.00    -0.081 Cl
HETATM    2 Cl   UNK N   1      35.522   7.689   7.374  0.00  0.00    -0.081 Cl
HETATM    3  O   UNK N   1      31.092  10.501   1.724  0.00  0.00    -0.306 OA
HETATM    4  O   UNK N   1      34.167   9.405   5.285  0.00  0.00    -0.306 OA
HETATM    5  O   UNK N   1      24.380  14.872   1.320  0.00  0.00    -0.271 OA
HETATM    6  O   UNK N   1      28.957  14.607   2.263  0.00  0.00    -0.271 OA
HETATM    7  O   UNK N   1      32.800  15.386   3.573  0.00  0.00    -0.271 OA
HETATM    8  O   UNK N   1      33.968  15.433   6.380  0.00  0.00    -0.271 OA
HETATM    9  O   UNK N   1      36.018  14.700   7.797  0.00  0.00    -0.271 OA
HETATM   10  N   UNK N   1      27.181  14.105   3.518  0.00  0.00    -0.343 N 
HETATM   11  N   UNK N   1      24.963  16.053   3.080  0.00  0.00    -0.341 N 
HETATM   12  N   UNK N   1      30.673  15.102   4.024  0.00  0.00    -0.342 N 
HETATM   13  N   UNK N   1      32.299  13.945   6.513  0.00  0.00    -0.342 N 
HETATM   14  N   UNK N   1      34.317  14.115   9.155  0.00  0.00    -0.345 N 
HETATM   15  C   UNK N   1      32.722   9.879   3.408  0.00  0.00     0.139 C 
HETATM   16  C   UNK N   1      25.880  12.440   2.267  0.00  0.00     0.189 C 
HETATM   17  C   UNK N   1      26.289  13.950   2.352  0.00  0.00     0.210 C 
HETATM   18  C   UNK N   1      31.774  10.779   2.864  0.00  0.00     0.113 C 
HETATM   19  C   UNK N   1      33.204  10.160   4.704  0.00  0.00     0.113 C 
HETATM   20  C   UNK N   1      27.116  11.632   1.983  0.00  0.00    -0.025 A 
HETATM   21  C   UNK N   1      31.505  11.989   3.507  0.00  0.00     0.050 C 
HETATM   22  C   UNK N   1      32.055  12.266   4.738  0.00  0.00    -0.021 C 
HETATM   23  C   UNK N   1      32.812  11.314   5.356  0.00  0.00     0.050 C 
HETATM   24  C   UNK N   1      25.144  14.977   2.261  0.00  0.00     0.244 C 
HETATM   25  C   UNK N   1      32.404  13.659   5.101  0.00  0.00     0.210 C 
HETATM   26  C   UNK N   1      27.822  11.819   0.778  0.00  0.00     0.036 A 
HETATM   27  C   UNK N   1      27.703  10.940   3.031  0.00  0.00     0.012 A 
HETATM   28  C   UNK N   1      29.758  10.771   1.736  0.00  0.00     0.098 A 
HETATM   29  C   UNK N   1      29.133  11.372   0.640  0.00  0.00     0.068 A 
HETATM   30  C   UNK N   1      29.011  10.506   2.905  0.00  0.00     0.040 A 
HETATM   31  C   UNK N   1      28.507  14.409   3.384  0.00  0.00     0.245 C 
HETATM   32  C   UNK N   1      29.474  14.534   4.590  0.00  0.00     0.210 C 
HETATM   33  C   UNK N   1      31.956  14.760   4.192  0.00  0.00     0.246 C 
HETATM   34  C   UNK N   1      25.756  16.423   4.223  0.00  0.00     0.217 C 
HETATM   35  C   UNK N   1      35.173  10.020   5.958  0.00  0.00     0.098 C 
HETATM   36  C   UNK N   1      29.118  15.569   5.607  0.00  0.00    -0.025 A 
HETATM   37  C   UNK N   1      25.912  17.951   4.399  0.00  0.00    -0.009 A 
HETATM   38  C   UNK N   1      33.174  14.816   7.078  0.00  0.00     0.241 C 
HETATM   39  C   UNK N   1      28.197  16.501   5.252  0.00  0.00     0.025 A 
HETATM   40  C   UNK N   1      26.923  18.566   5.255  0.00  0.00     0.019 A 
HETATM   41  C   UNK N   1      27.994  17.699   5.898  0.00  0.00     0.011 A 
HETATM   42  C   UNK N   1      33.264  14.932   8.561  0.00  0.00     0.185 C 
HETATM   43  C   UNK N   1      35.850   9.360   6.981  0.00  0.00     0.068 C 
HETATM   44  C   UNK N   1      35.498  11.360   5.661  0.00  0.00     0.040 C 
HETATM   45  C   UNK N   1      29.944  15.823   6.708  0.00  0.00     0.012 A 
HETATM   46  C   UNK N   1      24.984  18.766   3.744  0.00  0.00     0.047 A 
HETATM   47  C   UNK N   1      36.938  11.451   7.546  0.00  0.00    -0.025 C 
HETATM   48  C   UNK N   1      28.865  17.983   7.004  0.00  0.00     0.076 A 
HETATM   49  C   UNK N   1      29.806  17.021   7.410  0.00  0.00     0.038 A 
HETATM   50  C   UNK N   1      36.723  10.085   7.784  0.00  0.00     0.036 C 
HETATM   51  C   UNK N   1      36.353  12.075   6.458  0.00  0.00     0.012 C 
HETATM   52  C   UNK N   1      37.607  12.287   8.565  0.00  0.00     0.183 C 
HETATM   53  C   UNK N   1      26.899  19.985   5.389  0.00  0.00     0.080 A 
HETATM   54  C   UNK N   1      36.534  13.032   9.403  0.00  0.00     0.210 C 
HETATM   55  C   UNK N   1      24.996  20.143   3.900  0.00  0.00     0.069 A 
HETATM   56  C   UNK N   1      35.606  14.010   8.717  0.00  0.00     0.244 C 
HETATM   57  C   UNK N   1      25.940  20.742   4.720  0.00  0.00     0.074 A 
HETATM   58  H   UNK N   1      26.808  13.987   4.421  0.00  0.00     0.163 HD
HETATM   59  H   UNK N   1      24.205  16.643   2.865  0.00  0.00     0.163 HD
HETATM   60  H   UNK N   1      30.524  15.862   3.416  0.00  0.00     0.163 HD
HETATM   61  H   UNK N   1      31.601  13.516   7.058  0.00  0.00     0.163 HD
HETATM   62  H   UNK N   1      34.074  13.587   9.950  0.00  0.00     0.163 HD
ENDROOT
BRANCH  15  63
HETATM   63  O   UNK N   1      33.139   8.819   2.683  0.00  0.00    -0.312 OA
BRANCH  63  64
HETATM   64  C   UNK N   1      34.434   8.509   2.279  0.00  0.00     0.298 C 
HETATM   65  O   UNK N   1      34.661   7.120   2.196  0.00  0.00    -0.348 OA
HETATM   66  C   UNK N   1      36.046   6.870   2.025  0.00  0.00     0.179 C 
HETATM   67  C   UNK N   1      36.619   7.580   0.768  0.00  0.00     0.180 C 
HETATM   68  C   UNK N   1      36.302   9.066   0.747  0.00  0.00     0.183 C 
HETATM   69  C   UNK N   1      34.808   9.214   0.944  0.00  0.00     0.211 C 
BRANCH  66  70
HETATM   70  C   UNK N   1      36.199   5.360   1.861  0.00  0.00     0.198 C 
BRANCH  70  71
HETATM   71  O   UNK N   1      37.495   4.936   2.163  0.00  0.00    -0.398 OA
HETATM   72  H   UNK N   1      38.237   5.152   1.576  0.00  0.00     0.209 HD
ENDBRANCH  70  71
ENDBRANCH  66  70
BRANCH  67  73
HETATM   73  O   UNK N   1      38.002   7.411   0.676  0.00  0.00    -0.390 OA
HETATM   74  H   UNK N   1      38.553   7.358   1.472  0.00  0.00     0.210 HD
ENDBRANCH  67  73
BRANCH  68  75
HETATM   75  O   UNK N   1      36.993   9.721   1.773  0.00  0.00    -0.390 OA
HETATM   76  H   UNK N   1      36.902  10.663   1.982  0.00  0.00     0.210 HD
ENDBRANCH  68  75
BRANCH  69  77
HETATM   77  O   UNK N   1      34.386  10.555   0.769  0.00  0.00    -0.348 OA
BRANCH  77  78
HETATM   78  C   UNK N   1      33.978  10.703  -0.551  0.00  0.00     0.263 C 
HETATM   79  O   UNK N   1      35.001  10.902  -1.476  0.00  0.00    -0.354 OA
HETATM   80  C   UNK N   1      34.353  11.740  -2.395  0.00  0.00     0.151 C 
HETATM   81  C   UNK N   1      33.228  11.012  -3.160  0.00  0.00     0.174 C 
HETATM   82  C   UNK N   1      35.319  12.481  -3.291  0.00  0.00     0.042 C 
HETATM   83  C   UNK N   1      32.856   9.640  -2.491  0.00  0.00     0.055 C 
HETATM   84  C   UNK N   1      32.931   9.701  -0.987  0.00  0.00     0.093 C 
HETATM   85  C   UNK N   1      33.897   8.576  -2.832  0.00  0.00     0.041 C 
BRANCH  81  86
HETATM   86  O   UNK N   1      32.128  11.870  -3.240  0.00  0.00    -0.391 OA
HETATM   87  H   UNK N   1      31.467  12.545  -3.021  0.00  0.00     0.210 HD
ENDBRANCH  81  86
BRANCH  83  88
HETATM   88  N   UNK N   1      31.505   9.170  -2.842  0.00  0.00    -0.406 N 
HETATM   89  H   UNK N   1      30.864   9.739  -3.394  0.00  0.00     0.154 HD
BRANCH  88  90
HETATM   90  C   UNK N   1      31.137   7.847  -2.357  0.00  0.00     0.153 C 
BRANCH  90  91
HETATM   91  C   UNK N   1      29.944   7.930  -1.504  0.00  0.00    -0.041 C 
HETATM   92  C   UNK N   1      28.771   8.546  -1.946  0.00  0.00     0.009 C 
HETATM   93  C   UNK N   1      27.661   8.562  -1.103  0.00  0.00     0.013 C 
HETATM   94  C   UNK N   1      27.760   8.033   0.198  0.00  0.00    -0.026 C 
HETATM   95  C   UNK N   1      28.990   7.552   0.654  0.00  0.00     0.013 C 
HETATM   96  C   UNK N   1      30.062   7.485  -0.195  0.00  0.00     0.009 C 
BRANCH  94  97
HETATM   97  C   UNK N   1      26.589   7.406   0.815  0.00  0.00    -0.026 A 
HETATM   98  C   UNK N   1      26.056   6.291   0.154  0.00  0.00     0.014 A 
HETATM   99  C   UNK N   1      25.506   5.245   0.888  0.00  0.00     0.024 A 
HETATM  100  C   UNK N   1      25.482   5.312   2.283  0.00  0.00     0.034 A 
HETATM  101 Cl   UNK N   1      25.043   3.904   3.213  0.00  0.00    -0.084 Cl
HETATM  102  C   UNK N   1      25.901   6.467   2.942  0.00  0.00     0.024 A 
HETATM  103  C   UNK N   1      26.456   7.508   2.213  0.00  0.00     0.014 A 
ENDBRANCH  94  97
ENDBRANCH  90  91
ENDBRANCH  88  90
ENDBRANCH  83  88
ENDBRANCH  77  78
ENDBRANCH  69  77
ENDBRANCH  63  64
ENDBRANCH  15  63
BRANCH  16 104
HETATM  104  O   UNK N   1      24.762  12.086   1.471  0.00  0.00    -0.349 OA
BRANCH 104 105
HETATM  105  C   UNK N   1      24.051  10.977   1.987  0.00  0.00     0.263 C 
HETATM  106  O   UNK N   1      24.121   9.880   1.101  0.00  0.00    -0.354 OA
HETATM  107  C   UNK N   1      23.642  10.308  -0.155  0.00  0.00     0.151 C 
HETATM  108  C   UNK N   1      22.123  10.506  -0.091  0.00  0.00     0.174 C 
HETATM  109  C   UNK N   1      24.049   9.320  -1.229  0.00  0.00     0.042 C 
HETATM  110  C   UNK N   1      21.804  11.588   0.963  0.00  0.00     0.052 C 
HETATM  111  C   UNK N   1      22.570  11.312   2.268  0.00  0.00     0.093 C 
HETATM  112  C   UNK N   1      22.189  12.962   0.437  0.00  0.00     0.041 C 
BRANCH 108 113
HETATM  113  O   UNK N   1      21.513   9.292   0.244  0.00  0.00    -0.391 OA
HETATM  114  H   UNK N   1      21.069   8.700   0.872  0.00  0.00     0.210 HD
ENDBRANCH 108 113
BRANCH 110 115
HETATM  115  N   UNK N   1      20.376  11.598   1.235  0.00  0.00    -0.420 N 
HETATM  116  H   UNK N   1      19.882  12.471   1.417  0.00  0.00     0.150 HD
HETATM  117  H   UNK N   1      19.860  10.719   1.242  0.00  0.00     0.150 HD
ENDBRANCH 110 115
ENDBRANCH 104 105
ENDBRANCH  16 104
BRANCH  42 118
HETATM  118  C   UNK N   1      33.034  16.305   9.215  0.00  0.00     0.137 C 
BRANCH 118 119
HETATM  119  C   UNK N   1      34.222  17.229   9.253  0.00  0.00     0.217 C 
HETATM  120  O   UNK N   1      35.008  17.188  10.188  0.00  0.00    -0.274 OA
HETATM  121  N   UNK N   1      34.468  18.047   8.214  0.00  0.00    -0.370 N 
HETATM  122  H   UNK N   1      35.334  18.072   7.745  0.00  0.00     0.159 HD
HETATM  123  H   UNK N   1      33.751  18.649   7.909  0.00  0.00     0.159 HD
ENDBRANCH 118 119
ENDBRANCH  42 118
BRANCH  52 124
HETATM  124  O   UNK N   1      38.371  11.469   9.400  0.00  0.00    -0.388 OA
HETATM  125  H   UNK N   1      38.344  11.425  10.369  0.00  0.00     0.210 HD
ENDBRANCH  52 124
BRANCH  54 126
HETATM  126  N   UNK N   1      37.010  13.575  10.652  0.00  0.00    -0.343 N 
HETATM  127  C   UNK N   1      36.626  13.155  11.886  0.00  0.00     0.240 C 
HETATM  128  O   UNK N   1      37.187  13.627  12.861  0.00  0.00    -0.271 OA
HETATM  129  H   UNK N   1      37.666  14.309  10.608  0.00  0.00     0.163 HD
BRANCH 127 130
HETATM  130  C   UNK N   1      35.533  12.119  12.087  0.00  0.00     0.169 C 
BRANCH 130 131
HETATM  131  N   UNK N   1      36.073  10.780  12.258  0.00  0.00    -0.413 N 
HETATM  132  C   UNK N   1      35.420   9.939  11.269  0.00  0.00     0.140 C 
HETATM  133  H   UNK N   1      36.775  10.489  12.939  0.00  0.00     0.153 HD
ENDBRANCH 130 131
BRANCH 130 134
HETATM  134  C   UNK N   1      34.563  12.448  13.231  0.00  0.00     0.038 C 
BRANCH 134 135
HETATM  135  C   UNK N   1      34.687  11.665  14.544  0.00  0.00    -0.020 C 
HETATM  136  C   UNK N   1      33.441  10.813  14.688  0.00  0.00     0.009 C 
HETATM  137  C   UNK N   1      34.776  12.545  15.779  0.00  0.00     0.009 C 
ENDBRANCH 134 135
ENDBRANCH 130 134
ENDBRANCH 127 130
ENDBRANCH  54 126
BRANCH  34 138
HETATM  138  C   UNK N   1      25.146  15.770   5.432  0.00  0.00     0.168 C 
HETATM  139  O   UNK N   1      25.506  14.662   5.792  0.00  0.00    -0.648 OA
BRANCH 138 140
HETATM  140  O   UNK N   1      24.226  16.437   6.155  0.00  0.00    -0.775 OA
HETATM  141  H   UNK N   1      23.471  16.902   5.850  0.00  0.00     0.167 HD
ENDBRANCH 138 140
ENDBRANCH  34 138
BRANCH  48 142
HETATM  142  O   UNK N   1      28.815  19.129   7.695  0.00  0.00    -0.360 OA
HETATM  143  H   UNK N   1      29.608  19.563   7.943  0.00  0.00     0.217 HD
ENDBRANCH  48 142
BRANCH  53 144
HETATM  144  O   UNK N   1      27.809  20.652   6.108  0.00  0.00    -0.360 OA
HETATM  145  H   UNK N   1      28.362  21.290   5.699  0.00  0.00     0.217 HD
ENDBRANCH  53 144
BRANCH  55 146
HETATM  146  O   UNK N   1      24.092  20.896   3.258  0.00  0.00    -0.361 OA
HETATM  147  H   UNK N   1      23.339  21.263   3.678  0.00  0.00     0.217 HD
ENDBRANCH  55 146
TORSDOF 30
ENDMDL
