REMARK  11 active torsions:
REMARK  status: ('A' for Active; 'I' for Inactive)
REMARK    1  A    between atoms: O_9  and  C_33 
REMARK    2  A    between atoms: O_10  and  C_34 
REMARK       I    between atoms: N_13  and  C_19 
REMARK    3  A    between atoms: N_13  and  C_21 
REMARK       I    between atoms: N_14  and  C_20 
REMARK    4  A    between atoms: N_14  and  C_22 
REMARK    5  A    between atoms: C_15  and  C_16 
REMARK    6  A    between atoms: C_15  and  C_17 
REMARK    7  A    between atoms: C_16  and  C_18 
REMARK    8  A    between atoms: C_17  and  C_19 
REMARK    9  A    between atoms: C_18  and  C_20 
REMARK   10  A    between atoms: C_27  and  C_33 
REMARK   11  A    between atoms: C_28  and  C_34 
ROOT
HETATM    1  C   UNK N   1       6.291  -0.282  -1.258  0.00  0.00     0.010 C 
ENDROOT
BRANCH   1   2
HETATM    2  C   UNK N   1       4.803   0.086  -1.250  0.00  0.00     0.010 C 
BRANCH   2   3
HETATM    3  C   UNK N   1       4.107  -0.147   0.093  0.00  0.00     0.103 C 
BRANCH   3   4
HETATM    4  C   UNK N   1       4.125  -1.588   0.456  0.00  0.00     0.222 C 
HETATM    5  O   UNK N   1       4.665  -1.945   1.493  0.00  0.00    -0.273 OA
HETATM    6  N   UNK N   1       3.509  -2.478  -0.355  0.00  0.00    -0.325 N 
HETATM    7  H   UNK N   1       3.013  -2.123  -1.128  0.00  0.00     0.169 HD
BRANCH   6   8
HETATM    8  C   UNK N   1       3.524  -3.886  -0.177  0.00  0.00     0.069 A 
HETATM    9  C   UNK N   1       2.294  -4.573  -0.142  0.00  0.00     0.052 A 
HETATM   10  I   UNK N   1       0.534  -3.341  -0.297  0.00  0.00    -0.041 I 
HETATM   11  C   UNK N   1       2.266  -5.998  -0.006  0.00  0.00     0.073 A 
HETATM   12  C   UNK N   1       3.515  -6.686   0.082  0.00  0.00     0.026 A 
HETATM   13  I   UNK N   1       3.790  -8.786   0.269  0.00  0.00    -0.043 I 
HETATM   14  C   UNK N   1       4.708  -5.976   0.036  0.00  0.00     0.040 A 
HETATM   15  C   UNK N   1       4.735  -4.600  -0.091  0.00  0.00     0.035 A 
HETATM   16  I   UNK N   1       6.657  -3.719  -0.241  0.00  0.00    -0.042 I 
BRANCH  11  17
HETATM   17  C   UNK N   1       0.965  -6.757   0.036  0.00  0.00     0.178 C 
HETATM   18  O   UNK N   1      -0.103  -6.172  -0.017  0.00  0.00    -0.646 OA
BRANCH  17  19
HETATM   19  O   UNK N   1       0.941  -8.095   0.131  0.00  0.00    -0.773 OA
HETATM   20  H   UNK N   1       0.123  -8.548   0.198  0.00  0.00     0.167 HD
ENDBRANCH  17  19
ENDBRANCH  11  17
ENDBRANCH   6   8
ENDBRANCH   3   4
ENDBRANCH   2   3
ENDBRANCH   1   2
BRANCH   1  21
HETATM   21  C   UNK N   1       7.030   0.061   0.036  0.00  0.00     0.103 C 
BRANCH  21  22
HETATM   22  C   UNK N   1       6.902   1.505   0.395  0.00  0.00     0.222 C 
HETATM   23  O   UNK N   1       6.364   1.816   1.448  0.00  0.00    -0.273 OA
HETATM   24  N   UNK N   1       7.410   2.451  -0.432  0.00  0.00    -0.325 N 
HETATM   25  H   UNK N   1       7.867   2.157  -1.253  0.00  0.00     0.169 HD
BRANCH  24  26
HETATM   26  C   UNK N   1       7.316   3.845  -0.173  0.00  0.00     0.069 A 
HETATM   27  C   UNK N   1       6.071   4.528  -0.204  0.00  0.00     0.052 A 
HETATM   28  I   UNK N   1       4.325   3.387  -0.713  0.00  0.00    -0.041 I 
HETATM   29  C   UNK N   1       6.024   5.940   0.051  0.00  0.00     0.073 A 
HETATM   30  C   UNK N   1       7.254   6.613   0.323  0.00  0.00     0.026 A 
HETATM   31  I   UNK N   1       7.491   8.685   0.740  0.00  0.00    -0.043 I 
HETATM   32  C   UNK N   1       8.452   5.906   0.337  0.00  0.00     0.040 A 
HETATM   33  C   UNK N   1       8.492   4.547   0.091  0.00  0.00     0.035 A 
HETATM   34  I   UNK N   1      10.369   3.572   0.145  0.00  0.00    -0.042 I 
BRANCH  29  35
HETATM   35  C   UNK N   1       4.720   6.704   0.027  0.00  0.00     0.178 C 
HETATM   36  O   UNK N   1       3.655   6.129  -0.099  0.00  0.00    -0.646 OA
BRANCH  35  37
HETATM   37  O   UNK N   1       4.696   8.041   0.150  0.00  0.00    -0.773 OA
HETATM   38  H   UNK N   1       5.495   8.522   0.236  0.00  0.00     0.167 HD
ENDBRANCH  35  37
ENDBRANCH  29  35
ENDBRANCH  24  26
ENDBRANCH  21  22
ENDBRANCH   1  21
TORSDOF 11
