MODEL 1
REMARK VINA RESULT:      -7.0      0.000      0.000
REMARK  9 active torsions:
REMARK  status: ('A' for Active; 'I' for Inactive)
REMARK    1  A    between atoms: O_2  and  C_8 
REMARK    2  A    between atoms: O_2  and  C_15 
REMARK    3  A    between atoms: O_3  and  C_21 
REMARK    4  A    between atoms: N_5  and  C_13 
REMARK    5  A    between atoms: C_13  and  C_14 
REMARK    6  A    between atoms: C_14  and  C_16 
REMARK    7  A    between atoms: C_15  and  C_17 
REMARK    8  A    between atoms: C_15  and  C_18 
REMARK    9  A    between atoms: C_16  and  C_21 
ROOT
HETATM    1  C   UNK N   1      28.777  17.505   5.460  0.00  0.00     0.204 C 
ENDROOT
BRANCH   1   2
HETATM    2  O   UNK N   1      28.616  16.135   5.171  0.00  0.00    -0.370 OA
BRANCH   2   3
HETATM    3  C   UNK N   1      29.575  15.630   4.250  0.00  0.00     0.126 C 
HETATM    4  C   UNK N   1      30.665  16.589   3.704  0.00  0.00     0.062 C 
HETATM    5  C   UNK N   1      32.079  16.090   4.022  0.00  0.00     0.275 C 
HETATM    6  N   UNK N   1      32.153  15.685   5.426  0.00  0.00     0.088 N 
HETATM    7  C   UNK N   1      31.274  14.546   5.765  0.00  0.00     0.275 C 
HETATM    8  C   UNK N   1      30.153  14.311   4.749  0.00  0.00     0.062 C 
BRANCH   6   9
HETATM    9  C   UNK N   1      33.544  15.425   5.815  0.00  0.00     0.273 C 
BRANCH   9  10
HETATM   10  C   UNK N   1      33.936  16.038   7.163  0.00  0.00     0.040 C 
BRANCH  10  11
HETATM   11  C   UNK N   1      34.082  17.545   7.068  0.00  0.00     0.111 C 
BRANCH  11  12
HETATM   12  C   UNK N   1      34.499  18.110   8.387  0.00  0.00     0.139 C 
HETATM   13  O   UNK N   1      35.170  19.128   8.433  0.00  0.00    -0.650 OA
BRANCH  12  14
HETATM   14  O   UNK N   1      34.121  17.504   9.527  0.00  0.00    -0.776 OA
HETATM   15  H   UNK N   1      34.655  16.931  10.041  0.00  0.00     0.167 HD
ENDBRANCH  12  14
ENDBRANCH  11  12
ENDBRANCH  10  11
ENDBRANCH   9  10
ENDBRANCH   6   9
ENDBRANCH   2   3
ENDBRANCH   1   2
BRANCH   1  16
HETATM   16  C   UNK N   1      27.632  18.257   4.796  0.00  0.00    -0.024 A 
HETATM   17  C   UNK N   1      26.434  17.638   4.402  0.00  0.00     0.012 A 
HETATM   18  C   UNK N   1      25.439  18.361   3.739  0.00  0.00     0.024 A 
HETATM   19  C   UNK N   1      25.630  19.714   3.461  0.00  0.00     0.034 A 
HETATM   20 Cl   UNK N   1      24.399  20.610   2.600  0.00  0.00    -0.084 Cl
HETATM   21  C   UNK N   1      26.810  20.348   3.858  0.00  0.00     0.024 A 
HETATM   22  C   UNK N   1      27.804  19.622   4.522  0.00  0.00     0.012 A 
ENDBRANCH   1  16
BRANCH   1  23
HETATM   23  C   UNK N   1      29.023  17.654   6.955  0.00  0.00     0.043 A 
HETATM   24  N   UNK N   1      27.946  17.819   7.774  0.00  0.00    -0.367 N 
HETATM   25  C   UNK N   1      28.075  17.988   9.118  0.00  0.00     0.088 A 
ATOM     26  HN  UNK N   1      27.012  17.815   7.366  1.00  0.00     0.165 HD
HETATM   27  C   UNK N   1      29.340  17.999   9.704  0.00  0.00     0.017 A 
HETATM   28  C   UNK N   1      30.464  17.828   8.897  0.00  0.00     0.003 A 
HETATM   29  C   UNK N   1      30.306  17.657   7.521  0.00  0.00     0.028 A 
ENDBRANCH   1  23
TORSDOF 9
ENDMDL
MODEL 2
REMARK VINA RESULT:      -6.6      3.709      7.689
REMARK  9 active torsions:
REMARK  status: ('A' for Active; 'I' for Inactive)
REMARK    1  A    between atoms: O_2  and  C_8 
REMARK    2  A    between atoms: O_2  and  C_15 
REMARK    3  A    between atoms: O_3  and  C_21 
REMARK    4  A    between atoms: N_5  and  C_13 
REMARK    5  A    between atoms: C_13  and  C_14 
REMARK    6  A    between atoms: C_14  and  C_16 
REMARK    7  A    between atoms: C_15  and  C_17 
REMARK    8  A    between atoms: C_15  and  C_18 
REMARK    9  A    between atoms: C_16  and  C_21 
ROOT
HETATM    1  C   UNK N   1      28.800  17.393   6.174  0.00  0.00     0.204 C 
ENDROOT
BRANCH   1   2
HETATM    2  O   UNK N   1      28.776  16.641   4.981  0.00  0.00    -0.370 OA
BRANCH   2   3
HETATM    3  C   UNK N   1      27.723  15.686   4.931  0.00  0.00     0.126 C 
HETATM    4  C   UNK N   1      26.671  15.672   6.070  0.00  0.00     0.062 C 
HETATM    5  C   UNK N   1      25.249  15.890   5.540  0.00  0.00     0.275 C 
HETATM    6  N   UNK N   1      25.241  17.015   4.604  0.00  0.00     0.088 N 
HETATM    7  C   UNK N   1      26.057  16.788   3.393  0.00  0.00     0.275 C 
HETATM    8  C   UNK N   1      27.087  15.665   3.546  0.00  0.00     0.062 C 
BRANCH   6   9
HETATM    9  C   UNK N   1      23.865  17.392   4.263  0.00  0.00     0.273 C 
BRANCH   9  10
HETATM   10  C   UNK N   1      23.580  18.891   4.400  0.00  0.00     0.040 C 
BRANCH  10  11
HETATM   11  C   UNK N   1      22.491  19.341   3.446  0.00  0.00     0.111 C 
BRANCH  11  12
HETATM   12  C   UNK N   1      22.867  20.637   2.803  0.00  0.00     0.139 C 
HETATM   13  O   UNK N   1      23.995  20.802   2.369  0.00  0.00    -0.650 OA
BRANCH  12  14
HETATM   14  O   UNK N   1      21.954  21.618   2.687  0.00  0.00    -0.776 OA
HETATM   15  H   UNK N   1      22.118  22.475   2.346  0.00  0.00     0.167 HD
ENDBRANCH  12  14
ENDBRANCH  11  12
ENDBRANCH  10  11
ENDBRANCH   9  10
ENDBRANCH   6   9
ENDBRANCH   2   3
ENDBRANCH   1   2
BRANCH   1  16
HETATM   16  C   UNK N   1      30.230  17.389   6.696  0.00  0.00    -0.024 A 
HETATM   17  C   UNK N   1      30.556  17.625   8.042  0.00  0.00     0.012 A 
HETATM   18  C   UNK N   1      31.889  17.672   8.457  0.00  0.00     0.024 A 
HETATM   19  C   UNK N   1      32.914  17.484   7.531  0.00  0.00     0.034 A 
HETATM   20 Cl   UNK N   1      34.584  17.579   8.045  0.00  0.00    -0.084 Cl
HETATM   21  C   UNK N   1      32.607  17.236   6.191  0.00  0.00     0.024 A 
HETATM   22  C   UNK N   1      31.272  17.188   5.778  0.00  0.00     0.012 A 
ENDBRANCH   1  16
BRANCH   1  23
HETATM   23  C   UNK N   1      28.082  18.712   5.923  0.00  0.00     0.043 A 
HETATM   24  N   UNK N   1      27.432  19.303   6.965  0.00  0.00    -0.367 N 
HETATM   25  C   UNK N   1      26.741  20.466   6.824  0.00  0.00     0.088 A 
ATOM     26  HN  UNK N   1      27.464  18.858   7.882  1.00  0.00     0.165 HD
HETATM   27  C   UNK N   1      26.678  21.097   5.582  0.00  0.00     0.017 A 
HETATM   28  C   UNK N   1      27.336  20.523   4.495  0.00  0.00     0.003 A 
HETATM   29  C   UNK N   1      28.037  19.329   4.664  0.00  0.00     0.028 A 
ENDBRANCH   1  23
TORSDOF 9
ENDMDL
MODEL 3
REMARK VINA RESULT:      -6.2     13.037     15.822
REMARK  9 active torsions:
REMARK  status: ('A' for Active; 'I' for Inactive)
REMARK    1  A    between atoms: O_2  and  C_8 
REMARK    2  A    between atoms: O_2  and  C_15 
REMARK    3  A    between atoms: O_3  and  C_21 
REMARK    4  A    between atoms: N_5  and  C_13 
REMARK    5  A    between atoms: C_13  and  C_14 
REMARK    6  A    between atoms: C_14  and  C_16 
REMARK    7  A    between atoms: C_15  and  C_17 
REMARK    8  A    between atoms: C_15  and  C_18 
REMARK    9  A    between atoms: C_16  and  C_21 
ROOT
HETATM    1  C   UNK N   1      26.047  25.620  -8.392  0.00  0.00     0.204 C 
ENDROOT
BRANCH   1   2
HETATM    2  O   UNK N   1      27.183  24.789  -8.318  0.00  0.00    -0.370 OA
BRANCH   2   3
HETATM    3  C   UNK N   1      26.881  23.436  -8.000  0.00  0.00     0.126 C 
HETATM    4  C   UNK N   1      27.651  22.305  -8.731  0.00  0.00     0.062 C 
HETATM    5  C   UNK N   1      28.400  21.396  -7.750  0.00  0.00     0.275 C 
HETATM    6  N   UNK N   1      29.127  22.214  -6.778  0.00  0.00     0.088 N 
HETATM    7  C   UNK N   1      28.252  23.041  -5.922  0.00  0.00     0.275 C 
HETATM    8  C   UNK N   1      26.843  23.238  -6.489  0.00  0.00     0.062 C 
BRANCH   6   9
HETATM    9  C   UNK N   1      30.032  21.381  -5.978  0.00  0.00     0.273 C 
BRANCH   9  10
HETATM   10  C   UNK N   1      30.140  21.814  -4.513  0.00  0.00     0.040 C 
BRANCH  10  11
HETATM   11  C   UNK N   1      31.036  20.882  -3.720  0.00  0.00     0.111 C 
BRANCH  11  12
HETATM   12  C   UNK N   1      31.715  21.628  -2.618  0.00  0.00     0.139 C 
HETATM   13  O   UNK N   1      31.214  22.644  -2.165  0.00  0.00    -0.650 OA
BRANCH  12  14
HETATM   14  O   UNK N   1      32.873  21.168  -2.110  0.00  0.00    -0.776 OA
HETATM   15  H   UNK N   1      33.045  20.280  -1.868  0.00  0.00     0.167 HD
ENDBRANCH  12  14
ENDBRANCH  11  12
ENDBRANCH  10  11
ENDBRANCH   9  10
ENDBRANCH   6   9
ENDBRANCH   2   3
ENDBRANCH   1   2
BRANCH   1  16
HETATM   16  C   UNK N   1      26.129  26.619  -7.247  0.00  0.00    -0.024 A 
HETATM   17  C   UNK N   1      27.196  27.520  -7.089  0.00  0.00     0.012 A 
HETATM   18  C   UNK N   1      27.254  28.374  -5.985  0.00  0.00     0.024 A 
HETATM   19  C   UNK N   1      26.245  28.339  -5.023  0.00  0.00     0.034 A 
HETATM   20 Cl   UNK N   1      26.336  29.384  -3.623  0.00  0.00    -0.084 Cl
HETATM   21  C   UNK N   1      25.170  27.459  -5.172  0.00  0.00     0.024 A 
HETATM   22  C   UNK N   1      25.114  26.605  -6.279  0.00  0.00     0.012 A 
ENDBRANCH   1  16
BRANCH   1  23
HETATM   23  C   UNK N   1      25.905  26.111  -9.826  0.00  0.00     0.043 A 
HETATM   24  N   UNK N   1      27.026  26.520 -10.484  0.00  0.00    -0.367 N 
HETATM   25  C   UNK N   1      26.987  27.000 -11.756  0.00  0.00     0.088 A 
ATOM     26  HN  UNK N   1      27.925  26.464 -10.006  1.00  0.00     0.165 HD
HETATM   27  C   UNK N   1      25.771  27.089 -12.433  0.00  0.00     0.017 A 
HETATM   28  C   UNK N   1      24.605  26.675 -11.792  0.00  0.00     0.003 A 
HETATM   29  C   UNK N   1      24.670  26.186 -10.488  0.00  0.00     0.028 A 
ENDBRANCH   1  23
TORSDOF 9
ENDMDL
MODEL 4
REMARK VINA RESULT:      -6.2      8.519     10.980
REMARK  9 active torsions:
REMARK  status: ('A' for Active; 'I' for Inactive)
REMARK    1  A    between atoms: O_2  and  C_8 
REMARK    2  A    between atoms: O_2  and  C_15 
REMARK    3  A    between atoms: O_3  and  C_21 
REMARK    4  A    between atoms: N_5  and  C_13 
REMARK    5  A    between atoms: C_13  and  C_14 
REMARK    6  A    between atoms: C_14  and  C_16 
REMARK    7  A    between atoms: C_15  and  C_17 
REMARK    8  A    between atoms: C_15  and  C_18 
REMARK    9  A    between atoms: C_16  and  C_21 
ROOT
HETATM    1  C   UNK N   1      23.217  13.013   7.274  0.00  0.00     0.204 C 
ENDROOT
BRANCH   1   2
HETATM    2  O   UNK N   1      22.106  13.834   6.997  0.00  0.00    -0.370 OA
BRANCH   2   3
HETATM    3  C   UNK N   1      22.405  15.225   7.023  0.00  0.00     0.126 C 
HETATM    4  C   UNK N   1      23.209  15.840   5.848  0.00  0.00     0.062 C 
HETATM    5  C   UNK N   1      22.435  16.965   5.151  0.00  0.00     0.275 C 
HETATM    6  N   UNK N   1      21.060  16.534   4.899  0.00  0.00     0.088 N 
HETATM    7  C   UNK N   1      20.286  16.259   6.128  0.00  0.00     0.275 C 
HETATM    8  C   UNK N   1      21.158  16.033   7.366  0.00  0.00     0.062 C 
BRANCH   6   9
HETATM    9  C   UNK N   1      20.368  17.494   4.032  0.00  0.00     0.273 C 
BRANCH   9  10
HETATM   10  C   UNK N   1      21.247  18.662   3.574  0.00  0.00     0.040 C 
BRANCH  10  11
HETATM   11  C   UNK N   1      20.425  19.756   2.921  0.00  0.00     0.111 C 
BRANCH  11  12
HETATM   12  C   UNK N   1      21.309  20.671   2.137  0.00  0.00     0.139 C 
HETATM   13  O   UNK N   1      21.442  20.513   0.934  0.00  0.00    -0.650 OA
BRANCH  12  14
HETATM   14  O   UNK N   1      21.945  21.682   2.754  0.00  0.00    -0.776 OA
HETATM   15  H   UNK N   1      21.853  22.591   2.545  0.00  0.00     0.167 HD
ENDBRANCH  12  14
ENDBRANCH  11  12
ENDBRANCH  10  11
ENDBRANCH   9  10
ENDBRANCH   6   9
ENDBRANCH   2   3
ENDBRANCH   1   2
BRANCH   1  16
HETATM   16  C   UNK N   1      23.179  12.666   8.756  0.00  0.00    -0.024 A 
HETATM   17  C   UNK N   1      21.984  12.535   9.483  0.00  0.00     0.012 A 
HETATM   18  C   UNK N   1      22.006  12.276  10.855  0.00  0.00     0.024 A 
HETATM   19  C   UNK N   1      23.224  12.145  11.520  0.00  0.00     0.034 A 
HETATM   20 Cl   UNK N   1      23.252  11.856  13.245  0.00  0.00    -0.084 Cl
HETATM   21  C   UNK N   1      24.422  12.259  10.809  0.00  0.00     0.024 A 
HETATM   22  C   UNK N   1      24.397  12.517   9.435  0.00  0.00     0.012 A 
ENDBRANCH   1  16
BRANCH   1  23
HETATM   23  C   UNK N   1      23.266  11.906   6.231  0.00  0.00     0.043 A 
HETATM   24  N   UNK N   1      23.323  12.258   4.915  0.00  0.00    -0.367 N 
HETATM   25  C   UNK N   1      23.341  11.335   3.916  0.00  0.00     0.088 A 
ATOM     26  HN  UNK N   1      23.354  13.248   4.671  1.00  0.00     0.165 HD
HETATM   27  C   UNK N   1      23.299   9.975   4.219  0.00  0.00     0.017 A 
HETATM   28  C   UNK N   1      23.245   9.578   5.554  0.00  0.00     0.003 A 
HETATM   29  C   UNK N   1      23.228  10.543   6.561  0.00  0.00     0.028 A 
ENDBRANCH   1  23
TORSDOF 9
ENDMDL
MODEL 5
REMARK VINA RESULT:      -6.1      4.161      7.890
REMARK  9 active torsions:
REMARK  status: ('A' for Active; 'I' for Inactive)
REMARK    1  A    between atoms: O_2  and  C_8 
REMARK    2  A    between atoms: O_2  and  C_15 
REMARK    3  A    between atoms: O_3  and  C_21 
REMARK    4  A    between atoms: N_5  and  C_13 
REMARK    5  A    between atoms: C_13  and  C_14 
REMARK    6  A    between atoms: C_14  and  C_16 
REMARK    7  A    between atoms: C_15  and  C_17 
REMARK    8  A    between atoms: C_15  and  C_18 
REMARK    9  A    between atoms: C_16  and  C_21 
ROOT
HETATM    1  C   UNK N   1      28.516  17.536   6.098  0.00  0.00     0.204 C 
ENDROOT
BRANCH   1   2
HETATM    2  O   UNK N   1      28.324  16.877   4.867  0.00  0.00    -0.370 OA
BRANCH   2   3
HETATM    3  C   UNK N   1      27.418  15.782   4.943  0.00  0.00     0.126 C 
HETATM    4  C   UNK N   1      26.636  15.548   6.262  0.00  0.00     0.062 C 
HETATM    5  C   UNK N   1      25.119  15.586   6.044  0.00  0.00     0.275 C 
HETATM    6  N   UNK N   1      24.769  16.750   5.228  0.00  0.00     0.088 N 
HETATM    7  C   UNK N   1      25.338  16.716   3.865  0.00  0.00     0.275 C 
HETATM    8  C   UNK N   1      26.516  15.749   3.714  0.00  0.00     0.062 C 
BRANCH   6   9
HETATM    9  C   UNK N   1      23.314  16.941   5.199  0.00  0.00     0.273 C 
BRANCH   9  10
HETATM   10  C   UNK N   1      22.579  16.289   6.374  0.00  0.00     0.040 C 
BRANCH  10  11
HETATM   11  C   UNK N   1      21.092  16.581   6.333  0.00  0.00     0.111 C 
BRANCH  11  12
HETATM   12  C   UNK N   1      20.711  17.495   7.452  0.00  0.00     0.139 C 
HETATM   13  O   UNK N   1      20.375  17.037   8.531  0.00  0.00    -0.650 OA
BRANCH  12  14
HETATM   14  O   UNK N   1      20.756  18.828   7.274  0.00  0.00    -0.776 OA
HETATM   15  H   UNK N   1      20.525  19.469   7.917  0.00  0.00     0.167 HD
ENDBRANCH  12  14
ENDBRANCH  11  12
ENDBRANCH  10  11
ENDBRANCH   9  10
ENDBRANCH   6   9
ENDBRANCH   2   3
ENDBRANCH   1   2
BRANCH   1  16
HETATM   16  C   UNK N   1      29.995  17.444   6.446  0.00  0.00    -0.024 A 
HETATM   17  C   UNK N   1      30.994  17.184   5.492  0.00  0.00     0.012 A 
HETATM   18  C   UNK N   1      32.330  17.048   5.874  0.00  0.00     0.024 A 
HETATM   19  C   UNK N   1      32.687  17.170   7.217  0.00  0.00     0.034 A 
HETATM   20 Cl   UNK N   1      34.355  16.964   7.700  0.00  0.00    -0.084 Cl
HETATM   21  C   UNK N   1      31.708  17.443   8.176  0.00  0.00     0.024 A 
HETATM   22  C   UNK N   1      30.371  17.579   7.791  0.00  0.00     0.012 A 
ENDBRANCH   1  16
BRANCH   1  23
HETATM   23  C   UNK N   1      27.831  18.894   6.026  0.00  0.00     0.043 A 
HETATM   24  N   UNK N   1      27.428  19.477   7.190  0.00  0.00    -0.367 N 
HETATM   25  C   UNK N   1      26.784  20.675   7.217  0.00  0.00     0.088 A 
ATOM     26  HN  UNK N   1      27.617  19.000   8.071  1.00  0.00     0.165 HD
HETATM   27  C   UNK N   1      26.511  21.350   6.028  0.00  0.00     0.017 A 
HETATM   28  C   UNK N   1      26.913  20.784   4.819  0.00  0.00     0.003 A 
HETATM   29  C   UNK N   1      27.572  19.556   4.817  0.00  0.00     0.028 A 
ENDBRANCH   1  23
TORSDOF 9
ENDMDL
MODEL 6
REMARK VINA RESULT:      -6.1      6.861     10.386
REMARK  9 active torsions:
REMARK  status: ('A' for Active; 'I' for Inactive)
REMARK    1  A    between atoms: O_2  and  C_8 
REMARK    2  A    between atoms: O_2  and  C_15 
REMARK    3  A    between atoms: O_3  and  C_21 
REMARK    4  A    between atoms: N_5  and  C_13 
REMARK    5  A    between atoms: C_13  and  C_14 
REMARK    6  A    between atoms: C_14  and  C_16 
REMARK    7  A    between atoms: C_15  and  C_17 
REMARK    8  A    between atoms: C_15  and  C_18 
REMARK    9  A    between atoms: C_16  and  C_21 
ROOT
HETATM    1  C   UNK N   1      35.973  13.291  12.250  0.00  0.00     0.204 C 
ENDROOT
BRANCH   1   2
HETATM    2  O   UNK N   1      37.362  13.290  12.014  0.00  0.00    -0.370 OA
BRANCH   2   3
HETATM    3  C   UNK N   1      37.769  12.369  11.009  0.00  0.00     0.126 C 
HETATM    4  C   UNK N   1      36.688  11.513  10.298  0.00  0.00     0.062 C 
HETATM    5  C   UNK N   1      36.686  11.737   8.781  0.00  0.00     0.275 C 
HETATM    6  N   UNK N   1      36.731  13.172   8.497  0.00  0.00     0.088 N 
HETATM    7  C   UNK N   1      37.965  13.835   8.967  0.00  0.00     0.275 C 
HETATM    8  C   UNK N   1      38.727  13.035  10.028  0.00  0.00     0.062 C 
BRANCH   6   9
HETATM    9  C   UNK N   1      36.495  13.423   7.070  0.00  0.00     0.273 C 
BRANCH   9  10
HETATM   10  C   UNK N   1      35.149  14.089   6.772  0.00  0.00     0.040 C 
BRANCH  10  11
HETATM   11  C   UNK N   1      35.311  15.291   5.862  0.00  0.00     0.111 C 
BRANCH  11  12
HETATM   12  C   UNK N   1      34.220  16.281   6.109  0.00  0.00     0.139 C 
HETATM   13  O   UNK N   1      33.052  15.948   5.992  0.00  0.00    -0.650 OA
BRANCH  12  14
HETATM   14  O   UNK N   1      34.524  17.538   6.479  0.00  0.00    -0.776 OA
HETATM   15  H   UNK N   1      34.443  18.298   5.937  0.00  0.00     0.167 HD
ENDBRANCH  12  14
ENDBRANCH  11  12
ENDBRANCH  10  11
ENDBRANCH   9  10
ENDBRANCH   6   9
ENDBRANCH   2   3
ENDBRANCH   1   2
BRANCH   1  16
HETATM   16  C   UNK N   1      35.759  13.225  13.756  0.00  0.00    -0.024 A 
HETATM   17  C   UNK N   1      34.736  12.469  14.353  0.00  0.00     0.012 A 
HETATM   18  C   UNK N   1      34.544  12.492  15.736  0.00  0.00     0.024 A 
HETATM   19  C   UNK N   1      35.373  13.271  16.542  0.00  0.00     0.034 A 
HETATM   20 Cl   UNK N   1      35.110  13.328  18.270  0.00  0.00    -0.084 Cl
HETATM   21  C   UNK N   1      36.403  14.018  15.965  0.00  0.00     0.024 A 
HETATM   22  C   UNK N   1      36.594  13.993  14.580  0.00  0.00     0.012 A 
ENDBRANCH   1  16
BRANCH   1  23
HETATM   23  C   UNK N   1      35.350  14.419  11.439  0.00  0.00     0.043 A 
HETATM   24  N   UNK N   1      34.204  14.162  10.747  0.00  0.00    -0.367 N 
HETATM   25  C   UNK N   1      33.596  15.102   9.974  0.00  0.00     0.088 A 
ATOM     26  HN  UNK N   1      33.789  13.233  10.810  1.00  0.00     0.165 HD
HETATM   27  C   UNK N   1      34.142  16.380   9.867  0.00  0.00     0.017 A 
HETATM   28  C   UNK N   1      35.310  16.680  10.566  0.00  0.00     0.003 A 
HETATM   29  C   UNK N   1      35.916  15.700  11.352  0.00  0.00     0.028 A 
ENDBRANCH   1  23
TORSDOF 9
ENDMDL
MODEL 7
REMARK VINA RESULT:      -6.0      6.084      8.923
REMARK  9 active torsions:
REMARK  status: ('A' for Active; 'I' for Inactive)
REMARK    1  A    between atoms: O_2  and  C_8 
REMARK    2  A    between atoms: O_2  and  C_15 
REMARK    3  A    between atoms: O_3  and  C_21 
REMARK    4  A    between atoms: N_5  and  C_13 
REMARK    5  A    between atoms: C_13  and  C_14 
REMARK    6  A    between atoms: C_14  and  C_16 
REMARK    7  A    between atoms: C_15  and  C_17 
REMARK    8  A    between atoms: C_15  and  C_18 
REMARK    9  A    between atoms: C_16  and  C_21 
ROOT
HETATM    1  C   UNK N   1      22.266  16.620   4.704  0.00  0.00     0.204 C 
ENDROOT
BRANCH   1   2
HETATM    2  O   UNK N   1      21.744  16.933   5.976  0.00  0.00    -0.370 OA
BRANCH   2   3
HETATM    3  C   UNK N   1      20.657  16.102   6.366  0.00  0.00     0.126 C 
HETATM    4  C   UNK N   1      20.482  14.725   5.674  0.00  0.00     0.062 C 
HETATM    5  C   UNK N   1      20.515  13.569   6.680  0.00  0.00     0.275 C 
HETATM    6  N   UNK N   1      21.644  13.747   7.595  0.00  0.00     0.088 N 
HETATM    7  C   UNK N   1      21.549  14.962   8.430  0.00  0.00     0.275 C 
HETATM    8  C   UNK N   1      20.573  16.009   7.885  0.00  0.00     0.062 C 
BRANCH   6   9
HETATM    9  C   UNK N   1      21.838  12.545   8.414  0.00  0.00     0.273 C 
BRANCH   9  10
HETATM   10  C   UNK N   1      22.366  12.833   9.823  0.00  0.00     0.040 C 
BRANCH  10  11
HETATM   11  C   UNK N   1      22.947  11.589  10.466  0.00  0.00     0.111 C 
BRANCH  11  12
HETATM   12  C   UNK N   1      23.669  11.944  11.724  0.00  0.00     0.139 C 
HETATM   13  O   UNK N   1      23.096  11.882  12.800  0.00  0.00    -0.650 OA
BRANCH  12  14
HETATM   14  O   UNK N   1      24.961  12.317  11.674  0.00  0.00    -0.776 OA
HETATM   15  H   UNK N   1      25.611  12.111  12.316  0.00  0.00     0.167 HD
ENDBRANCH  12  14
ENDBRANCH  11  12
ENDBRANCH  10  11
ENDBRANCH   9  10
ENDBRANCH   6   9
ENDBRANCH   2   3
ENDBRANCH   1   2
BRANCH   1  16
HETATM   16  C   UNK N   1      21.897  17.756   3.760  0.00  0.00    -0.024 A 
HETATM   17  C   UNK N   1      22.522  19.014   3.793  0.00  0.00     0.012 A 
HETATM   18  C   UNK N   1      22.103  20.043   2.946  0.00  0.00     0.024 A 
HETATM   19  C   UNK N   1      21.052  19.827   2.054  0.00  0.00     0.034 A 
HETATM   20 Cl   UNK N   1      20.504  21.126   1.019  0.00  0.00    -0.084 Cl
HETATM   21  C   UNK N   1      20.429  18.578   2.001  0.00  0.00     0.024 A 
HETATM   22  C   UNK N   1      20.851  17.549   2.849  0.00  0.00     0.012 A 
ENDBRANCH   1  16
BRANCH   1  23
HETATM   23  C   UNK N   1      23.722  16.208   4.872  0.00  0.00     0.043 A 
HETATM   24  N   UNK N   1      24.208  16.049   6.135  0.00  0.00    -0.367 N 
HETATM   25  C   UNK N   1      25.503  15.711   6.378  0.00  0.00     0.088 A 
ATOM     26  HN  UNK N   1      23.579  16.188   6.926  1.00  0.00     0.165 HD
HETATM   27  C   UNK N   1      26.386  15.516   5.317  0.00  0.00     0.017 A 
HETATM   28  C   UNK N   1      25.922  15.665   4.011  0.00  0.00     0.003 A 
HETATM   29  C   UNK N   1      24.589  16.013   3.787  0.00  0.00     0.028 A 
ENDBRANCH   1  23
TORSDOF 9
ENDMDL
MODEL 8
REMARK VINA RESULT:      -6.0      3.822      7.198
REMARK  9 active torsions:
REMARK  status: ('A' for Active; 'I' for Inactive)
REMARK    1  A    between atoms: O_2  and  C_8 
REMARK    2  A    between atoms: O_2  and  C_15 
REMARK    3  A    between atoms: O_3  and  C_21 
REMARK    4  A    between atoms: N_5  and  C_13 
REMARK    5  A    between atoms: C_13  and  C_14 
REMARK    6  A    between atoms: C_14  and  C_16 
REMARK    7  A    between atoms: C_15  and  C_17 
REMARK    8  A    between atoms: C_15  and  C_18 
REMARK    9  A    between atoms: C_16  and  C_21 
ROOT
HETATM    1  C   UNK N   1      32.304  16.642   7.850  0.00  0.00     0.204 C 
ENDROOT
BRANCH   1   2
HETATM    2  O   UNK N   1      33.004  17.465   6.944  0.00  0.00    -0.370 OA
BRANCH   2   3
HETATM    3  C   UNK N   1      33.390  16.797   5.749  0.00  0.00     0.126 C 
HETATM    4  C   UNK N   1      32.904  15.342   5.514  0.00  0.00     0.062 C 
HETATM    5  C   UNK N   1      32.088  15.212   4.223  0.00  0.00     0.275 C 
HETATM    6  N   UNK N   1      31.103  16.292   4.154  0.00  0.00     0.088 N 
HETATM    7  C   UNK N   1      31.701  17.641   4.079  0.00  0.00     0.275 C 
HETATM    8  C   UNK N   1      33.161  17.693   4.538  0.00  0.00     0.062 C 
BRANCH   6   9
HETATM    9  C   UNK N   1      30.159  16.060   3.053  0.00  0.00     0.273 C 
BRANCH   9  10
HETATM   10  C   UNK N   1      28.786  16.703   3.268  0.00  0.00     0.040 C 
BRANCH  10  11
HETATM   11  C   UNK N   1      27.706  15.658   3.467  0.00  0.00     0.111 C 
BRANCH  11  12
HETATM   12  C   UNK N   1      27.127  15.765   4.841  0.00  0.00     0.139 C 
HETATM   13  O   UNK N   1      26.377  16.686   5.120  0.00  0.00    -0.650 OA
BRANCH  12  14
HETATM   14  O   UNK N   1      27.421  14.835   5.767  0.00  0.00    -0.776 OA
HETATM   15  H   UNK N   1      27.232  14.902   6.682  0.00  0.00     0.167 HD
ENDBRANCH  12  14
ENDBRANCH  11  12
ENDBRANCH  10  11
ENDBRANCH   9  10
ENDBRANCH   6   9
ENDBRANCH   2   3
ENDBRANCH   1   2
BRANCH   1  16
HETATM   16  C   UNK N   1      33.253  16.296   8.989  0.00  0.00    -0.024 A 
HETATM   17  C   UNK N   1      34.361  17.089   9.334  0.00  0.00     0.012 A 
HETATM   18  C   UNK N   1      35.236  16.693  10.348  0.00  0.00     0.024 A 
HETATM   19  C   UNK N   1      35.015  15.498  11.032  0.00  0.00     0.034 A 
HETATM   20 Cl   UNK N   1      36.131  14.985  12.277  0.00  0.00    -0.084 Cl
HETATM   21  C   UNK N   1      33.911  14.704  10.710  0.00  0.00     0.024 A 
HETATM   22  C   UNK N   1      33.036  15.103   9.695  0.00  0.00     0.012 A 
ENDBRANCH   1  16
BRANCH   1  23
HETATM   23  C   UNK N   1      30.960  17.291   8.146  0.00  0.00     0.043 A 
HETATM   24  N   UNK N   1      30.831  18.018   9.292  0.00  0.00    -0.367 N 
HETATM   25  C   UNK N   1      29.658  18.608   9.650  0.00  0.00     0.088 A 
ATOM     26  HN  UNK N   1      31.640  18.123   9.903  1.00  0.00     0.165 HD
HETATM   27  C   UNK N   1      28.534  18.481   8.835  0.00  0.00     0.017 A 
HETATM   28  C   UNK N   1      28.631  17.749   7.653  0.00  0.00     0.003 A 
HETATM   29  C   UNK N   1      29.844  17.153   7.308  0.00  0.00     0.028 A 
ENDBRANCH   1  23
TORSDOF 9
ENDMDL
MODEL 9
REMARK VINA RESULT:      -6.0      8.273     11.632
REMARK  9 active torsions:
REMARK  status: ('A' for Active; 'I' for Inactive)
REMARK    1  A    between atoms: O_2  and  C_8 
REMARK    2  A    between atoms: O_2  and  C_15 
REMARK    3  A    between atoms: O_3  and  C_21 
REMARK    4  A    between atoms: N_5  and  C_13 
REMARK    5  A    between atoms: C_13  and  C_14 
REMARK    6  A    between atoms: C_14  and  C_16 
REMARK    7  A    between atoms: C_15  and  C_17 
REMARK    8  A    between atoms: C_15  and  C_18 
REMARK    9  A    between atoms: C_16  and  C_21 
ROOT
HETATM    1  C   UNK N   1      35.874  12.255  14.025  0.00  0.00     0.204 C 
ENDROOT
BRANCH   1   2
HETATM    2  O   UNK N   1      35.224  13.404  13.531  0.00  0.00    -0.370 OA
BRANCH   2   3
HETATM    3  C   UNK N   1      36.011  14.154  12.614  0.00  0.00     0.126 C 
HETATM    4  C   UNK N   1      36.801  13.399  11.513  0.00  0.00     0.062 C 
HETATM    5  C   UNK N   1      36.399  13.855  10.105  0.00  0.00     0.275 C 
HETATM    6  N   UNK N   1      34.940  13.904  10.002  0.00  0.00     0.088 N 
HETATM    7  C   UNK N   1      34.311  14.892  10.905  0.00  0.00     0.275 C 
HETATM    8  C   UNK N   1      35.214  15.330  12.062  0.00  0.00     0.062 C 
BRANCH   6   9
HETATM    9  C   UNK N   1      34.528  14.110   8.609  0.00  0.00     0.273 C 
BRANCH   9  10
HETATM   10  C   UNK N   1      34.937  15.470   8.035  0.00  0.00     0.040 C 
BRANCH  10  11
HETATM   11  C   UNK N   1      33.729  16.282   7.611  0.00  0.00     0.111 C 
BRANCH  11  12
HETATM   12  C   UNK N   1      34.157  17.612   7.082  0.00  0.00     0.139 C 
HETATM   13  O   UNK N   1      34.071  17.855   5.890  0.00  0.00    -0.650 OA
BRANCH  12  14
HETATM   14  O   UNK N   1      34.623  18.552   7.926  0.00  0.00    -0.776 OA
HETATM   15  H   UNK N   1      34.892  19.415   7.682  0.00  0.00     0.167 HD
ENDBRANCH  12  14
ENDBRANCH  11  12
ENDBRANCH  10  11
ENDBRANCH   9  10
ENDBRANCH   6   9
ENDBRANCH   2   3
ENDBRANCH   1   2
BRANCH   1  16
HETATM   16  C   UNK N   1      35.712  12.247  15.539  0.00  0.00    -0.024 A 
HETATM   17  C   UNK N   1      35.850  11.086  16.319  0.00  0.00     0.012 A 
HETATM   18  C   UNK N   1      35.630  11.121  17.698  0.00  0.00     0.024 A 
HETATM   19  C   UNK N   1      35.269  12.317  18.316  0.00  0.00     0.034 A 
HETATM   20 Cl   UNK N   1      34.959  12.353  20.037  0.00  0.00    -0.084 Cl
HETATM   21  C   UNK N   1      35.141  13.483  17.556  0.00  0.00     0.024 A 
HETATM   22  C   UNK N   1      35.362  13.446  16.176  0.00  0.00     0.012 A 
ENDBRANCH   1  16
BRANCH   1  23
HETATM   23  C   UNK N   1      35.421  11.057  13.202  0.00  0.00     0.043 A 
HETATM   24  N   UNK N   1      34.154  11.059  12.699  0.00  0.00    -0.367 N 
HETATM   25  C   UNK N   1      33.658  10.019  11.977  0.00  0.00     0.088 A 
ATOM     26  HN  UNK N   1      33.558  11.869  12.869  1.00  0.00     0.165 HD
HETATM   27  C   UNK N   1      34.449   8.897  11.730  0.00  0.00     0.017 A 
HETATM   28  C   UNK N   1      35.752   8.863  12.225  0.00  0.00     0.003 A 
HETATM   29  C   UNK N   1      36.238   9.942  12.963  0.00  0.00     0.028 A 
ENDBRANCH   1  23
TORSDOF 9
ENDMDL
