REMARK  6 active torsions:
REMARK  status: ('A' for Active; 'I' for Inactive)
REMARK    1  A    between atoms: O_2  and  C_9 
REMARK    2  A    between atoms: O_2  and  C_12 
REMARK    3  A    between atoms: O_3  and  C_23 
REMARK    4  A    between atoms: C_8  and  C_9 
REMARK    5  A    between atoms: C_13  and  C_18 
REMARK    6  A    between atoms: C_20  and  C_23 
ROOT
HETATM    1  N   UNK N   1       0.489  -2.792   0.361  0.00  0.00    -0.191 NA
HETATM    2  C   UNK N   1       4.013  -2.142   0.144  0.00  0.00     0.089 C 
HETATM    3  C   UNK N   1       3.808   0.343  -0.794  0.00  0.00    -0.001 C 
HETATM    4  C   UNK N   1       2.739  -1.632  -0.156  0.00  0.00     0.078 C 
HETATM    5  C   UNK N   1       5.168  -1.493  -0.325  0.00  0.00     0.039 C 
HETATM    6  C   UNK N   1       2.645  -0.378  -0.656  0.00  0.00     0.039 C 
HETATM    7  C   UNK N   1       5.056  -0.236  -0.830  0.00  0.00     0.017 C 
HETATM    8  C   UNK N   1       1.512  -2.302   0.141  0.00  0.00     0.102 C 
ENDROOT
BRANCH   2   9
HETATM    9  O   UNK N   1       4.129  -3.226   0.904  0.00  0.00    -0.349 OA
BRANCH   9  10
HETATM   10  C   UNK N   1       5.258  -3.989   0.886  0.00  0.00     0.179 C 
BRANCH  10  11
HETATM   11  C   UNK N   1       5.083  -4.924  -0.281  0.00  0.00     0.002 C 
HETATM   12  C   UNK N   1       6.158  -5.972  -0.226  0.00  0.00     0.011 C 
HETATM   13  C   UNK N   1       3.715  -5.587  -0.185  0.00  0.00     0.011 C 
ENDBRANCH  10  11
ENDBRANCH   9  10
ENDBRANCH   2   9
BRANCH   3  14
HETATM   14  C   UNK N   1       3.785   1.571  -0.112  0.00  0.00     0.085 C 
HETATM   15  S   UNK N   1       2.430   2.412   0.156  0.00  0.00    -0.063 SA
HETATM   16  C   UNK N   1       3.155   3.841   0.298  0.00  0.00     0.102 C 
HETATM   17  C   UNK N   1       4.548   3.611   0.305  0.00  0.00     0.030 C 
HETATM   18  N   UNK N   1       4.885   2.318   0.087  0.00  0.00    -0.352 N 
HETATM   19  C   UNK N   1       5.598   4.651   0.248  0.00  0.00     0.070 C 
ATOM     20  HN  UNK N   1       5.841   1.960   0.074  1.00  0.00     0.166 HD
BRANCH  16  21
HETATM   21  C   UNK N   1       2.403   5.049   0.087  0.00  0.00     0.185 C 
HETATM   22  O   UNK N   1       2.978   6.101  -0.108  0.00  0.00    -0.646 OA
BRANCH  21  23
HETATM   23  O   UNK N   1       1.075   4.954  -0.133  0.00  0.00    -0.772 OA
HETATM   24  H   UNK N   1       0.557   5.719  -0.285  0.00  0.00     0.167 HD
ENDBRANCH  21  23
ENDBRANCH  16  21
ENDBRANCH   3  14
TORSDOF 6
