REMARK  3 active torsions:
REMARK  status: ('A' for Active; 'I' for Inactive)
REMARK    1  A    between atoms: C_8  and  O_1 
REMARK    2  A    between atoms: C_11  and  O_2 
REMARK    3  A    between atoms: O_3  and  C_21 
ROOT
HETATM    1  C   UNK N   1       7.379   1.153  -0.132  0.00  0.00    -0.011 C 
HETATM    2  C   UNK N   1       7.325  -0.215   0.544  0.00  0.00     0.003 C 
HETATM    3  C   UNK N   1       6.020  -0.948   0.195  0.00  0.00    -0.001 C 
HETATM    4  C   UNK N   1       4.831  -0.096   0.714  0.00  0.00     0.023 C 
HETATM    5  C   UNK N   1       8.769   1.581   0.301  0.00  0.00     0.155 C 
HETATM    6  C   UNK N   1       6.230   2.019   0.387  0.00  0.00     0.013 C 
HETATM    7  C   UNK N   1       8.646  -0.855   0.134  0.00  0.00     0.040 C 
HETATM    8  C   UNK N   1       9.642   0.322   0.127  0.00  0.00     0.148 C 
HETATM    9  C   UNK N   1       4.887   1.320   0.096  0.00  0.00     0.010 C 
HETATM   10  C   UNK N   1       5.946  -2.332   0.825  0.00  0.00     0.010 C 
HETATM   11  C   UNK N   1       7.302   1.069  -1.668  0.00  0.00     0.018 C 
HETATM   12  C   UNK N   1       3.515  -0.790   0.425  0.00  0.00    -0.047 A 
HETATM   13  C   UNK N   1       4.689  -3.066   0.346  0.00  0.00     0.039 C 
HETATM   14  C   UNK N   1       3.461  -2.194   0.242  0.00  0.00    -0.049 A 
HETATM   15  C   UNK N   1       2.327  -0.044   0.362  0.00  0.00     0.011 A 
HETATM   16  C   UNK N   1       2.236  -2.808  -0.042  0.00  0.00     0.044 A 
HETATM   17  C   UNK N   1       1.111  -0.670   0.080  0.00  0.00     0.037 A 
HETATM   18  C   UNK N   1       1.067  -2.048  -0.131  0.00  0.00     0.066 A 
ENDROOT
BRANCH   5  19
HETATM   19  O   UNK N   1       9.252   2.700  -0.387  0.00  0.00    -0.392 OA
HETATM   20  H   UNK N   1      10.092   2.797  -0.863  0.00  0.00     0.210 HD
ENDBRANCH   5  19
BRANCH   8  21
HETATM   21  O   UNK N   1      10.312   0.334  -1.098  0.00  0.00    -0.393 OA
HETATM   22  H   UNK N   1      10.552  -0.065  -1.949  0.00  0.00     0.210 HD
ENDBRANCH   8  21
BRANCH  18  23
HETATM   23  O   UNK N   1      -0.101  -2.646  -0.415  0.00  0.00    -0.361 OA
HETATM   24  H   UNK N   1      -0.870  -2.149  -0.614  0.00  0.00     0.217 HD
ENDBRANCH  18  23
TORSDOF 3
