REMARK  4 active torsions:
REMARK  status: ('A' for Active; 'I' for Inactive)
REMARK    1  A    between atoms: O_3  and  C_23 
REMARK    2  A    between atoms: C_9  and  C_10 
REMARK    3  A    between atoms: C_11  and  C_12 
REMARK    4  A    between atoms: C_14  and  C_23 
ROOT
HETATM    1  O   UNK N   1       2.853   1.979  -0.135  0.00  0.00    -0.217 OA
HETATM    2  N   UNK N   1       4.628   0.723   0.059  0.00  0.00    -0.318 N 
ATOM      3  HN  UNK N   1       5.594   0.410   0.153  1.00  0.00     0.169 HD
HETATM    4  N   UNK N   1       2.415   0.752  -0.129  0.00  0.00    -0.242 N 
ATOM      5  HN  UNK N   1       1.446   0.443  -0.199  1.00  0.00     0.196 HD
HETATM    6  C   UNK N   1       3.513  -0.022  -0.010  0.00  0.00     0.138 A 
HETATM    7  C   UNK N   1       4.164   1.979  -0.024  0.00  0.00     0.185 A 
ENDROOT
BRANCH   6   8
HETATM    8  C   UNK N   1       3.536  -1.491   0.026  0.00  0.00     0.011 A 
HETATM    9  C   UNK N   1       2.363  -2.254  -0.071  0.00  0.00     0.033 A 
HETATM   10  C   UNK N   1       2.434  -3.660  -0.044  0.00  0.00     0.038 A 
HETATM   11  C   UNK N   1       3.681  -4.287   0.081  0.00  0.00     0.018 A 
HETATM   12  C   UNK N   1       4.846  -3.529   0.178  0.00  0.00     0.002 A 
HETATM   13  C   UNK N   1       4.773  -2.139   0.150  0.00  0.00     0.015 A 
BRANCH  10  14
HETATM   14  C   UNK N   1       1.217  -4.486  -0.147  0.00  0.00     0.176 C 
HETATM   15  O   UNK N   1       0.120  -3.960  -0.259  0.00  0.00    -0.646 OA
BRANCH  14  16
HETATM   16  O   UNK N   1       1.308  -5.830  -0.120  0.00  0.00    -0.773 OA
HETATM   17  H   UNK N   1       0.531  -6.353  -0.101  0.00  0.00     0.167 HD
ENDBRANCH  14  16
ENDBRANCH  10  14
ENDBRANCH   6   8
BRANCH   7  18
HETATM   18  C   UNK N   1       5.030   3.173  -0.012  0.00  0.00     0.056 A 
HETATM   19  C   UNK N   1       6.432   3.049   0.109  0.00  0.00     0.131 A 
HETATM   20  F   UNK N   1       7.021   1.832   0.225  0.00  0.00    -0.205 F 
HETATM   21  C   UNK N   1       7.239   4.189   0.109  0.00  0.00     0.043 A 
HETATM   22  C   UNK N   1       6.665   5.455  -0.011  0.00  0.00     0.003 A 
HETATM   23  C   UNK N   1       5.279   5.585  -0.130  0.00  0.00     0.001 A 
HETATM   24  C   UNK N   1       4.463   4.449  -0.130  0.00  0.00     0.019 A 
ENDBRANCH   7  18
TORSDOF 4
