MODEL 1
REMARK VINA RESULT:      -7.6      0.000      0.000
REMARK  4 active torsions:
REMARK  status: ('A' for Active; 'I' for Inactive)
REMARK    1  A    between atoms: O_3  and  C_23 
REMARK    2  A    between atoms: C_9  and  C_10 
REMARK    3  A    between atoms: C_11  and  C_12 
REMARK    4  A    between atoms: C_14  and  C_23 
ROOT
HETATM    1  O   UNK N   1      36.948  14.295  15.467  0.00  0.00    -0.217 OA
HETATM    2  N   UNK N   1      35.246  13.261  14.574  0.00  0.00    -0.318 N 
ATOM      3  HN  UNK N   1      34.434  12.659  14.438  1.00  0.00     0.169 HD
HETATM    4  N   UNK N   1      36.890  14.716  14.235  0.00  0.00    -0.242 N 
ATOM      5  HN  UNK N   1      37.509  15.388  13.783  1.00  0.00     0.196 HD
HETATM    6  C   UNK N   1      35.839  14.075  13.685  0.00  0.00     0.138 A 
HETATM    7  C   UNK N   1      35.980  13.432  15.684  0.00  0.00     0.185 A 
ENDROOT
BRANCH   6   8
HETATM    8  C   UNK N   1      35.376  14.206  12.296  0.00  0.00     0.011 A 
HETATM    9  C   UNK N   1      35.161  15.457  11.700  0.00  0.00     0.033 A 
HETATM   10  C   UNK N   1      34.729  15.534  10.363  0.00  0.00     0.038 A 
HETATM   11  C   UNK N   1      34.516  14.355   9.635  0.00  0.00     0.018 A 
HETATM   12  C   UNK N   1      34.730  13.112  10.227  0.00  0.00     0.002 A 
HETATM   13  C   UNK N   1      35.158  13.039  11.550  0.00  0.00     0.015 A 
BRANCH  10  14
HETATM   14  C   UNK N   1      34.497  16.837   9.711  0.00  0.00     0.176 C 
HETATM   15  O   UNK N   1      35.383  17.677   9.677  0.00  0.00    -0.646 OA
BRANCH  14  16
HETATM   16  O   UNK N   1      33.304  17.107   9.146  0.00  0.00    -0.773 OA
HETATM   17  H   UNK N   1      33.252  17.695   8.418  0.00  0.00     0.167 HD
ENDBRANCH  14  16
ENDBRANCH  10  14
ENDBRANCH   6   8
BRANCH   7  18
HETATM   18  C   UNK N   1      35.724  12.720  16.950  0.00  0.00     0.056 A 
HETATM   19  C   UNK N   1      35.367  13.428  18.119  0.00  0.00     0.131 A 
HETATM   20  F   UNK N   1      35.256  14.780  18.114  0.00  0.00    -0.205 F 
HETATM   21  C   UNK N   1      35.119  12.738  19.308  0.00  0.00     0.043 A 
HETATM   22  C   UNK N   1      35.223  11.347  19.347  0.00  0.00     0.003 A 
HETATM   23  C   UNK N   1      35.576  10.641  18.194  0.00  0.00     0.001 A 
HETATM   24  C   UNK N   1      35.827  11.323  17.000  0.00  0.00     0.019 A 
ENDBRANCH   7  18
TORSDOF 4
ENDMDL
MODEL 2
REMARK VINA RESULT:      -7.4      1.888      2.674
REMARK  4 active torsions:
REMARK  status: ('A' for Active; 'I' for Inactive)
REMARK    1  A    between atoms: O_3  and  C_23 
REMARK    2  A    between atoms: C_9  and  C_10 
REMARK    3  A    between atoms: C_11  and  C_12 
REMARK    4  A    between atoms: C_14  and  C_23 
ROOT
HETATM    1  O   UNK N   1      36.270  14.547  13.325  0.00  0.00    -0.217 OA
HETATM    2  N   UNK N   1      34.523  13.679  12.345  0.00  0.00    -0.318 N 
ATOM      3  HN  UNK N   1      33.723  13.085  12.128  1.00  0.00     0.169 HD
HETATM    4  N   UNK N   1      36.072  15.268  12.258  0.00  0.00    -0.242 N 
ATOM      5  HN  UNK N   1      36.618  16.071  11.946  1.00  0.00     0.196 HD
HETATM    6  C   UNK N   1      34.993  14.730  11.653  0.00  0.00     0.138 A 
HETATM    7  C   UNK N   1      35.359  13.600  13.391  0.00  0.00     0.185 A 
ENDROOT
BRANCH   6   8
HETATM    8  C   UNK N   1      34.388  15.187  10.395  0.00  0.00     0.011 A 
HETATM    9  C   UNK N   1      34.774  16.387   9.779  0.00  0.00     0.033 A 
HETATM   10  C   UNK N   1      34.176  16.780   8.567  0.00  0.00     0.038 A 
HETATM   11  C   UNK N   1      33.194  15.967   7.985  0.00  0.00     0.018 A 
HETATM   12  C   UNK N   1      32.810  14.776   8.597  0.00  0.00     0.002 A 
HETATM   13  C   UNK N   1      33.405  14.389   9.795  0.00  0.00     0.015 A 
BRANCH  10  14
HETATM   14  C   UNK N   1      34.565  18.035   7.897  0.00  0.00     0.176 C 
HETATM   15  O   UNK N   1      34.316  18.207   6.714  0.00  0.00    -0.646 OA
BRANCH  14  16
HETATM   16  O   UNK N   1      35.198  19.002   8.589  0.00  0.00    -0.773 OA
HETATM   17  H   UNK N   1      35.338  18.906   9.511  0.00  0.00     0.167 HD
ENDBRANCH  14  16
ENDBRANCH  10  14
ENDBRANCH   6   8
BRANCH   7  18
HETATM   18  C   UNK N   1      35.258  12.570  14.442  0.00  0.00     0.056 A 
HETATM   19  C   UNK N   1      36.066  12.636  15.599  0.00  0.00     0.131 A 
HETATM   20  F   UNK N   1      36.961  13.641  15.774  0.00  0.00    -0.205 F 
HETATM   21  C   UNK N   1      35.952  11.658  16.590  0.00  0.00     0.043 A 
HETATM   22  C   UNK N   1      35.040  10.612  16.442  0.00  0.00     0.003 A 
HETATM   23  C   UNK N   1      34.239  10.541  15.300  0.00  0.00     0.001 A 
HETATM   24  C   UNK N   1      34.347  11.515  14.302  0.00  0.00     0.019 A 
ENDBRANCH   7  18
TORSDOF 4
ENDMDL
MODEL 3
REMARK VINA RESULT:      -7.3      3.519      8.444
REMARK  4 active torsions:
REMARK  status: ('A' for Active; 'I' for Inactive)
REMARK    1  A    between atoms: O_3  and  C_23 
REMARK    2  A    between atoms: C_9  and  C_10 
REMARK    3  A    between atoms: C_11  and  C_12 
REMARK    4  A    between atoms: C_14  and  C_23 
ROOT
HETATM    1  O   UNK N   1      34.671  17.537   9.901  0.00  0.00    -0.217 OA
HETATM    2  N   UNK N   1      34.534  15.382   9.582  0.00  0.00    -0.318 N 
ATOM      3  HN  UNK N   1      34.319  14.468   9.184  1.00  0.00     0.169 HD
HETATM    4  N   UNK N   1      35.289  16.994  10.910  0.00  0.00    -0.242 N 
ATOM      5  HN  UNK N   1      35.743  17.474  11.686  1.00  0.00     0.196 HD
HETATM    6  C   UNK N   1      35.202  15.662  10.712  0.00  0.00     0.138 A 
HETATM    7  C   UNK N   1      34.217  16.594   9.103  0.00  0.00     0.185 A 
ENDROOT
BRANCH   6   8
HETATM    8  C   UNK N   1      35.739  14.619  11.597  0.00  0.00     0.011 A 
HETATM    9  C   UNK N   1      35.978  14.853  12.960  0.00  0.00     0.033 A 
HETATM   10  C   UNK N   1      36.481  13.820  13.773  0.00  0.00     0.038 A 
HETATM   11  C   UNK N   1      36.741  12.562  13.212  0.00  0.00     0.018 A 
HETATM   12  C   UNK N   1      36.504  12.330  11.859  0.00  0.00     0.002 A 
HETATM   13  C   UNK N   1      36.006  13.353  11.057  0.00  0.00     0.015 A 
BRANCH  10  14
HETATM   14  C   UNK N   1      36.738  14.038  15.209  0.00  0.00     0.176 C 
HETATM   15  O   UNK N   1      36.102  13.423  16.051  0.00  0.00    -0.646 OA
BRANCH  14  16
HETATM   16  O   UNK N   1      37.681  14.917  15.601  0.00  0.00    -0.773 OA
HETATM   17  H   UNK N   1      37.746  15.166  16.502  0.00  0.00     0.167 HD
ENDBRANCH  14  16
ENDBRANCH  10  14
ENDBRANCH   6   8
BRANCH   7  18
HETATM   18  C   UNK N   1      33.446  16.808   7.864  0.00  0.00     0.056 A 
HETATM   19  C   UNK N   1      32.051  16.586   7.831  0.00  0.00     0.131 A 
HETATM   20  F   UNK N   1      31.382  16.164   8.934  0.00  0.00    -0.205 F 
HETATM   21  C   UNK N   1      31.335  16.802   6.652  0.00  0.00     0.043 A 
HETATM   22  C   UNK N   1      31.992  17.238   5.501  0.00  0.00     0.003 A 
HETATM   23  C   UNK N   1      33.372  17.459   5.526  0.00  0.00     0.001 A 
HETATM   24  C   UNK N   1      34.098  17.244   6.702  0.00  0.00     0.019 A 
ENDBRANCH   7  18
TORSDOF 4
ENDMDL
MODEL 4
REMARK VINA RESULT:      -7.0      1.704      2.169
REMARK  4 active torsions:
REMARK  status: ('A' for Active; 'I' for Inactive)
REMARK    1  A    between atoms: O_3  and  C_23 
REMARK    2  A    between atoms: C_9  and  C_10 
REMARK    3  A    between atoms: C_11  and  C_12 
REMARK    4  A    between atoms: C_14  and  C_23 
ROOT
HETATM    1  O   UNK N   1      36.960  14.443  15.357  0.00  0.00    -0.217 OA
HETATM    2  N   UNK N   1      35.384  13.372  14.291  0.00  0.00    -0.318 N 
ATOM      3  HN  UNK N   1      34.630  12.726  14.061  1.00  0.00     0.169 HD
HETATM    4  N   UNK N   1      36.916  14.976  14.169  0.00  0.00    -0.242 N 
ATOM      5  HN  UNK N   1      37.496  15.735  13.812  1.00  0.00     0.196 HD
HETATM    6  C   UNK N   1      35.943  14.312  13.512  0.00  0.00     0.138 A 
HETATM    7  C   UNK N   1      36.056  13.491  15.446  0.00  0.00     0.185 A 
ENDROOT
BRANCH   6   8
HETATM    8  C   UNK N   1      35.527  14.541  12.121  0.00  0.00     0.011 A 
HETATM    9  C   UNK N   1      34.918  13.537  11.354  0.00  0.00     0.033 A 
HETATM   10  C   UNK N   1      34.524  13.805  10.029  0.00  0.00     0.038 A 
HETATM   11  C   UNK N   1      34.747  15.077   9.486  0.00  0.00     0.018 A 
HETATM   12  C   UNK N   1      35.353  16.074  10.247  0.00  0.00     0.002 A 
HETATM   13  C   UNK N   1      35.740  15.807  11.558  0.00  0.00     0.015 A 
BRANCH  10  14
HETATM   14  C   UNK N   1      33.879  12.769   9.202  0.00  0.00     0.176 C 
HETATM   15  O   UNK N   1      34.539  12.105   8.416  0.00  0.00    -0.646 OA
BRANCH  14  16
HETATM   16  O   UNK N   1      32.555  12.546   9.309  0.00  0.00    -0.773 OA
HETATM   17  H   UNK N   1      32.240  11.810   9.795  0.00  0.00     0.167 HD
ENDBRANCH  14  16
ENDBRANCH  10  14
ENDBRANCH   6   8
BRANCH   7  18
HETATM   18  C   UNK N   1      35.810  12.641  16.626  0.00  0.00     0.056 A 
HETATM   19  C   UNK N   1      35.388  13.207  17.850  0.00  0.00     0.131 A 
HETATM   20  F   UNK N   1      35.205  14.546  17.977  0.00  0.00    -0.205 F 
HETATM   21  C   UNK N   1      35.149  12.388  18.956  0.00  0.00     0.043 A 
HETATM   22  C   UNK N   1      35.326  11.008  18.857  0.00  0.00     0.003 A 
HETATM   23  C   UNK N   1      35.744  10.441  17.651  0.00  0.00     0.001 A 
HETATM   24  C   UNK N   1      35.986  11.254  16.538  0.00  0.00     0.019 A 
ENDBRANCH   7  18
TORSDOF 4
ENDMDL
MODEL 5
REMARK VINA RESULT:      -7.0      1.564      1.887
REMARK  4 active torsions:
REMARK  status: ('A' for Active; 'I' for Inactive)
REMARK    1  A    between atoms: O_3  and  C_23 
REMARK    2  A    between atoms: C_9  and  C_10 
REMARK    3  A    between atoms: C_11  and  C_12 
REMARK    4  A    between atoms: C_14  and  C_23 
ROOT
HETATM    1  O   UNK N   1      34.135  11.531  14.888  0.00  0.00    -0.217 OA
HETATM    2  N   UNK N   1      35.907  12.804  14.817  0.00  0.00    -0.318 N 
ATOM      3  HN  UNK N   1      36.739  13.331  15.082  1.00  0.00     0.169 HD
HETATM    4  N   UNK N   1      34.251  11.902  13.644  0.00  0.00    -0.242 N 
ATOM      5  HN  UNK N   1      33.642  11.649  12.866  1.00  0.00     0.196 HD
HETATM    6  C   UNK N   1      35.345  12.689  13.603  0.00  0.00     0.138 A 
HETATM    7  C   UNK N   1      35.110  12.058  15.596  0.00  0.00     0.185 A 
ENDROOT
BRANCH   6   8
HETATM    8  C   UNK N   1      35.879  13.366  12.413  0.00  0.00     0.011 A 
HETATM    9  C   UNK N   1      35.243  14.479  11.844  0.00  0.00     0.033 A 
HETATM   10  C   UNK N   1      35.798  15.104  10.711  0.00  0.00     0.038 A 
HETATM   11  C   UNK N   1      36.984  14.605  10.158  0.00  0.00     0.018 A 
HETATM   12  C   UNK N   1      37.616  13.498  10.722  0.00  0.00     0.002 A 
HETATM   13  C   UNK N   1      37.066  12.883  11.843  0.00  0.00     0.015 A 
BRANCH  10  14
HETATM   14  C   UNK N   1      35.151  16.277  10.095  0.00  0.00     0.176 C 
HETATM   15  O   UNK N   1      34.231  16.133   9.305  0.00  0.00    -0.646 OA
BRANCH  14  16
HETATM   16  O   UNK N   1      35.572  17.520  10.403  0.00  0.00    -0.773 OA
HETATM   17  H   UNK N   1      36.454  17.776  10.221  0.00  0.00     0.167 HD
ENDBRANCH  14  16
ENDBRANCH  10  14
ENDBRANCH   6   8
BRANCH   7  18
HETATM   18  C   UNK N   1      35.313  11.888  17.048  0.00  0.00     0.056 A 
HETATM   19  C   UNK N   1      35.088  12.960  17.940  0.00  0.00     0.131 A 
HETATM   20  F   UNK N   1      34.688  14.176  17.489  0.00  0.00    -0.205 F 
HETATM   21  C   UNK N   1      35.275  12.780  19.312  0.00  0.00     0.043 A 
HETATM   22  C   UNK N   1      35.684  11.542  19.809  0.00  0.00     0.003 A 
HETATM   23  C   UNK N   1      35.908  10.478  18.932  0.00  0.00     0.001 A 
HETATM   24  C   UNK N   1      35.725  10.649  17.556  0.00  0.00     0.019 A 
ENDBRANCH   7  18
TORSDOF 4
ENDMDL
MODEL 6
REMARK VINA RESULT:      -7.0      8.201     11.991
REMARK  4 active torsions:
REMARK  status: ('A' for Active; 'I' for Inactive)
REMARK    1  A    between atoms: O_3  and  C_23 
REMARK    2  A    between atoms: C_9  and  C_10 
REMARK    3  A    between atoms: C_11  and  C_12 
REMARK    4  A    between atoms: C_14  and  C_23 
ROOT
HETATM    1  O   UNK N   1      28.078  18.915   7.765  0.00  0.00    -0.217 OA
HETATM    2  N   UNK N   1      29.317  17.885   6.291  0.00  0.00    -0.318 N 
ATOM      3  HN  UNK N   1      29.666  17.488   5.419  1.00  0.00     0.169 HD
HETATM    4  N   UNK N   1      29.125  18.496   8.418  0.00  0.00    -0.242 N 
ATOM      5  HN  UNK N   1      29.324  18.624   9.410  1.00  0.00     0.196 HD
HETATM    6  C   UNK N   1      29.888  17.860   7.506  0.00  0.00     0.138 A 
HETATM    7  C   UNK N   1      28.177  18.561   6.502  0.00  0.00     0.185 A 
ENDROOT
BRANCH   6   8
HETATM    8  C   UNK N   1      31.173  17.196   7.766  0.00  0.00     0.011 A 
HETATM    9  C   UNK N   1      32.297  17.905   8.214  0.00  0.00     0.033 A 
HETATM   10  C   UNK N   1      33.506  17.226   8.462  0.00  0.00     0.038 A 
HETATM   11  C   UNK N   1      33.575  15.841   8.256  0.00  0.00     0.018 A 
HETATM   12  C   UNK N   1      32.458  15.137   7.810  0.00  0.00     0.002 A 
HETATM   13  C   UNK N   1      31.265  15.811   7.567  0.00  0.00     0.015 A 
BRANCH  10  14
HETATM   14  C   UNK N   1      34.701  17.946   8.936  0.00  0.00     0.176 C 
HETATM   15  O   UNK N   1      35.353  17.513   9.874  0.00  0.00    -0.646 OA
BRANCH  14  16
HETATM   16  O   UNK N   1      35.084  19.089   8.335  0.00  0.00    -0.773 OA
HETATM   17  H   UNK N   1      34.767  19.299   7.479  0.00  0.00     0.167 HD
ENDBRANCH  14  16
ENDBRANCH  10  14
ENDBRANCH   6   8
BRANCH   7  18
HETATM   18  C   UNK N   1      27.182  18.834   5.448  0.00  0.00     0.056 A 
HETATM   19  C   UNK N   1      26.920  20.156   5.024  0.00  0.00     0.131 A 
HETATM   20  F   UNK N   1      27.569  21.211   5.578  0.00  0.00    -0.205 F 
HETATM   21  C   UNK N   1      25.982  20.397   4.018  0.00  0.00     0.043 A 
HETATM   22  C   UNK N   1      25.300  19.333   3.426  0.00  0.00     0.003 A 
HETATM   23  C   UNK N   1      25.553  18.023   3.840  0.00  0.00     0.001 A 
HETATM   24  C   UNK N   1      26.490  17.773   4.848  0.00  0.00     0.019 A 
ENDBRANCH   7  18
TORSDOF 4
ENDMDL
MODEL 7
REMARK VINA RESULT:      -6.8      9.938     13.518
REMARK  4 active torsions:
REMARK  status: ('A' for Active; 'I' for Inactive)
REMARK    1  A    between atoms: O_3  and  C_23 
REMARK    2  A    between atoms: C_9  and  C_10 
REMARK    3  A    between atoms: C_11  and  C_12 
REMARK    4  A    between atoms: C_14  and  C_23 
ROOT
HETATM    1  O   UNK N   1      27.713  18.243   6.021  0.00  0.00    -0.217 OA
HETATM    2  N   UNK N   1      28.629  18.272   4.040  0.00  0.00    -0.318 N 
ATOM      3  HN  UNK N   1      28.786  18.405   3.041  1.00  0.00     0.169 HD
HETATM    4  N   UNK N   1      28.909  17.754   6.181  0.00  0.00    -0.242 N 
ATOM      5  HN  UNK N   1      29.330  17.427   7.051  1.00  0.00     0.196 HD
HETATM    6  C   UNK N   1      29.474  17.772   4.957  0.00  0.00     0.138 A 
HETATM    7  C   UNK N   1      27.531  18.555   4.756  0.00  0.00     0.185 A 
ENDROOT
BRANCH   6   8
HETATM    8  C   UNK N   1      30.824  17.301   4.619  0.00  0.00     0.011 A 
HETATM    9  C   UNK N   1      31.883  17.365   5.537  0.00  0.00     0.033 A 
HETATM   10  C   UNK N   1      33.158  16.891   5.174  0.00  0.00     0.038 A 
HETATM   11  C   UNK N   1      33.359  16.358   3.894  0.00  0.00     0.018 A 
HETATM   12  C   UNK N   1      32.308  16.296   2.982  0.00  0.00     0.002 A 
HETATM   13  C   UNK N   1      31.048  16.765   3.344  0.00  0.00     0.015 A 
BRANCH  10  14
HETATM   14  C   UNK N   1      34.288  16.943   6.121  0.00  0.00     0.176 C 
HETATM   15  O   UNK N   1      35.072  16.010   6.199  0.00  0.00    -0.646 OA
BRANCH  14  16
HETATM   16  O   UNK N   1      34.463  18.024   6.905  0.00  0.00    -0.773 OA
HETATM   17  H   UNK N   1      34.979  18.745   6.603  0.00  0.00     0.167 HD
ENDBRANCH  14  16
ENDBRANCH  10  14
ENDBRANCH   6   8
BRANCH   7  18
HETATM   18  C   UNK N   1      26.298  19.118   4.173  0.00  0.00     0.056 A 
HETATM   19  C   UNK N   1      25.037  18.548   4.459  0.00  0.00     0.131 A 
HETATM   20  F   UNK N   1      24.924  17.465   5.269  0.00  0.00    -0.205 F 
HETATM   21  C   UNK N   1      23.878  19.098   3.907  0.00  0.00     0.043 A 
HETATM   22  C   UNK N   1      23.959  20.213   3.072  0.00  0.00     0.003 A 
HETATM   23  C   UNK N   1      25.203  20.781   2.785  0.00  0.00     0.001 A 
HETATM   24  C   UNK N   1      26.369  20.236   3.332  0.00  0.00     0.019 A 
ENDBRANCH   7  18
TORSDOF 4
ENDMDL
MODEL 8
REMARK VINA RESULT:      -6.7      3.899      8.504
REMARK  4 active torsions:
REMARK  status: ('A' for Active; 'I' for Inactive)
REMARK    1  A    between atoms: O_3  and  C_23 
REMARK    2  A    between atoms: C_9  and  C_10 
REMARK    3  A    between atoms: C_11  and  C_12 
REMARK    4  A    between atoms: C_14  and  C_23 
ROOT
HETATM    1  O   UNK N   1      35.022  17.316   9.860  0.00  0.00    -0.217 OA
HETATM    2  N   UNK N   1      34.817  15.148   9.707  0.00  0.00    -0.318 N 
ATOM      3  HN  UNK N   1      34.650  14.208   9.348  1.00  0.00     0.169 HD
HETATM    4  N   UNK N   1      35.307  16.853  11.044  0.00  0.00    -0.242 N 
ATOM      5  HN  UNK N   1      35.572  17.390  11.868  1.00  0.00     0.196 HD
HETATM    6  C   UNK N   1      35.179  15.514  10.947  0.00  0.00     0.138 A 
HETATM    7  C   UNK N   1      34.729  16.317   9.055  0.00  0.00     0.185 A 
ENDROOT
BRANCH   6   8
HETATM    8  C   UNK N   1      35.382  14.545  12.034  0.00  0.00     0.011 A 
HETATM    9  C   UNK N   1      34.834  13.255  11.989  0.00  0.00     0.033 A 
HETATM   10  C   UNK N   1      35.065  12.356  13.048  0.00  0.00     0.038 A 
HETATM   11  C   UNK N   1      35.842  12.760  14.142  0.00  0.00     0.018 A 
HETATM   12  C   UNK N   1      36.385  14.042  14.187  0.00  0.00     0.002 A 
HETATM   13  C   UNK N   1      36.156  14.929  13.138  0.00  0.00     0.015 A 
BRANCH  10  14
HETATM   14  C   UNK N   1      34.503  10.992  13.025  0.00  0.00     0.176 C 
HETATM   15  O   UNK N   1      34.840  10.171  13.864  0.00  0.00    -0.646 OA
BRANCH  14  16
HETATM   16  O   UNK N   1      33.612  10.644  12.077  0.00  0.00    -0.773 OA
HETATM   17  H   UNK N   1      33.905  10.255  11.277  0.00  0.00     0.167 HD
ENDBRANCH  14  16
ENDBRANCH  10  14
ENDBRANCH   6   8
BRANCH   7  18
HETATM   18  C   UNK N   1      34.335  16.435   7.639  0.00  0.00     0.056 A 
HETATM   19  C   UNK N   1      33.482  17.476   7.210  0.00  0.00     0.131 A 
HETATM   20  F   UNK N   1      32.995  18.391   8.086  0.00  0.00    -0.205 F 
HETATM   21  C   UNK N   1      33.126  17.580   5.863  0.00  0.00     0.043 A 
HETATM   22  C   UNK N   1      33.611  16.657   4.936  0.00  0.00     0.003 A 
HETATM   23  C   UNK N   1      34.454  15.625   5.353  0.00  0.00     0.001 A 
HETATM   24  C   UNK N   1      34.815  15.512   6.700  0.00  0.00     0.019 A 
ENDBRANCH   7  18
TORSDOF 4
ENDMDL
MODEL 9
REMARK VINA RESULT:      -6.6     13.741     15.456
REMARK  4 active torsions:
REMARK  status: ('A' for Active; 'I' for Inactive)
REMARK    1  A    between atoms: O_3  and  C_23 
REMARK    2  A    between atoms: C_9  and  C_10 
REMARK    3  A    between atoms: C_11  and  C_12 
REMARK    4  A    between atoms: C_14  and  C_23 
ROOT
HETATM    1  O   UNK N   1      20.902  12.917   7.743  0.00  0.00    -0.217 OA
HETATM    2  N   UNK N   1      22.367  14.534   7.818  0.00  0.00    -0.318 N 
ATOM      3  HN  UNK N   1      23.137  15.137   8.105  1.00  0.00     0.169 HD
HETATM    4  N   UNK N   1      20.657  13.660   6.701  0.00  0.00    -0.242 N 
ATOM      5  HN  UNK N   1      19.934  13.516   5.998  1.00  0.00     0.196 HD
HETATM    6  C   UNK N   1      21.563  14.658   6.750  0.00  0.00     0.138 A 
HETATM    7  C   UNK N   1      21.913  13.422   8.416  0.00  0.00     0.185 A 
ENDROOT
BRANCH   6   8
HETATM    8  C   UNK N   1      21.680  15.767   5.793  0.00  0.00     0.011 A 
HETATM    9  C   UNK N   1      20.773  15.934   4.736  0.00  0.00     0.033 A 
HETATM   10  C   UNK N   1      20.918  17.018   3.849  0.00  0.00     0.038 A 
HETATM   11  C   UNK N   1      21.971  17.924   4.031  0.00  0.00     0.018 A 
HETATM   12  C   UNK N   1      22.872  17.758   5.081  0.00  0.00     0.002 A 
HETATM   13  C   UNK N   1      22.727  16.686   5.956  0.00  0.00     0.015 A 
BRANCH  10  14
HETATM   14  C   UNK N   1      19.977  17.219   2.732  0.00  0.00     0.176 C 
HETATM   15  O   UNK N   1      20.237  16.786   1.619  0.00  0.00    -0.646 OA
BRANCH  14  16
HETATM   16  O   UNK N   1      18.821  17.881   2.932  0.00  0.00    -0.773 OA
HETATM   17  H   UNK N   1      18.815  18.818   2.958  0.00  0.00     0.167 HD
ENDBRANCH  14  16
ENDBRANCH  10  14
ENDBRANCH   6   8
BRANCH   7  18
HETATM   18  C   UNK N   1      22.477  12.877   9.666  0.00  0.00     0.056 A 
HETATM   19  C   UNK N   1      21.640  12.554  10.757  0.00  0.00     0.131 A 
HETATM   20  F   UNK N   1      20.298  12.741  10.690  0.00  0.00    -0.205 F 
HETATM   21  C   UNK N   1      22.189  12.031  11.930  0.00  0.00     0.043 A 
HETATM   22  C   UNK N   1      23.565  11.824  12.029  0.00  0.00     0.003 A 
HETATM   23  C   UNK N   1      24.399  12.142  10.955  0.00  0.00     0.001 A 
HETATM   24  C   UNK N   1      23.858  12.668   9.776  0.00  0.00     0.019 A 
ENDBRANCH   7  18
TORSDOF 4
ENDMDL
