MODEL 1
REMARK VINA RESULT:      -7.1      0.000      0.000
REMARK  7 active torsions:
REMARK  status: ('A' for Active; 'I' for Inactive)
REMARK    1  A    between atoms: C_14  and  O_1 
REMARK    2  A    between atoms: C_21  and  O_3 
REMARK    3  A    between atoms: O_3  and  C_27 
REMARK    4  A    between atoms: C_20  and  O_4 
REMARK    5  A    between atoms: O_5  and  C_25 
REMARK    6  A    between atoms: C_23  and  C_25 
REMARK    7  A    between atoms: C_27  and  C_28 
ROOT
HETATM    1  O   UNK N   1      33.540  14.046   4.321  0.00  0.00    -0.296 OA
HETATM    2  C   UNK N   1      31.521  16.816   4.896  0.00  0.00     0.013 A 
HETATM    3  C   UNK N   1      30.644  15.867   5.793  0.00  0.00    -0.000 A 
HETATM    4  C   UNK N   1      30.536  15.973   4.225  0.00  0.00    -0.039 A 
HETATM    5  C   UNK N   1      33.033  16.472   4.993  0.00  0.00     0.085 C 
HETATM    6  C   UNK N   1      31.605  15.796   7.016  0.00  0.00     0.011 C 
HETATM    7  C   UNK N   1      32.976  13.929   6.806  0.00  0.00     0.079 A 
HETATM    8  C   UNK N   1      33.231  15.051   6.890  0.00  0.00     0.005 A 
HETATM    9  C   UNK N   1      33.122  14.473   8.514  0.00  0.00     0.136 A 
HETATM   10  C   UNK N   1      33.122  14.721   5.256  0.00  0.00     0.150 A 
HETATM   11  C   UNK N   1      31.020  14.840   3.328  0.00  0.00     0.015 C 
HETATM   12  C   UNK N   1      29.216  16.611   3.831  0.00  0.00     0.015 C 
HETATM   13  C   UNK N   1      33.467  17.519   6.276  0.00  0.00    -0.007 C 
HETATM   14  C   UNK N   1      33.976  12.798   6.819  0.00  0.00    -0.001 A 
HETATM   15  C   UNK N   1      33.443  16.230   8.938  0.00  0.00     0.188 C 
HETATM   16  C   UNK N   1      34.091  13.411   9.121  0.00  0.00     0.199 A 
HETATM   17  C   UNK N   1      34.940  15.362   6.865  0.00  0.00     0.011 C 
HETATM   18  C   UNK N   1      33.601  17.485   7.759  0.00  0.00    -0.028 C 
HETATM   19  C   UNK N   1      34.547  12.551   7.988  0.00  0.00    -0.054 A 
HETATM   20  C   UNK N   1      35.500  11.417   8.158  0.00  0.00     0.046 C 
ENDROOT
BRANCH  16  21
HETATM   21  O   UNK N   1      35.117  13.874   9.919  0.00  0.00    -0.305 OA
BRANCH  21  22
HETATM   22  C   UNK N   1      35.187  13.502  11.231  0.00  0.00     0.289 C 
HETATM   23  O   UNK N   1      34.524  14.099  12.068  0.00  0.00    -0.260 OA
BRANCH  22  24
HETATM   24  C   UNK N   1      36.068  12.372  11.642  0.00  0.00     0.009 C 
HETATM   25  C   UNK N   1      37.532  12.613  11.782  0.00  0.00     0.054 C 
HETATM   26  C   UNK N   1      35.613  11.130  11.903  0.00  0.00    -0.018 C 
HETATM   27  C   UNK N   1      34.180  10.705  11.811  0.00  0.00     0.036 C 
ENDBRANCH  22  24
ENDBRANCH  21  22
ENDBRANCH  16  21
BRANCH   9  28
HETATM   28  O   UNK N   1      31.912  14.163   9.157  0.00  0.00    -0.382 OA
HETATM   29  H   UNK N   1      30.983  14.200   9.434  0.00  0.00     0.210 HD
ENDBRANCH   9  28
BRANCH  15  30
HETATM   30  O   UNK N   1      34.372  16.368   9.968  0.00  0.00    -0.388 OA
HETATM   31  H   UNK N   1      34.936  15.619  10.219  0.00  0.00     0.210 HD
ENDBRANCH  15  30
BRANCH  18  32
HETATM   32  C   UNK N   1      33.893  18.832   8.339  0.00  0.00     0.200 C 
BRANCH  32  33
HETATM   33  O   UNK N   1      35.269  19.044   8.423  0.00  0.00    -0.397 OA
HETATM   34  H   UNK N   1      35.740  19.886   8.327  0.00  0.00     0.209 HD
ENDBRANCH  32  33
ENDBRANCH  18  32
TORSDOF 7
ENDMDL
MODEL 2
REMARK VINA RESULT:      -7.0      5.215      9.420
REMARK  7 active torsions:
REMARK  status: ('A' for Active; 'I' for Inactive)
REMARK    1  A    between atoms: C_14  and  O_1 
REMARK    2  A    between atoms: C_21  and  O_3 
REMARK    3  A    between atoms: O_3  and  C_27 
REMARK    4  A    between atoms: C_20  and  O_4 
REMARK    5  A    between atoms: O_5  and  C_25 
REMARK    6  A    between atoms: C_23  and  C_25 
REMARK    7  A    between atoms: C_27  and  C_28 
ROOT
HETATM    1  O   UNK N   1      29.365  14.276   4.394  0.00  0.00    -0.296 OA
HETATM    2  C   UNK N   1      31.524  16.504   5.959  0.00  0.00     0.013 A 
HETATM    3  C   UNK N   1      31.400  17.383   4.661  0.00  0.00    -0.000 A 
HETATM    4  C   UNK N   1      32.371  16.153   4.822  0.00  0.00    -0.039 A 
HETATM    5  C   UNK N   1      30.191  15.783   6.302  0.00  0.00     0.085 C 
HETATM    6  C   UNK N   1      29.970  17.939   4.926  0.00  0.00     0.011 C 
HETATM    7  C   UNK N   1      28.410  16.581   3.862  0.00  0.00     0.079 A 
HETATM    8  C   UNK N   1      28.538  16.861   4.973  0.00  0.00     0.005 A 
HETATM    9  C   UNK N   1      27.548  18.101   4.289  0.00  0.00     0.136 A 
HETATM   10  C   UNK N   1      29.401  15.449   4.749  0.00  0.00     0.150 A 
HETATM   11  C   UNK N   1      32.111  14.847   4.082  0.00  0.00     0.015 C 
HETATM   12  C   UNK N   1      33.813  16.622   4.850  0.00  0.00     0.015 C 
HETATM   13  C   UNK N   1      29.504  16.961   7.336  0.00  0.00    -0.007 C 
HETATM   14  C   UNK N   1      27.258  15.796   3.281  0.00  0.00    -0.001 A 
HETATM   15  C   UNK N   1      27.650  18.821   5.974  0.00  0.00     0.188 C 
HETATM   16  C   UNK N   1      26.120  17.848   3.713  0.00  0.00     0.199 A 
HETATM   17  C   UNK N   1      27.335  16.139   5.998  0.00  0.00     0.011 C 
HETATM   18  C   UNK N   1      28.583  18.129   7.255  0.00  0.00    -0.028 C 
HETATM   19  C   UNK N   1      26.100  16.437   3.223  0.00  0.00    -0.054 A 
HETATM   20  C   UNK N   1      24.898  15.805   2.607  0.00  0.00     0.046 C 
ENDROOT
BRANCH  16  21
HETATM   21  O   UNK N   1      25.047  18.175   4.517  0.00  0.00    -0.305 OA
BRANCH  21  22
HETATM   22  C   UNK N   1      24.113  19.070   4.083  0.00  0.00     0.289 C 
HETATM   23  O   UNK N   1      24.459  20.191   3.737  0.00  0.00    -0.260 OA
BRANCH  22  24
HETATM   24  C   UNK N   1      22.674  18.682   4.028  0.00  0.00     0.009 C 
HETATM   25  C   UNK N   1      21.760  19.432   3.122  0.00  0.00     0.054 C 
HETATM   26  C   UNK N   1      22.145  17.678   4.755  0.00  0.00    -0.018 C 
HETATM   27  C   UNK N   1      22.910  16.821   5.717  0.00  0.00     0.036 C 
ENDBRANCH  22  24
ENDBRANCH  21  22
ENDBRANCH  16  21
BRANCH   9  28
HETATM   28  O   UNK N   1      28.030  19.109   3.438  0.00  0.00    -0.382 OA
HETATM   29  H   UNK N   1      28.348  19.567   2.643  0.00  0.00     0.210 HD
ENDBRANCH   9  28
BRANCH  15  30
HETATM   30  O   UNK N   1      26.418  19.292   6.427  0.00  0.00    -0.388 OA
HETATM   31  H   UNK N   1      26.324  19.613   7.337  0.00  0.00     0.210 HD
ENDBRANCH  15  30
BRANCH  18  32
HETATM   32  C   UNK N   1      28.487  18.873   8.549  0.00  0.00     0.200 C 
BRANCH  32  33
HETATM   33  O   UNK N   1      27.472  18.345   9.346  0.00  0.00    -0.397 OA
HETATM   34  H   UNK N   1      27.190  17.419   9.401  0.00  0.00     0.209 HD
ENDBRANCH  32  33
ENDBRANCH  18  32
TORSDOF 7
ENDMDL
MODEL 3
REMARK VINA RESULT:      -7.0     13.546     17.225
REMARK  7 active torsions:
REMARK  status: ('A' for Active; 'I' for Inactive)
REMARK    1  A    between atoms: C_14  and  O_1 
REMARK    2  A    between atoms: C_21  and  O_3 
REMARK    3  A    between atoms: O_3  and  C_27 
REMARK    4  A    between atoms: C_20  and  O_4 
REMARK    5  A    between atoms: O_5  and  C_25 
REMARK    6  A    between atoms: C_23  and  C_25 
REMARK    7  A    between atoms: C_27  and  C_28 
ROOT
HETATM    1  O   UNK N   1      33.599  23.800  -5.177  0.00  0.00    -0.296 OA
HETATM    2  C   UNK N   1      32.471  20.536  -5.564  0.00  0.00     0.013 A 
HETATM    3  C   UNK N   1      32.005  20.624  -4.064  0.00  0.00    -0.000 A 
HETATM    4  C   UNK N   1      33.473  20.292  -4.530  0.00  0.00    -0.039 A 
HETATM    5  C   UNK N   1      32.303  21.891  -6.304  0.00  0.00     0.085 C 
HETATM    6  C   UNK N   1      30.753  21.522  -4.291  0.00  0.00     0.011 C 
HETATM    7  C   UNK N   1      31.344  23.751  -3.984  0.00  0.00     0.079 A 
HETATM    8  C   UNK N   1      30.903  23.203  -4.898  0.00  0.00     0.005 A 
HETATM    9  C   UNK N   1      29.547  23.695  -3.946  0.00  0.00     0.136 A 
HETATM   10  C   UNK N   1      32.561  23.152  -5.084  0.00  0.00     0.150 A 
HETATM   11  C   UNK N   1      34.602  21.298  -4.341  0.00  0.00     0.015 C 
HETATM   12  C   UNK N   1      33.813  18.849  -4.208  0.00  0.00     0.015 C 
HETATM   13  C   UNK N   1      30.725  21.665  -6.929  0.00  0.00    -0.007 C 
HETATM   14  C   UNK N   1      31.549  25.242  -3.870  0.00  0.00    -0.001 A 
HETATM   15  C   UNK N   1      28.587  22.812  -5.239  0.00  0.00     0.188 C 
HETATM   16  C   UNK N   1      29.171  25.186  -3.682  0.00  0.00     0.199 A 
HETATM   17  C   UNK N   1      30.632  24.254  -6.254  0.00  0.00     0.011 C 
HETATM   18  C   UNK N   1      29.314  21.958  -6.554  0.00  0.00    -0.028 C 
HETATM   19  C   UNK N   1      30.446  25.963  -3.733  0.00  0.00    -0.054 A 
HETATM   20  C   UNK N   1      30.509  27.440  -3.538  0.00  0.00     0.046 C 
ENDROOT
BRANCH  16  21
HETATM   21  O   UNK N   1      28.158  25.728  -4.445  0.00  0.00    -0.305 OA
BRANCH  21  22
HETATM   22  C   UNK N   1      26.955  26.028  -3.873  0.00  0.00     0.289 C 
HETATM   23  O   UNK N   1      26.313  25.150  -3.312  0.00  0.00    -0.260 OA
BRANCH  22  24
HETATM   24  C   UNK N   1      26.425  27.420  -3.931  0.00  0.00     0.009 C 
HETATM   25  C   UNK N   1      26.968  28.437  -2.988  0.00  0.00     0.054 C 
HETATM   26  C   UNK N   1      25.475  27.820  -4.800  0.00  0.00    -0.018 C 
HETATM   27  C   UNK N   1      24.814  26.937  -5.814  0.00  0.00     0.036 C 
ENDBRANCH  22  24
ENDBRANCH  21  22
ENDBRANCH  16  21
BRANCH   9  28
HETATM   28  O   UNK N   1      29.172  23.083  -2.740  0.00  0.00    -0.382 OA
HETATM   29  H   UNK N   1      28.639  22.800  -1.979  0.00  0.00     0.210 HD
ENDBRANCH   9  28
BRANCH  15  30
HETATM   30  O   UNK N   1      27.460  23.526  -5.645  0.00  0.00    -0.388 OA
HETATM   31  H   UNK N   1      26.953  23.237  -6.419  0.00  0.00     0.210 HD
ENDBRANCH  15  30
BRANCH  18  32
HETATM   32  C   UNK N   1      28.331  21.345  -7.500  0.00  0.00     0.200 C 
BRANCH  32  33
HETATM   33  O   UNK N   1      27.914  22.278  -8.449  0.00  0.00    -0.397 OA
HETATM   34  H   UNK N   1      27.011  22.598  -8.600  0.00  0.00     0.209 HD
ENDBRANCH  32  33
ENDBRANCH  18  32
TORSDOF 7
ENDMDL
MODEL 4
REMARK VINA RESULT:      -7.0      9.516     13.833
REMARK  7 active torsions:
REMARK  status: ('A' for Active; 'I' for Inactive)
REMARK    1  A    between atoms: C_14  and  O_1 
REMARK    2  A    between atoms: C_21  and  O_3 
REMARK    3  A    between atoms: O_3  and  C_27 
REMARK    4  A    between atoms: C_20  and  O_4 
REMARK    5  A    between atoms: O_5  and  C_25 
REMARK    6  A    between atoms: C_23  and  C_25 
REMARK    7  A    between atoms: C_27  and  C_28 
ROOT
HETATM    1  O   UNK N   1      25.224  13.847   7.350  0.00  0.00    -0.296 OA
HETATM    2  C   UNK N   1      22.940  11.776   8.952  0.00  0.00     0.013 A 
HETATM    3  C   UNK N   1      22.275  13.094   9.496  0.00  0.00    -0.000 A 
HETATM    4  C   UNK N   1      23.532  12.392  10.136  0.00  0.00    -0.039 A 
HETATM    5  C   UNK N   1      23.494  11.957   7.512  0.00  0.00     0.085 C 
HETATM    6  C   UNK N   1      21.578  13.532   8.175  0.00  0.00     0.011 C 
HETATM    7  C   UNK N   1      22.970  14.998   7.024  0.00  0.00     0.079 A 
HETATM    8  C   UNK N   1      22.525  13.979   6.718  0.00  0.00     0.005 A 
HETATM    9  C   UNK N   1      21.341  15.159   6.279  0.00  0.00     0.136 A 
HETATM   10  C   UNK N   1      24.014  13.648   7.396  0.00  0.00     0.150 A 
HETATM   11  C   UNK N   1      24.917  13.016  10.030  0.00  0.00     0.015 C 
HETATM   12  C   UNK N   1      23.173  11.803  11.488  0.00  0.00     0.015 C 
HETATM   13  C   UNK N   1      22.116  11.459   6.627  0.00  0.00    -0.007 C 
HETATM   14  C   UNK N   1      23.750  15.921   6.119  0.00  0.00    -0.001 A 
HETATM   15  C   UNK N   1      20.368  13.687   5.773  0.00  0.00     0.188 C 
HETATM   16  C   UNK N   1      21.576  16.257   5.195  0.00  0.00     0.199 A 
HETATM   17  C   UNK N   1      22.979  13.493   5.114  0.00  0.00     0.011 C 
HETATM   18  C   UNK N   1      20.911  12.060   5.990  0.00  0.00    -0.028 C 
HETATM   19  C   UNK N   1      23.042  16.543   5.188  0.00  0.00    -0.054 A 
HETATM   20  C   UNK N   1      23.675  17.537   4.273  0.00  0.00     0.046 C 
ENDROOT
BRANCH  16  21
HETATM   21  O   UNK N   1      21.045  16.033   3.942  0.00  0.00    -0.305 OA
BRANCH  21  22
HETATM   22  C   UNK N   1      20.034  16.823   3.475  0.00  0.00     0.289 C 
HETATM   23  O   UNK N   1      18.959  16.843   4.059  0.00  0.00    -0.260 OA
BRANCH  22  24
HETATM   24  C   UNK N   1      20.238  17.659   2.258  0.00  0.00     0.009 C 
HETATM   25  C   UNK N   1      20.072  17.031   0.917  0.00  0.00     0.054 C 
HETATM   26  C   UNK N   1      20.563  18.966   2.298  0.00  0.00    -0.018 C 
HETATM   27  C   UNK N   1      20.773  19.759   3.551  0.00  0.00     0.036 C 
ENDBRANCH  22  24
ENDBRANCH  21  22
ENDBRANCH  16  21
BRANCH   9  28
HETATM   28  O   UNK N   1      20.523  15.831   7.201  0.00  0.00    -0.382 OA
HETATM   29  H   UNK N   1      20.239  16.406   7.929  0.00  0.00     0.210 HD
ENDBRANCH   9  28
BRANCH  15  30
HETATM   30  O   UNK N   1      19.739  13.863   4.540  0.00  0.00    -0.388 OA
HETATM   31  H   UNK N   1      19.061  14.548   4.433  0.00  0.00     0.210 HD
ENDBRANCH  15  30
BRANCH  18  32
HETATM   32  C   UNK N   1      19.962  11.027   5.470  0.00  0.00     0.200 C 
BRANCH  32  33
HETATM   33  O   UNK N   1      20.477  10.416   4.328  0.00  0.00    -0.397 OA
HETATM   34  H   UNK N   1      20.504  10.780   3.429  0.00  0.00     0.209 HD
ENDBRANCH  32  33
ENDBRANCH  18  32
TORSDOF 7
ENDMDL
MODEL 5
REMARK VINA RESULT:      -6.6      2.005      3.146
REMARK  7 active torsions:
REMARK  status: ('A' for Active; 'I' for Inactive)
REMARK    1  A    between atoms: C_14  and  O_1 
REMARK    2  A    between atoms: C_21  and  O_3 
REMARK    3  A    between atoms: O_3  and  C_27 
REMARK    4  A    between atoms: C_20  and  O_4 
REMARK    5  A    between atoms: O_5  and  C_25 
REMARK    6  A    between atoms: C_23  and  C_25 
REMARK    7  A    between atoms: C_27  and  C_28 
ROOT
HETATM    1  O   UNK N   1      32.441  16.159   5.497  0.00  0.00    -0.296 OA
HETATM    2  C   UNK N   1      31.732  17.765   8.496  0.00  0.00     0.013 A 
HETATM    3  C   UNK N   1      30.844  16.513   8.842  0.00  0.00    -0.000 A 
HETATM    4  C   UNK N   1      30.377  17.726   7.952  0.00  0.00    -0.039 A 
HETATM    5  C   UNK N   1      33.000  17.371   7.691  0.00  0.00     0.085 C 
HETATM    6  C   UNK N   1      32.002  15.524   9.168  0.00  0.00     0.011 C 
HETATM    7  C   UNK N   1      32.534  14.312   7.255  0.00  0.00     0.079 A 
HETATM    8  C   UNK N   1      33.176  15.009   7.913  0.00  0.00     0.005 A 
HETATM    9  C   UNK N   1      33.297  13.442   8.632  0.00  0.00     0.136 A 
HETATM   10  C   UNK N   1      32.541  15.970   6.705  0.00  0.00     0.150 A 
HETATM   11  C   UNK N   1      30.188  17.568   6.449  0.00  0.00     0.015 C 
HETATM   12  C   UNK N   1      29.308  18.526   8.673  0.00  0.00     0.015 C 
HETATM   13  C   UNK N   1      34.087  17.137   8.992  0.00  0.00    -0.007 C 
HETATM   14  C   UNK N   1      33.047  13.468   6.113  0.00  0.00    -0.001 A 
HETATM   15  C   UNK N   1      34.306  14.326   9.885  0.00  0.00     0.188 C 
HETATM   16  C   UNK N   1      33.959  12.217   7.928  0.00  0.00     0.199 A 
HETATM   17  C   UNK N   1      34.818  15.142   7.363  0.00  0.00     0.011 C 
HETATM   18  C   UNK N   1      34.579  16.033   9.863  0.00  0.00    -0.028 C 
HETATM   19  C   UNK N   1      33.779  12.419   6.459  0.00  0.00    -0.054 A 
HETATM   20  C   UNK N   1      34.288  11.462   5.436  0.00  0.00     0.046 C 
ENDROOT
BRANCH  16  21
HETATM   21  O   UNK N   1      35.251  11.900   8.293  0.00  0.00    -0.305 OA
BRANCH  21  22
HETATM   22  C   UNK N   1      35.538  10.662   8.792  0.00  0.00     0.289 C 
HETATM   23  O   UNK N   1      36.697  10.359   9.040  0.00  0.00    -0.260 OA
BRANCH  22  24
HETATM   24  C   UNK N   1      34.442   9.681   9.034  0.00  0.00     0.009 C 
HETATM   25  C   UNK N   1      34.045   8.757   7.934  0.00  0.00     0.054 C 
HETATM   26  C   UNK N   1      33.783   9.573  10.205  0.00  0.00    -0.018 C 
HETATM   27  C   UNK N   1      34.043  10.418  11.415  0.00  0.00     0.036 C 
ENDBRANCH  22  24
ENDBRANCH  21  22
ENDBRANCH  16  21
BRANCH   9  28
HETATM   28  O   UNK N   1      32.265  12.834   9.365  0.00  0.00    -0.382 OA
HETATM   29  H   UNK N   1      31.717  12.539  10.110  0.00  0.00     0.210 HD
ENDBRANCH   9  28
BRANCH  15  30
HETATM   30  O   UNK N   1      35.458  13.622  10.234  0.00  0.00    -0.388 OA
HETATM   31  H   UNK N   1      36.161  13.484   9.580  0.00  0.00     0.210 HD
ENDBRANCH  15  30
BRANCH  18  32
HETATM   32  C   UNK N   1      35.461  16.524  10.967  0.00  0.00     0.200 C 
BRANCH  32  33
HETATM   33  O   UNK N   1      36.794  16.206  10.710  0.00  0.00    -0.397 OA
HETATM   34  H   UNK N   1      37.447  15.861  11.339  0.00  0.00     0.209 HD
ENDBRANCH  32  33
ENDBRANCH  18  32
TORSDOF 7
ENDMDL
MODEL 6
REMARK VINA RESULT:      -6.6     10.441     12.310
REMARK  7 active torsions:
REMARK  status: ('A' for Active; 'I' for Inactive)
REMARK    1  A    between atoms: C_14  and  O_1 
REMARK    2  A    between atoms: C_21  and  O_3 
REMARK    3  A    between atoms: O_3  and  C_27 
REMARK    4  A    between atoms: C_20  and  O_4 
REMARK    5  A    between atoms: O_5  and  C_25 
REMARK    6  A    between atoms: C_23  and  C_25 
REMARK    7  A    between atoms: C_27  and  C_28 
ROOT
HETATM    1  O   UNK N   1      22.427  12.176   2.395  0.00  0.00    -0.296 OA
HETATM    2  C   UNK N   1      20.498  14.969   1.645  0.00  0.00     0.013 A 
HETATM    3  C   UNK N   1      19.373  14.303   2.520  0.00  0.00    -0.000 A 
HETATM    4  C   UNK N   1      19.659  13.956   1.011  0.00  0.00    -0.039 A 
HETATM    5  C   UNK N   1      21.917  14.686   2.213  0.00  0.00     0.085 C 
HETATM    6  C   UNK N   1      19.998  14.597   3.916  0.00  0.00     0.011 C 
HETATM    7  C   UNK N   1      21.264  12.765   4.588  0.00  0.00     0.079 A 
HETATM    8  C   UNK N   1      21.558  13.867   4.417  0.00  0.00     0.005 A 
HETATM    9  C   UNK N   1      21.018  13.775   6.056  0.00  0.00     0.136 A 
HETATM   10  C   UNK N   1      21.833  13.084   2.968  0.00  0.00     0.150 A 
HETATM   11  C   UNK N   1      20.280  12.621   0.617  0.00  0.00     0.015 C 
HETATM   12  C   UNK N   1      18.518  14.439   0.135  0.00  0.00     0.015 C 
HETATM   13  C   UNK N   1      22.085  16.061   3.219  0.00  0.00    -0.007 C 
HETATM   14  C   UNK N   1      22.161  11.698   5.168  0.00  0.00    -0.001 A 
HETATM   15  C   UNK N   1      21.330  15.584   6.039  0.00  0.00     0.188 C 
HETATM   16  C   UNK N   1      21.743  12.943   7.159  0.00  0.00     0.199 A 
HETATM   17  C   UNK N   1      23.236  14.180   4.739  0.00  0.00     0.011 C 
HETATM   18  C   UNK N   1      21.848  16.453   4.636  0.00  0.00    -0.028 C 
HETATM   19  C   UNK N   1      22.411  11.802   6.465  0.00  0.00    -0.054 A 
HETATM   20  C   UNK N   1      23.224  10.776   7.179  0.00  0.00     0.046 C 
ENDROOT
BRANCH  16  21
HETATM   21  O   UNK N   1      22.568  13.628   8.028  0.00  0.00    -0.305 OA
BRANCH  21  22
HETATM   22  C   UNK N   1      22.255  13.702   9.355  0.00  0.00     0.289 C 
HETATM   23  O   UNK N   1      21.461  14.547   9.746  0.00  0.00    -0.260 OA
BRANCH  22  24
HETATM   24  C   UNK N   1      22.878  12.757  10.324  0.00  0.00     0.009 C 
HETATM   25  C   UNK N   1      24.355  12.557  10.288  0.00  0.00     0.054 C 
HETATM   26  C   UNK N   1      22.179  12.067  11.247  0.00  0.00    -0.018 C 
HETATM   27  C   UNK N   1      20.693  12.139  11.426  0.00  0.00     0.036 C 
ENDBRANCH  22  24
ENDBRANCH  21  22
ENDBRANCH  16  21
BRANCH   9  28
HETATM   28  O   UNK N   1      19.671  13.646   6.433  0.00  0.00    -0.382 OA
HETATM   29  H   UNK N   1      18.721  13.821   6.522  0.00  0.00     0.210 HD
ENDBRANCH   9  28
BRANCH  15  30
HETATM   30  O   UNK N   1      21.984  16.022   7.190  0.00  0.00    -0.388 OA
HETATM   31  H   UNK N   1      21.972  16.962   7.430  0.00  0.00     0.210 HD
ENDBRANCH  15  30
BRANCH  18  32
HETATM   32  C   UNK N   1      22.069  17.913   4.872  0.00  0.00     0.200 C 
BRANCH  32  33
HETATM   33  O   UNK N   1      23.222  18.121   5.627  0.00  0.00    -0.397 OA
HETATM   34  H   UNK N   1      24.141  17.984   5.347  0.00  0.00     0.209 HD
ENDBRANCH  32  33
ENDBRANCH  18  32
TORSDOF 7
ENDMDL
MODEL 7
REMARK VINA RESULT:      -6.6      1.781      7.315
REMARK  7 active torsions:
REMARK  status: ('A' for Active; 'I' for Inactive)
REMARK    1  A    between atoms: C_14  and  O_1 
REMARK    2  A    between atoms: C_21  and  O_3 
REMARK    3  A    between atoms: O_3  and  C_27 
REMARK    4  A    between atoms: C_20  and  O_4 
REMARK    5  A    between atoms: O_5  and  C_25 
REMARK    6  A    between atoms: C_23  and  C_25 
REMARK    7  A    between atoms: C_27  and  C_28 
ROOT
HETATM    1  O   UNK N   1      36.457  16.312  11.031  0.00  0.00    -0.296 OA
HETATM    2  C   UNK N   1      36.579  12.923  11.792  0.00  0.00     0.013 A 
HETATM    3  C   UNK N   1      35.040  13.038  12.098  0.00  0.00    -0.000 A 
HETATM    4  C   UNK N   1      36.186  13.421  13.108  0.00  0.00    -0.039 A 
HETATM    5  C   UNK N   1      37.005  13.838  10.612  0.00  0.00     0.085 C 
HETATM    6  C   UNK N   1      34.543  13.112  10.624  0.00  0.00     0.011 C 
HETATM    7  C   UNK N   1      34.337  15.342   9.996  0.00  0.00     0.079 A 
HETATM    8  C   UNK N   1      34.974  14.487   9.557  0.00  0.00     0.005 A 
HETATM    9  C   UNK N   1      33.443  14.386   8.763  0.00  0.00     0.136 A 
HETATM   10  C   UNK N   1      35.942  15.256  10.680  0.00  0.00     0.150 A 
HETATM   11  C   UNK N   1      36.466  14.876  13.461  0.00  0.00     0.015 C 
HETATM   12  C   UNK N   1      36.215  12.441  14.266  0.00  0.00     0.015 C 
HETATM   13  C   UNK N   1      36.811  12.728   9.324  0.00  0.00    -0.007 C 
HETATM   14  C   UNK N   1      34.187  16.720   9.399  0.00  0.00    -0.001 A 
HETATM   15  C   UNK N   1      34.193  12.915   7.960  0.00  0.00     0.188 C 
HETATM   16  C   UNK N   1      32.882  15.496   7.821  0.00  0.00     0.199 A 
HETATM   17  C   UNK N   1      35.918  14.980   8.184  0.00  0.00     0.011 C 
HETATM   18  C   UNK N   1      35.775  12.324   8.333  0.00  0.00    -0.028 C 
HETATM   19  C   UNK N   1      33.463  16.789   8.291  0.00  0.00    -0.054 A 
HETATM   20  C   UNK N   1      33.175  18.098   7.637  0.00  0.00     0.046 C 
ENDROOT
BRANCH  16  21
HETATM   21  O   UNK N   1      33.003  15.293   6.461  0.00  0.00    -0.305 OA
BRANCH  21  22
HETATM   22  C   UNK N   1      31.887  15.211   5.679  0.00  0.00     0.289 C 
HETATM   23  O   UNK N   1      31.483  14.117   5.308  0.00  0.00    -0.260 OA
BRANCH  22  24
HETATM   24  C   UNK N   1      31.161  16.450   5.279  0.00  0.00     0.009 C 
HETATM   25  C   UNK N   1      29.905  16.812   5.994  0.00  0.00     0.054 C 
HETATM   26  C   UNK N   1      31.581  17.276   4.301  0.00  0.00    -0.018 C 
HETATM   27  C   UNK N   1      32.815  17.070   3.476  0.00  0.00     0.036 C 
ENDBRANCH  22  24
ENDBRANCH  21  22
ENDBRANCH  16  21
BRANCH   9  28
HETATM   28  O   UNK N   1      32.273  13.904   9.373  0.00  0.00    -0.382 OA
HETATM   29  H   UNK N   1      31.531  13.325   9.608  0.00  0.00     0.210 HD
ENDBRANCH   9  28
BRANCH  15  30
HETATM   30  O   UNK N   1      33.932  12.864   6.591  0.00  0.00    -0.388 OA
HETATM   31  H   UNK N   1      34.438  13.419   5.977  0.00  0.00     0.210 HD
ENDBRANCH  15  30
BRANCH  18  32
HETATM   32  C   UNK N   1      36.185  11.132   7.528  0.00  0.00     0.200 C 
BRANCH  32  33
HETATM   33  O   UNK N   1      36.743  11.528   6.313  0.00  0.00    -0.397 OA
HETATM   34  H   UNK N   1      36.625  11.106   5.447  0.00  0.00     0.209 HD
ENDBRANCH  32  33
ENDBRANCH  18  32
TORSDOF 7
ENDMDL
MODEL 8
REMARK VINA RESULT:      -6.6      5.364      8.882
REMARK  7 active torsions:
REMARK  status: ('A' for Active; 'I' for Inactive)
REMARK    1  A    between atoms: C_14  and  O_1 
REMARK    2  A    between atoms: C_21  and  O_3 
REMARK    3  A    between atoms: O_3  and  C_27 
REMARK    4  A    between atoms: C_20  and  O_4 
REMARK    5  A    between atoms: O_5  and  C_25 
REMARK    6  A    between atoms: C_23  and  C_25 
REMARK    7  A    between atoms: C_27  and  C_28 
ROOT
HETATM    1  O   UNK N   1      34.842  14.061  12.559  0.00  0.00    -0.296 OA
HETATM    2  C   UNK N   1      36.291  11.835  10.317  0.00  0.00     0.013 A 
HETATM    3  C   UNK N   1      37.614  12.013  11.150  0.00  0.00    -0.000 A 
HETATM    4  C   UNK N   1      37.122  13.000  10.025  0.00  0.00    -0.039 A 
HETATM    5  C   UNK N   1      35.027  11.877  11.221  0.00  0.00     0.085 C 
HETATM    6  C   UNK N   1      37.201  11.150  12.378  0.00  0.00     0.011 C 
HETATM    7  C   UNK N   1      36.280  12.530  14.008  0.00  0.00     0.079 A 
HETATM    8  C   UNK N   1      35.839  11.626  13.443  0.00  0.00     0.005 A 
HETATM    9  C   UNK N   1      36.650  10.968  14.819  0.00  0.00     0.136 A 
HETATM   10  C   UNK N   1      35.416  12.977  12.557  0.00  0.00     0.150 A 
HETATM   11  C   UNK N   1      36.599  14.388  10.375  0.00  0.00     0.015 C 
HETATM   12  C   UNK N   1      38.040  12.923   8.819  0.00  0.00     0.015 C 
HETATM   13  C   UNK N   1      34.875  10.205  11.552  0.00  0.00    -0.007 C 
HETATM   14  C   UNK N   1      35.618  13.255  15.155  0.00  0.00    -0.001 A 
HETATM   15  C   UNK N   1      36.138   9.363  14.091  0.00  0.00     0.188 C 
HETATM   16  C   UNK N   1      36.218  11.245  16.293  0.00  0.00     0.199 A 
HETATM   17  C   UNK N   1      34.213  11.250  13.927  0.00  0.00     0.011 C 
HETATM   18  C   UNK N   1      35.299   9.220  12.586  0.00  0.00    -0.028 C 
HETATM   19  C   UNK N   1      35.576  12.595  16.303  0.00  0.00    -0.054 A 
HETATM   20  C   UNK N   1      35.015  13.221  17.534  0.00  0.00     0.046 C 
ENDROOT
BRANCH  16  21
HETATM   21  O   UNK N   1      35.477  10.271  16.929  0.00  0.00    -0.305 OA
BRANCH  21  22
HETATM   22  C   UNK N   1      35.973   9.646  18.036  0.00  0.00     0.289 C 
HETATM   23  O   UNK N   1      36.801   8.754  17.911  0.00  0.00    -0.260 OA
BRANCH  22  24
HETATM   24  C   UNK N   1      35.509  10.049  19.394  0.00  0.00     0.009 C 
HETATM   25  C   UNK N   1      36.382  10.927  20.223  0.00  0.00     0.054 C 
HETATM   26  C   UNK N   1      34.329   9.668  19.922  0.00  0.00    -0.018 C 
HETATM   27  C   UNK N   1      33.328   8.788  19.237  0.00  0.00     0.036 C 
ENDBRANCH  22  24
ENDBRANCH  21  22
ENDBRANCH  16  21
BRANCH   9  28
HETATM   28  O   UNK N   1      38.046  10.879  14.939  0.00  0.00    -0.382 OA
HETATM   29  H   UNK N   1      38.938  10.871  15.323  0.00  0.00     0.210 HD
ENDBRANCH   9  28
BRANCH  15  30
HETATM   30  O   UNK N   1      35.638   8.479  15.048  0.00  0.00    -0.388 OA
HETATM   31  H   UNK N   1      36.107   8.355  15.888  0.00  0.00     0.210 HD
ENDBRANCH  15  30
BRANCH  18  32
HETATM   32  C   UNK N   1      34.956   7.812  12.211  0.00  0.00     0.200 C 
BRANCH  32  33
HETATM   33  O   UNK N   1      34.069   7.792  11.135  0.00  0.00    -0.397 OA
HETATM   34  H   UNK N   1      34.275   7.951  10.201  0.00  0.00     0.209 HD
ENDBRANCH  32  33
ENDBRANCH  18  32
TORSDOF 7
ENDMDL
MODEL 9
REMARK VINA RESULT:      -6.6      2.223      7.872
REMARK  7 active torsions:
REMARK  status: ('A' for Active; 'I' for Inactive)
REMARK    1  A    between atoms: C_14  and  O_1 
REMARK    2  A    between atoms: C_21  and  O_3 
REMARK    3  A    between atoms: O_3  and  C_27 
REMARK    4  A    between atoms: C_20  and  O_4 
REMARK    5  A    between atoms: O_5  and  C_25 
REMARK    6  A    between atoms: C_23  and  C_25 
REMARK    7  A    between atoms: C_27  and  C_28 
ROOT
HETATM    1  O   UNK N   1      36.185  14.562  13.855  0.00  0.00    -0.296 OA
HETATM    2  C   UNK N   1      36.053  11.091  13.938  0.00  0.00     0.013 A 
HETATM    3  C   UNK N   1      34.563  11.235  13.454  0.00  0.00    -0.000 A 
HETATM    4  C   UNK N   1      35.038  11.365  14.950  0.00  0.00    -0.039 A 
HETATM    5  C   UNK N   1      36.973  12.178  13.316  0.00  0.00     0.085 C 
HETATM    6  C   UNK N   1      34.864  11.600  11.970  0.00  0.00     0.011 C 
HETATM    7  C   UNK N   1      34.904  13.915  11.746  0.00  0.00     0.079 A 
HETATM    8  C   UNK N   1      35.711  13.119  11.532  0.00  0.00     0.005 A 
HETATM    9  C   UNK N   1      34.785  13.248  10.079  0.00  0.00     0.136 A 
HETATM   10  C   UNK N   1      35.958  13.618  13.106  0.00  0.00     0.150 A 
HETATM   11  C   UNK N   1      35.042  12.715  15.656  0.00  0.00     0.015 C 
HETATM   12  C   UNK N   1      34.527  10.193  15.767  0.00  0.00     0.015 C 
HETATM   13  C   UNK N   1      37.492  11.330  11.923  0.00  0.00    -0.007 C 
HETATM   14  C   UNK N   1      35.014  15.385  11.418  0.00  0.00    -0.001 A 
HETATM   15  C   UNK N   1      35.896  11.906   9.501  0.00  0.00     0.188 C 
HETATM   16  C   UNK N   1      34.721  14.539   9.206  0.00  0.00     0.199 A 
HETATM   17  C   UNK N   1      37.192  13.798  10.927  0.00  0.00     0.011 C 
HETATM   18  C   UNK N   1      37.105  11.170  10.494  0.00  0.00    -0.028 C 
HETATM   19  C   UNK N   1      34.935  15.692  10.131  0.00  0.00    -0.054 A 
HETATM   20  C   UNK N   1      34.957  17.111   9.674  0.00  0.00     0.046 C 
ENDROOT
BRANCH  16  21
HETATM   21  O   UNK N   1      35.511  14.578   8.075  0.00  0.00    -0.305 OA
BRANCH  21  22
HETATM   22  C   UNK N   1      34.964  14.905   6.868  0.00  0.00     0.289 C 
HETATM   23  O   UNK N   1      35.644  15.478   6.028  0.00  0.00    -0.260 OA
BRANCH  22  24
HETATM   24  C   UNK N   1      33.543  14.565   6.574  0.00  0.00     0.009 C 
HETATM   25  C   UNK N   1      33.183  13.144   6.305  0.00  0.00     0.054 C 
HETATM   26  C   UNK N   1      32.550  15.475   6.541  0.00  0.00    -0.018 C 
HETATM   27  C   UNK N   1      32.725  16.943   6.782  0.00  0.00     0.036 C 
ENDBRANCH  22  24
ENDBRANCH  21  22
ENDBRANCH  16  21
BRANCH   9  28
HETATM   28  O   UNK N   1      33.488  12.731   9.928  0.00  0.00    -0.382 OA
HETATM   29  H   UNK N   1      32.618  12.354  10.136  0.00  0.00     0.210 HD
ENDBRANCH   9  28
BRANCH  15  30
HETATM   30  O   UNK N   1      36.353  12.118   8.200  0.00  0.00    -0.388 OA
HETATM   31  H   UNK N   1      35.777  12.540   7.544  0.00  0.00     0.210 HD
ENDBRANCH  15  30
BRANCH  18  32
HETATM   32  C   UNK N   1      37.911  10.122   9.795  0.00  0.00     0.200 C 
BRANCH  32  33
HETATM   33  O   UNK N   1      38.999  10.695   9.137  0.00  0.00    -0.397 OA
HETATM   34  H   UNK N   1      39.936  10.617   9.375  0.00  0.00     0.209 HD
ENDBRANCH  32  33
ENDBRANCH  18  32
TORSDOF 7
ENDMDL
