MODEL 1
REMARK VINA RESULT:      -9.2      0.000      0.000
REMARK  7 active torsions:
REMARK  status: ('A' for Active; 'I' for Inactive)
REMARK    1  A    between atoms: O_2  and  C_8 
REMARK    2  A    between atoms: O_2  and  C_13 
REMARK    3  A    between atoms: C_20  and  O_43 
REMARK    4  A    between atoms: C_24  and  O_33 
REMARK    5  A    between atoms: C_25  and  O_34 
REMARK    6  A    between atoms: C_45  and  O_50 
REMARK    7  A    between atoms: C_46  and  O_51 
ROOT
HETATM    1  O   UNK N   1      23.125  10.458   7.235  0.00  0.00    -0.322 OA
HETATM    2  O   UNK N   1      24.709   9.131   6.458  0.00  0.00    -0.322 OA
HETATM    3  C   UNK N   1      24.127  12.677   4.446  0.00  0.00     0.004 A 
HETATM    4  C   UNK N   1      23.436  12.259   5.616  0.00  0.00     0.013 A 
HETATM    5  C   UNK N   1      23.720  11.040   6.187  0.00  0.00     0.114 A 
HETATM    6  C   UNK N   1      25.202  11.850   3.964  0.00  0.00     0.096 A 
HETATM    7  C   UNK N   1      24.673  10.245   5.726  0.00  0.00     0.114 A 
HETATM    8  C   UNK N   1      25.474  10.601   4.633  0.00  0.00     0.009 A 
HETATM    9  C   UNK N   1      23.716   9.213   7.442  0.00  0.00     0.352 A 
HETATM   10  C   UNK N   1      26.503   9.619   4.197  0.00  0.00     0.054 C 
HETATM   11  C   UNK N   1      23.632  13.982   3.714  0.00  0.00     0.108 C 
HETATM   12  C   UNK N   1      22.440  13.140   6.228  0.00  0.00     0.143 C 
HETATM   13  N   UNK N   1      21.684  13.733   5.091  0.00  0.00    -0.367 N 
HETATM   14  C   UNK N   1      22.409  14.751   4.383  0.00  0.00     0.139 C 
HETATM   15  C   UNK N   1      22.025  16.108   5.128  0.00  0.00     0.283 C 
HETATM   16  C   UNK N   1      20.212  13.839   4.961  0.00  0.00     0.250 C 
HETATM   17  C   UNK N   1      19.770  15.332   4.931  0.00  0.00     0.275 C 
HETATM   18  N   UNK N   1      20.697  16.078   5.786  0.00  0.00     0.104 N 
HETATM   19  C   UNK N   1      29.474  16.649   3.708  0.00  0.00     0.047 A 
HETATM   20  C   UNK N   1      30.209  15.495   3.975  0.00  0.00     0.099 A 
HETATM   21  C   UNK N   1      29.596  14.412   4.662  0.00  0.00     0.101 A 
HETATM   22  C   UNK N   1      28.248  14.519   5.042  0.00  0.00     0.050 A 
HETATM   23  C   UNK N   1      27.508  15.679   4.771  0.00  0.00    -0.011 A 
HETATM   24  C   UNK N   1      28.144  16.742   4.108  0.00  0.00    -0.044 A 
HETATM   25  C   UNK N   1      27.393  18.015   3.939  0.00  0.00     0.058 C 
HETATM   26  C   UNK N   1      26.076  15.932   5.279  0.00  0.00     0.151 C 
HETATM   27  N   UNK N   1      26.156  17.195   6.039  0.00  0.00    -0.400 N 
HETATM   28  C   UNK N   1      26.704  18.361   5.280  0.00  0.00     0.120 C 
HETATM   29  C   UNK N   1      23.254  14.089   7.243  0.00  0.00     0.208 C 
HETATM   30  O   UNK N   1      24.186  15.040   6.756  0.00  0.00    -0.317 OA
HETATM   31  S   UNK N   1      24.899  14.950   2.802  0.00  0.00    -0.154 SA
HETATM   32  C   UNK N   1      25.144  16.215   4.077  0.00  0.00     0.121 C 
HETATM   33  C   UNK N   1      25.434  14.838   6.202  0.00  0.00     0.292 C 
HETATM   34  C   UNK N   1      20.712  15.639   7.177  0.00  0.00     0.311 C 
HETATM   35  O   UNK N   1      26.028  13.796   6.431  0.00  0.00    -0.262 OA
HETATM   36  C   UNK N   1      20.755  17.170   3.352  0.00  0.00    -0.044 A 
HETATM   37  C   UNK N   1      22.447  19.444   3.432  0.00  0.00     0.107 A 
HETATM   38  C   UNK N   1      22.689  18.343   4.277  0.00  0.00     0.108 A 
HETATM   39  C   UNK N   1      20.501  18.262   2.516  0.00  0.00     0.017 A 
HETATM   40  C   UNK N   1      21.353  19.385   2.542  0.00  0.00    -0.025 A 
HETATM   41  C   UNK N   1      21.057  20.538   1.649  0.00  0.00     0.051 C 
HETATM   42  C   UNK N   1      21.864  17.221   4.199  0.00  0.00     0.019 A 
HETATM   43  C   UNK N   1      19.786  15.977   3.480  0.00  0.00     0.079 C 
HETATM   44  H   UNK N   1      25.858  17.268   7.011  0.00  0.00     0.154 HD
ENDROOT
BRANCH  21  45
HETATM   45  O   UNK N   1      30.258  13.275   5.000  0.00  0.00    -0.353 OA
HETATM   46  C   UNK N   1      30.284  12.118   4.256  0.00  0.00     0.210 C 
ENDBRANCH  21  45
BRANCH  20  47
HETATM   47  O   UNK N   1      31.496  15.447   3.589  0.00  0.00    -0.358 OA
HETATM   48  H   UNK N   1      32.014  14.678   3.724  0.00  0.00     0.217 HD
ENDBRANCH  20  47
BRANCH   6  49
HETATM   49  O   UNK N   1      25.884  12.298   2.870  0.00  0.00    -0.278 OA
BRANCH  49  50
HETATM   50  C   UNK N   1      26.003  11.872   1.581  0.00  0.00     0.260 C 
HETATM   51  O   UNK N   1      27.117  11.601   1.164  0.00  0.00    -0.265 OA
HETATM   52  C   UNK N   1      24.843  11.584   0.689  0.00  0.00     0.126 C 
ENDBRANCH  49  50
ENDBRANCH   6  49
BRANCH  16  53
HETATM   53  O   UNK N   1      19.579  13.147   5.995  0.00  0.00    -0.375 OA
HETATM   54  H   UNK N   1      19.539  13.318   6.948  0.00  0.00     0.212 HD
ENDBRANCH  16  53
BRANCH  38  55
HETATM   55  O   UNK N   1      23.673  18.367   5.191  0.00  0.00    -0.357 OA
HETATM   56  H   UNK N   1      24.553  18.071   5.319  0.00  0.00     0.217 HD
ENDBRANCH  38  55
BRANCH  37  57
HETATM   57  O   UNK N   1      23.218  20.570   3.456  0.00  0.00    -0.353 OA
HETATM   58  C   UNK N   1      24.484  20.689   2.924  0.00  0.00     0.210 C 
ENDBRANCH  37  57
TORSDOF 7
ENDMDL
MODEL 2
REMARK VINA RESULT:      -7.9      2.021      6.603
REMARK  7 active torsions:
REMARK  status: ('A' for Active; 'I' for Inactive)
REMARK    1  A    between atoms: O_2  and  C_8 
REMARK    2  A    between atoms: O_2  and  C_13 
REMARK    3  A    between atoms: C_20  and  O_43 
REMARK    4  A    between atoms: C_24  and  O_33 
REMARK    5  A    between atoms: C_25  and  O_34 
REMARK    6  A    between atoms: C_45  and  O_50 
REMARK    7  A    between atoms: C_46  and  O_51 
ROOT
HETATM    1  O   UNK N   1      27.174   9.789   3.838  0.00  0.00    -0.322 OA
HETATM    2  O   UNK N   1      25.745   8.448   4.857  0.00  0.00    -0.322 OA
HETATM    3  C   UNK N   1      25.407  12.469   5.684  0.00  0.00     0.004 A 
HETATM    4  C   UNK N   1      26.325  11.879   4.771  0.00  0.00     0.013 A 
HETATM    5  C   UNK N   1      26.341  10.515   4.593  0.00  0.00     0.114 A 
HETATM    6  C   UNK N   1      24.431  11.614   6.308  0.00  0.00     0.096 A 
HETATM    7  C   UNK N   1      25.481   9.710   5.198  0.00  0.00     0.114 A 
HETATM    8  C   UNK N   1      24.479  10.196   6.049  0.00  0.00     0.009 A 
HETATM    9  C   UNK N   1      26.843   8.443   3.986  0.00  0.00     0.352 A 
HETATM   10  C   UNK N   1      23.582   9.193   6.682  0.00  0.00     0.054 C 
HETATM   11  C   UNK N   1      25.558  14.004   6.004  0.00  0.00     0.108 C 
HETATM   12  C   UNK N   1      27.233  12.730   4.000  0.00  0.00     0.143 C 
HETATM   13  N   UNK N   1      27.700  13.774   4.951  0.00  0.00    -0.367 N 
HETATM   14  C   UNK N   1      26.715  14.780   5.235  0.00  0.00     0.139 C 
HETATM   15  C   UNK N   1      26.966  15.907   4.134  0.00  0.00     0.283 C 
HETATM   16  C   UNK N   1      29.097  14.219   5.168  0.00  0.00     0.250 C 
HETATM   17  C   UNK N   1      29.267  15.712   4.761  0.00  0.00     0.275 C 
HETATM   18  N   UNK N   1      28.361  15.964   3.637  0.00  0.00     0.104 N 
HETATM   19  C   UNK N   1      19.408  15.275   4.660  0.00  0.00     0.047 A 
HETATM   20  C   UNK N   1      18.930  13.966   4.710  0.00  0.00     0.099 A 
HETATM   21  C   UNK N   1      19.814  12.883   4.457  0.00  0.00     0.101 A 
HETATM   22  C   UNK N   1      21.165  13.152   4.181  0.00  0.00     0.050 A 
HETATM   23  C   UNK N   1      21.647  14.468   4.133  0.00  0.00    -0.011 A 
HETATM   24  C   UNK N   1      20.747  15.521   4.368  0.00  0.00    -0.044 A 
HETATM   25  C   UNK N   1      21.235  16.915   4.189  0.00  0.00     0.058 C 
HETATM   26  C   UNK N   1      23.072  14.854   3.698  0.00  0.00     0.151 C 
HETATM   27  N   UNK N   1      22.889  15.792   2.573  0.00  0.00    -0.400 N 
HETATM   28  C   UNK N   1      22.043  16.987   2.873  0.00  0.00     0.120 C 
HETATM   29  C   UNK N   1      26.426  13.146   2.670  0.00  0.00     0.208 C 
HETATM   30  O   UNK N   1      25.283  13.982   2.748  0.00  0.00    -0.317 OA
HETATM   31  S   UNK N   1      24.023  14.910   6.450  0.00  0.00    -0.154 SA
HETATM   32  C   UNK N   1      23.755  15.665   4.823  0.00  0.00     0.121 C 
HETATM   33  C   UNK N   1      24.021  13.696   3.228  0.00  0.00     0.292 C 
HETATM   34  C   UNK N   1      28.627  15.142   2.461  0.00  0.00     0.311 C 
HETATM   35  O   UNK N   1      23.655  12.533   3.290  0.00  0.00    -0.262 OA
HETATM   36  C   UNK N   1      27.760  17.685   5.586  0.00  0.00    -0.044 A 
HETATM   37  C   UNK N   1      25.733  19.429   4.643  0.00  0.00     0.107 A 
HETATM   38  C   UNK N   1      25.811  18.103   4.173  0.00  0.00     0.108 A 
HETATM   39  C   UNK N   1      27.698  19.002   6.051  0.00  0.00     0.017 A 
HETATM   40  C   UNK N   1      26.679  19.865   5.597  0.00  0.00    -0.025 A 
HETATM   41  C   UNK N   1      26.637  21.264   6.101  0.00  0.00     0.051 C 
HETATM   42  C   UNK N   1      26.796  17.252   4.673  0.00  0.00     0.019 A 
HETATM   43  C   UNK N   1      28.927  16.736   5.926  0.00  0.00     0.079 C 
HETATM   44  H   UNK N   1      23.309  15.636   1.656  0.00  0.00     0.154 HD
ENDROOT
BRANCH  21  45
HETATM   45  O   UNK N   1      19.414  11.584   4.441  0.00  0.00    -0.353 OA
HETATM   46  C   UNK N   1      19.875  10.599   5.283  0.00  0.00     0.210 C 
ENDBRANCH  21  45
BRANCH  20  47
HETATM   47  O   UNK N   1      17.628  13.766   4.979  0.00  0.00    -0.358 OA
HETATM   48  H   UNK N   1      17.354  13.104   5.584  0.00  0.00     0.217 HD
ENDBRANCH  20  47
BRANCH   6  49
HETATM   49  O   UNK N   1      23.530  12.211   7.141  0.00  0.00    -0.278 OA
BRANCH  49  50
HETATM   50  C   UNK N   1      23.314  12.187   8.486  0.00  0.00     0.260 C 
HETATM   51  O   UNK N   1      22.181  11.968   8.884  0.00  0.00    -0.265 OA
HETATM   52  C   UNK N   1      24.398  12.275   9.505  0.00  0.00     0.126 C 
ENDBRANCH  49  50
ENDBRANCH   6  49
BRANCH  16  53
HETATM   53  O   UNK N   1      29.985  13.402   4.465  0.00  0.00    -0.375 OA
HETATM   54  H   UNK N   1      30.029  13.165   3.526  0.00  0.00     0.212 HD
ENDBRANCH  16  53
BRANCH  38  55
HETATM   55  O   UNK N   1      24.982  17.653   3.217  0.00  0.00    -0.357 OA
HETATM   56  H   UNK N   1      24.590  16.858   2.911  0.00  0.00     0.217 HD
ENDBRANCH  38  55
BRANCH  37  57
HETATM   57  O   UNK N   1      24.793  20.311   4.197  0.00  0.00    -0.353 OA
HETATM   58  C   UNK N   1      24.588  20.673   2.883  0.00  0.00     0.210 C 
ENDBRANCH  37  57
TORSDOF 7
ENDMDL
MODEL 3
REMARK VINA RESULT:      -7.8      7.827     11.687
REMARK  7 active torsions:
REMARK  status: ('A' for Active; 'I' for Inactive)
REMARK    1  A    between atoms: O_2  and  C_8 
REMARK    2  A    between atoms: O_2  and  C_13 
REMARK    3  A    between atoms: C_20  and  O_43 
REMARK    4  A    between atoms: C_24  and  O_33 
REMARK    5  A    between atoms: C_25  and  O_34 
REMARK    6  A    between atoms: C_45  and  O_50 
REMARK    7  A    between atoms: C_46  and  O_51 
ROOT
HETATM    1  O   UNK N   1      35.798   9.363  11.277  0.00  0.00    -0.322 OA
HETATM    2  O   UNK N   1      37.449  10.648  11.984  0.00  0.00    -0.322 OA
HETATM    3  C   UNK N   1      35.946  11.475   8.239  0.00  0.00     0.004 A 
HETATM    4  C   UNK N   1      35.467  10.474   9.128  0.00  0.00     0.013 A 
HETATM    5  C   UNK N   1      36.067  10.293  10.353  0.00  0.00     0.114 A 
HETATM    6  C   UNK N   1      36.981  12.358   8.711  0.00  0.00     0.096 A 
HETATM    7  C   UNK N   1      37.053  11.066  10.781  0.00  0.00     0.114 A 
HETATM    8  C   UNK N   1      37.541  12.138  10.022  0.00  0.00     0.009 A 
HETATM    9  C   UNK N   1      36.676   9.538  12.346  0.00  0.00     0.352 A 
HETATM   10  C   UNK N   1      38.660  12.926  10.602  0.00  0.00     0.054 C 
HETATM   11  C   UNK N   1      35.364  11.513   6.775  0.00  0.00     0.108 C 
HETATM   12  C   UNK N   1      34.315   9.653   8.748  0.00  0.00     0.143 C 
HETATM   13  N   UNK N   1      34.515   9.334   7.308  0.00  0.00    -0.367 N 
HETATM   14  C   UNK N   1      34.243  10.437   6.428  0.00  0.00     0.139 C 
HETATM   15  C   UNK N   1      32.695  10.295   6.074  0.00  0.00     0.283 C 
HETATM   16  C   UNK N   1      34.388   8.005   6.666  0.00  0.00     0.250 C 
HETATM   17  C   UNK N   1      33.221   8.001   5.636  0.00  0.00     0.275 C 
HETATM   18  N   UNK N   1      32.186   8.904   6.146  0.00  0.00     0.104 N 
HETATM   19  C   UNK N   1      33.823  17.736   7.145  0.00  0.00     0.047 A 
HETATM   20  C   UNK N   1      34.604  18.059   8.253  0.00  0.00     0.099 A 
HETATM   21  C   UNK N   1      34.948  17.048   9.191  0.00  0.00     0.101 A 
HETATM   22  C   UNK N   1      34.509  15.732   8.971  0.00  0.00     0.050 A 
HETATM   23  C   UNK N   1      33.725  15.407   7.855  0.00  0.00    -0.011 A 
HETATM   24  C   UNK N   1      33.383  16.429   6.953  0.00  0.00    -0.044 A 
HETATM   25  C   UNK N   1      32.446  16.104   5.844  0.00  0.00     0.058 C 
HETATM   26  C   UNK N   1      33.085  14.026   7.617  0.00  0.00     0.151 C 
HETATM   27  N   UNK N   1      31.639  14.292   7.480  0.00  0.00    -0.400 N 
HETATM   28  C   UNK N   1      31.272  15.279   6.420  0.00  0.00     0.120 C 
HETATM   29  C   UNK N   1      33.013  10.472   9.224  0.00  0.00     0.208 C 
HETATM   30  O   UNK N   1      32.671  11.707   8.616  0.00  0.00    -0.317 OA
HETATM   31  S   UNK N   1      35.308  13.153   5.950  0.00  0.00    -0.154 SA
HETATM   32  C   UNK N   1      33.548  13.470   6.251  0.00  0.00     0.121 C 
HETATM   33  C   UNK N   1      33.286  12.938   8.729  0.00  0.00     0.292 C 
HETATM   34  C   UNK N   1      31.644   8.517   7.444  0.00  0.00     0.311 C 
HETATM   35  O   UNK N   1      33.993  13.166   9.698  0.00  0.00    -0.262 OA
HETATM   36  C   UNK N   1      32.894   9.748   3.716  0.00  0.00    -0.044 A 
HETATM   37  C   UNK N   1      31.241  11.943   3.016  0.00  0.00     0.107 A 
HETATM   38  C   UNK N   1      31.574  11.700   4.363  0.00  0.00     0.108 A 
HETATM   39  C   UNK N   1      32.562   9.976   2.377  0.00  0.00     0.017 A 
HETATM   40  C   UNK N   1      31.756  11.078   2.026  0.00  0.00    -0.025 A 
HETATM   41  C   UNK N   1      31.410  11.296   0.595  0.00  0.00     0.051 C 
HETATM   42  C   UNK N   1      32.414  10.634   4.683  0.00  0.00     0.019 A 
HETATM   43  C   UNK N   1      33.646   8.486   4.184  0.00  0.00     0.079 C 
HETATM   44  H   UNK N   1      30.941  13.835   8.067  0.00  0.00     0.154 HD
ENDROOT
BRANCH  21  45
HETATM   45  O   UNK N   1      35.666  17.293  10.319  0.00  0.00    -0.353 OA
HETATM   46  C   UNK N   1      35.767  16.444  11.398  0.00  0.00     0.210 C 
ENDBRANCH  21  45
BRANCH  20  47
HETATM   47  O   UNK N   1      34.998  19.334   8.415  0.00  0.00    -0.358 OA
HETATM   48  H   UNK N   1      35.798  19.646   8.040  0.00  0.00     0.217 HD
ENDBRANCH  20  47
BRANCH   6  49
HETATM   49  O   UNK N   1      37.389  13.343   7.858  0.00  0.00    -0.278 OA
BRANCH  49  50
HETATM   50  C   UNK N   1      38.527  13.575   7.145  0.00  0.00     0.260 C 
HETATM   51  O   UNK N   1      39.314  14.405   7.571  0.00  0.00    -0.265 OA
HETATM   52  C   UNK N   1      38.937  12.782   5.951  0.00  0.00     0.126 C 
ENDBRANCH  49  50
ENDBRANCH   6  49
BRANCH  16  53
HETATM   53  O   UNK N   1      34.210   7.011   7.631  0.00  0.00    -0.375 OA
HETATM   54  H   UNK N   1      34.490   6.083   7.652  0.00  0.00     0.212 HD
ENDBRANCH  16  53
BRANCH  38  55
HETATM   55  O   UNK N   1      31.061  12.448   5.354  0.00  0.00    -0.357 OA
HETATM   56  H   UNK N   1      30.256  12.849   5.620  0.00  0.00     0.217 HD
ENDBRANCH  38  55
BRANCH  37  57
HETATM   57  O   UNK N   1      30.427  12.970   2.635  0.00  0.00    -0.353 OA
HETATM   58  C   UNK N   1      30.715  14.313   2.759  0.00  0.00     0.210 C 
ENDBRANCH  37  57
TORSDOF 7
ENDMDL
MODEL 4
REMARK VINA RESULT:      -7.7     10.824     15.343
REMARK  7 active torsions:
REMARK  status: ('A' for Active; 'I' for Inactive)
REMARK    1  A    between atoms: O_2  and  C_8 
REMARK    2  A    between atoms: O_2  and  C_13 
REMARK    3  A    between atoms: C_20  and  O_43 
REMARK    4  A    between atoms: C_24  and  O_33 
REMARK    5  A    between atoms: C_25  and  O_34 
REMARK    6  A    between atoms: C_45  and  O_50 
REMARK    7  A    between atoms: C_46  and  O_51 
ROOT
HETATM    1  O   UNK N   1      37.788   5.763   9.924  0.00  0.00    -0.322 OA
HETATM    2  O   UNK N   1      36.350   5.466   8.275  0.00  0.00    -0.322 OA
HETATM    3  C   UNK N   1      35.312   8.229  11.147  0.00  0.00     0.004 A 
HETATM    4  C   UNK N   1      36.527   7.492  11.100  0.00  0.00     0.013 A 
HETATM    5  C   UNK N   1      36.747   6.588  10.086  0.00  0.00     0.114 A 
HETATM    6  C   UNK N   1      34.393   8.089  10.048  0.00  0.00     0.096 A 
HETATM    7  C   UNK N   1      35.888   6.412   9.093  0.00  0.00     0.114 A 
HETATM    8  C   UNK N   1      34.702   7.152   8.996  0.00  0.00     0.009 A 
HETATM    9  C   UNK N   1      37.574   5.003   8.775  0.00  0.00     0.352 A 
HETATM   10  C   UNK N   1      33.811   6.856   7.843  0.00  0.00     0.054 C 
HETATM   11  C   UNK N   1      35.018   9.099  12.428  0.00  0.00     0.108 C 
HETATM   12  C   UNK N   1      37.555   7.716  12.117  0.00  0.00     0.143 C 
HETATM   13  N   UNK N   1      36.818   7.850  13.403  0.00  0.00    -0.367 N 
HETATM   14  C   UNK N   1      36.143   9.109  13.554  0.00  0.00     0.139 C 
HETATM   15  C   UNK N   1      37.214  10.055  14.262  0.00  0.00     0.283 C 
HETATM   16  C   UNK N   1      37.136   7.178  14.684  0.00  0.00     0.250 C 
HETATM   17  C   UNK N   1      37.523   8.223  15.771  0.00  0.00     0.275 C 
HETATM   18  N   UNK N   1      38.204   9.328  15.091  0.00  0.00     0.104 N 
HETATM   19  C   UNK N   1      33.862  14.414   9.013  0.00  0.00     0.047 A 
HETATM   20  C   UNK N   1      33.680  13.805   7.772  0.00  0.00     0.099 A 
HETATM   21  C   UNK N   1      34.290  12.550   7.507  0.00  0.00     0.101 A 
HETATM   22  C   UNK N   1      35.052  11.933   8.513  0.00  0.00     0.050 A 
HETATM   23  C   UNK N   1      35.233  12.544   9.763  0.00  0.00    -0.011 A 
HETATM   24  C   UNK N   1      34.634  13.794   9.992  0.00  0.00    -0.044 A 
HETATM   25  C   UNK N   1      34.935  14.495  11.269  0.00  0.00     0.058 C 
HETATM   26  C   UNK N   1      36.166  12.007  10.864  0.00  0.00     0.151 C 
HETATM   27  N   UNK N   1      37.101  13.114  11.147  0.00  0.00    -0.400 N 
HETATM   28  C   UNK N   1      36.457  14.408  11.529  0.00  0.00     0.120 C 
HETATM   29  C   UNK N   1      38.460   8.931  11.571  0.00  0.00     0.208 C 
HETATM   30  O   UNK N   1      37.920  10.237  11.447  0.00  0.00    -0.317 OA
HETATM   31  S   UNK N   1      33.987  10.601  12.188  0.00  0.00    -0.154 SA
HETATM   32  C   UNK N   1      35.359  11.786  12.164  0.00  0.00     0.121 C 
HETATM   33  C   UNK N   1      37.005  10.723  10.535  0.00  0.00     0.292 C 
HETATM   34  C   UNK N   1      39.422   8.935  14.389  0.00  0.00     0.311 C 
HETATM   35  O   UNK N   1      36.850  10.137   9.474  0.00  0.00    -0.262 OA
HETATM   36  C   UNK N   1      36.113  10.333  16.409  0.00  0.00    -0.044 A 
HETATM   37  C   UNK N   1      36.145  13.154  16.117  0.00  0.00     0.107 A 
HETATM   38  C   UNK N   1      36.657  12.324  15.100  0.00  0.00     0.108 A 
HETATM   39  C   UNK N   1      35.612  11.149  17.428  0.00  0.00     0.017 A 
HETATM   40  C   UNK N   1      35.611  12.551  17.276  0.00  0.00    -0.025 A 
HETATM   41  C   UNK N   1      35.079  13.398  18.377  0.00  0.00     0.051 C 
HETATM   42  C   UNK N   1      36.603  10.938  15.249  0.00  0.00     0.019 A 
HETATM   43  C   UNK N   1      36.280   8.809  16.569  0.00  0.00     0.079 C 
HETATM   44  H   UNK N   1      38.113  13.004  11.088  0.00  0.00     0.154 HD
ENDROOT
BRANCH  21  45
HETATM   45  O   UNK N   1      34.199  11.916   6.308  0.00  0.00    -0.353 OA
HETATM   46  C   UNK N   1      33.332  10.889   6.015  0.00  0.00     0.210 C 
ENDBRANCH  21  45
BRANCH  20  47
HETATM   47  O   UNK N   1      32.941  14.439   6.845  0.00  0.00    -0.358 OA
HETATM   48  H   UNK N   1      32.929  15.375   6.791  0.00  0.00     0.217 HD
ENDBRANCH  20  47
BRANCH   6  49
HETATM   49  O   UNK N   1      33.258   8.846  10.091  0.00  0.00    -0.278 OA
BRANCH  49  50
HETATM   50  C   UNK N   1      31.945   8.612   9.810  0.00  0.00     0.260 C 
HETATM   51  O   UNK N   1      31.362   9.402   9.086  0.00  0.00    -0.265 OA
HETATM   52  C   UNK N   1      31.214   7.379  10.218  0.00  0.00     0.126 C 
ENDBRANCH  49  50
ENDBRANCH   6  49
BRANCH  16  53
HETATM   53  O   UNK N   1      38.154   6.239  14.505  0.00  0.00    -0.375 OA
HETATM   54  H   UNK N   1      38.490   5.805  13.706  0.00  0.00     0.212 HD
ENDBRANCH  16  53
BRANCH  38  55
HETATM   55  O   UNK N   1      37.239  12.840  14.004  0.00  0.00    -0.357 OA
HETATM   56  H   UNK N   1      37.224  13.608  13.467  0.00  0.00     0.217 HD
ENDBRANCH  38  55
BRANCH  37  57
HETATM   57  O   UNK N   1      36.166  14.515  16.031  0.00  0.00    -0.353 OA
HETATM   58  C   UNK N   1      37.283  15.313  16.160  0.00  0.00     0.210 C 
ENDBRANCH  37  57
TORSDOF 7
ENDMDL
MODEL 5
REMARK VINA RESULT:      -7.5      5.570     11.337
REMARK  7 active torsions:
REMARK  status: ('A' for Active; 'I' for Inactive)
REMARK    1  A    between atoms: O_2  and  C_8 
REMARK    2  A    between atoms: O_2  and  C_13 
REMARK    3  A    between atoms: C_20  and  O_43 
REMARK    4  A    between atoms: C_24  and  O_33 
REMARK    5  A    between atoms: C_25  and  O_34 
REMARK    6  A    between atoms: C_45  and  O_50 
REMARK    7  A    between atoms: C_46  and  O_51 
ROOT
HETATM    1  O   UNK N   1      33.266  12.088  -0.409  0.00  0.00    -0.322 OA
HETATM    2  O   UNK N   1      31.092  11.971  -0.775  0.00  0.00    -0.322 OA
HETATM    3  C   UNK N   1      32.277  12.382   3.147  0.00  0.00     0.004 A 
HETATM    4  C   UNK N   1      33.137  12.357   2.015  0.00  0.00     0.013 A 
HETATM    5  C   UNK N   1      32.611  12.204   0.752  0.00  0.00     0.114 A 
HETATM    6  C   UNK N   1      30.856  12.367   2.918  0.00  0.00     0.096 A 
HETATM    7  C   UNK N   1      31.307  12.139   0.530  0.00  0.00     0.114 A 
HETATM    8  C   UNK N   1      30.369  12.244   1.566  0.00  0.00     0.009 A 
HETATM    9  C   UNK N   1      32.330  11.917  -1.428  0.00  0.00     0.352 A 
HETATM   10  C   UNK N   1      28.933  12.143   1.194  0.00  0.00     0.054 C 
HETATM   11  C   UNK N   1      32.933  12.356   4.580  0.00  0.00     0.108 C 
HETATM   12  C   UNK N   1      34.581  12.522   2.192  0.00  0.00     0.143 C 
HETATM   13  N   UNK N   1      34.925  11.728   3.401  0.00  0.00    -0.367 N 
HETATM   14  C   UNK N   1      34.524  12.348   4.634  0.00  0.00     0.139 C 
HETATM   15  C   UNK N   1      35.779  13.233   5.063  0.00  0.00     0.283 C 
HETATM   16  C   UNK N   1      36.042  10.766   3.545  0.00  0.00     0.250 C 
HETATM   17  C   UNK N   1      37.058  11.261   4.616  0.00  0.00     0.275 C 
HETATM   18  N   UNK N   1      37.076  12.725   4.557  0.00  0.00     0.104 N 
HETATM   19  C   UNK N   1      29.692  17.532   6.567  0.00  0.00     0.047 A 
HETATM   20  C   UNK N   1      28.715  17.537   5.573  0.00  0.00     0.099 A 
HETATM   21  C   UNK N   1      28.991  16.943   4.311  0.00  0.00     0.101 A 
HETATM   22  C   UNK N   1      30.242  16.341   4.097  0.00  0.00     0.050 A 
HETATM   23  C   UNK N   1      31.224  16.335   5.098  0.00  0.00    -0.011 A 
HETATM   24  C   UNK N   1      30.932  16.946   6.329  0.00  0.00    -0.044 A 
HETATM   25  C   UNK N   1      32.020  17.049   7.339  0.00  0.00     0.058 C 
HETATM   26  C   UNK N   1      32.664  15.827   4.897  0.00  0.00     0.151 C 
HETATM   27  N   UNK N   1      33.527  16.970   5.257  0.00  0.00    -0.400 N 
HETATM   28  C   UNK N   1      33.307  17.527   6.626  0.00  0.00     0.120 C 
HETATM   29  C   UNK N   1      34.850  14.109   2.160  0.00  0.00     0.208 C 
HETATM   30  O   UNK N   1      34.359  14.949   3.193  0.00  0.00    -0.317 OA
HETATM   31  S   UNK N   1      32.002  13.186   5.930  0.00  0.00    -0.154 SA
HETATM   32  C   UNK N   1      32.971  14.719   5.930  0.00  0.00     0.121 C 
HETATM   33  C   UNK N   1      33.062  15.339   3.460  0.00  0.00     0.292 C 
HETATM   34  C   UNK N   1      37.484  13.264   3.264  0.00  0.00     0.311 C 
HETATM   35  O   UNK N   1      32.228  15.291   2.569  0.00  0.00    -0.262 OA
HETATM   36  C   UNK N   1      36.448  12.006   7.049  0.00  0.00    -0.044 A 
HETATM   37  C   UNK N   1      36.241  14.350   8.630  0.00  0.00     0.107 A 
HETATM   38  C   UNK N   1      35.924  14.383   7.257  0.00  0.00     0.108 A 
HETATM   39  C   UNK N   1      36.774  11.965   8.408  0.00  0.00     0.017 A 
HETATM   40  C   UNK N   1      36.653  13.126   9.199  0.00  0.00    -0.025 A 
HETATM   41  C   UNK N   1      37.013  13.060  10.642  0.00  0.00     0.051 C 
HETATM   42  C   UNK N   1      36.002  13.212   6.505  0.00  0.00     0.019 A 
HETATM   43  C   UNK N   1      36.695  10.817   6.098  0.00  0.00     0.079 C 
HETATM   44  H   UNK N   1      34.224  17.352   4.617  0.00  0.00     0.154 HD
ENDROOT
BRANCH  21  45
HETATM   45  O   UNK N   1      28.108  16.948   3.277  0.00  0.00    -0.353 OA
HETATM   46  C   UNK N   1      27.492  15.836   2.752  0.00  0.00     0.210 C 
ENDBRANCH  21  45
BRANCH  20  47
HETATM   47  O   UNK N   1      27.535  18.126   5.831  0.00  0.00    -0.358 OA
HETATM   48  H   UNK N   1      26.901  17.718   6.389  0.00  0.00     0.217 HD
ENDBRANCH  20  47
BRANCH   6  49
HETATM   49  O   UNK N   1      30.052  12.443   4.019  0.00  0.00    -0.278 OA
BRANCH  49  50
HETATM   50  C   UNK N   1      29.109  11.627   4.568  0.00  0.00     0.260 C 
HETATM   51  O   UNK N   1      29.485  10.621   5.148  0.00  0.00    -0.265 OA
HETATM   52  C   UNK N   1      27.656  11.955   4.626  0.00  0.00     0.126 C 
ENDBRANCH  49  50
ENDBRANCH   6  49
BRANCH  16  53
HETATM   53  O   UNK N   1      36.670  10.558   2.316  0.00  0.00    -0.375 OA
HETATM   54  H   UNK N   1      36.889   9.742   1.839  0.00  0.00     0.212 HD
ENDBRANCH  16  53
BRANCH  38  55
HETATM   55  O   UNK N   1      35.591  15.532   6.646  0.00  0.00    -0.357 OA
HETATM   56  H   UNK N   1      35.933  16.387   6.468  0.00  0.00     0.217 HD
ENDBRANCH  38  55
BRANCH  37  57
HETATM   57  O   UNK N   1      36.182  15.459   9.423  0.00  0.00    -0.353 OA
HETATM   58  C   UNK N   1      35.031  16.033   9.920  0.00  0.00     0.210 C 
ENDBRANCH  37  57
TORSDOF 7
ENDMDL
MODEL 6
REMARK VINA RESULT:      -7.4      2.173      6.851
REMARK  7 active torsions:
REMARK  status: ('A' for Active; 'I' for Inactive)
REMARK    1  A    between atoms: O_2  and  C_8 
REMARK    2  A    between atoms: O_2  and  C_13 
REMARK    3  A    between atoms: C_20  and  O_43 
REMARK    4  A    between atoms: C_24  and  O_33 
REMARK    5  A    between atoms: C_25  and  O_34 
REMARK    6  A    between atoms: C_45  and  O_50 
REMARK    7  A    between atoms: C_46  and  O_51 
ROOT
HETATM    1  O   UNK N   1      23.655  19.204   3.352  0.00  0.00    -0.322 OA
HETATM    2  O   UNK N   1      25.365  20.498   3.878  0.00  0.00    -0.322 OA
HETATM    3  C   UNK N   1      25.523  16.605   5.213  0.00  0.00     0.004 A 
HETATM    4  C   UNK N   1      24.495  17.169   4.409  0.00  0.00     0.013 A 
HETATM    5  C   UNK N   1      24.558  18.493   4.038  0.00  0.00     0.114 A 
HETATM    6  C   UNK N   1      26.671  17.419   5.512  0.00  0.00     0.096 A 
HETATM    7  C   UNK N   1      25.585  19.269   4.347  0.00  0.00     0.114 A 
HETATM    8  C   UNK N   1      26.692  18.788   5.059  0.00  0.00     0.009 A 
HETATM    9  C   UNK N   1      24.121  20.513   3.235  0.00  0.00     0.352 A 
HETATM   10  C   UNK N   1      27.778  19.758   5.360  0.00  0.00     0.054 C 
HETATM   11  C   UNK N   1      25.310  15.150   5.780  0.00  0.00     0.108 C 
HETATM   12  C   UNK N   1      23.383  16.333   3.955  0.00  0.00     0.143 C 
HETATM   13  N   UNK N   1      23.028  15.478   5.119  0.00  0.00    -0.367 N 
HETATM   14  C   UNK N   1      23.962  14.414   5.361  0.00  0.00     0.139 C 
HETATM   15  C   UNK N   1      23.404  13.190   4.505  0.00  0.00     0.283 C 
HETATM   16  C   UNK N   1      21.671  15.223   5.655  0.00  0.00     0.250 C 
HETATM   17  C   UNK N   1      21.298  13.718   5.512  0.00  0.00     0.275 C 
HETATM   18  N   UNK N   1      21.938  13.225   4.290  0.00  0.00     0.104 N 
HETATM   19  C   UNK N   1      30.940  13.042   3.521  0.00  0.00     0.047 A 
HETATM   20  C   UNK N   1      31.527  14.284   3.287  0.00  0.00     0.099 A 
HETATM   21  C   UNK N   1      30.705  15.418   3.045  0.00  0.00     0.101 A 
HETATM   22  C   UNK N   1      29.308  15.267   3.067  0.00  0.00     0.050 A 
HETATM   23  C   UNK N   1      28.718  14.017   3.305  0.00  0.00    -0.011 A 
HETATM   24  C   UNK N   1      29.554  12.909   3.522  0.00  0.00    -0.044 A 
HETATM   25  C   UNK N   1      28.925  11.567   3.645  0.00  0.00     0.058 C 
HETATM   26  C   UNK N   1      27.206  13.739   3.203  0.00  0.00     0.151 C 
HETATM   27  N   UNK N   1      27.083  12.649   2.215  0.00  0.00    -0.400 N 
HETATM   28  C   UNK N   1      27.868  11.416   2.527  0.00  0.00     0.120 C 
HETATM   29  C   UNK N   1      23.870  15.662   2.575  0.00  0.00     0.208 C 
HETATM   30  O   UNK N   1      24.932  14.721   2.562  0.00  0.00    -0.317 OA
HETATM   31  S   UNK N   1      26.821  14.144   6.062  0.00  0.00    -0.154 SA
HETATM   32  C   UNK N   1      26.696  13.161   4.543  0.00  0.00     0.121 C 
HETATM   33  C   UNK N   1      26.284  14.925   2.752  0.00  0.00     0.292 C 
HETATM   34  C   UNK N   1      21.513  13.912   3.075  0.00  0.00     0.311 C 
HETATM   35  O   UNK N   1      26.751  16.039   2.572  0.00  0.00    -0.262 OA
HETATM   36  C   UNK N   1      22.768  11.713   6.326  0.00  0.00    -0.044 A 
HETATM   37  C   UNK N   1      24.413   9.647   5.292  0.00  0.00     0.107 A 
HETATM   38  C   UNK N   1      24.355  10.902   4.654  0.00  0.00     0.108 A 
HETATM   39  C   UNK N   1      22.811  10.468   6.961  0.00  0.00     0.017 A 
HETATM   40  C   UNK N   1      23.643   9.446   6.458  0.00  0.00    -0.025 A 
HETATM   41  C   UNK N   1      23.667   8.128   7.147  0.00  0.00     0.051 C 
HETATM   42  C   UNK N   1      23.564  11.915   5.196  0.00  0.00     0.019 A 
HETATM   43  C   UNK N   1      21.776  12.821   6.732  0.00  0.00     0.079 C 
HETATM   44  H   UNK N   1      26.503  12.732   1.380  0.00  0.00     0.154 HD
ENDROOT
BRANCH  21  45
HETATM   45  O   UNK N   1      31.201  16.651   2.763  0.00  0.00    -0.353 OA
HETATM   46  C   UNK N   1      31.802  17.493   3.670  0.00  0.00     0.210 C 
ENDBRANCH  21  45
BRANCH  20  47
HETATM   47  O   UNK N   1      32.869  14.372   3.277  0.00  0.00    -0.358 OA
HETATM   48  H   UNK N   1      33.386  13.842   2.703  0.00  0.00     0.217 HD
ENDBRANCH  20  47
BRANCH   6  49
HETATM   49  O   UNK N   1      27.668  16.838   6.242  0.00  0.00    -0.278 OA
BRANCH  49  50
HETATM   50  C   UNK N   1      28.285  17.137   7.420  0.00  0.00     0.260 C 
HETATM   51  O   UNK N   1      27.642  17.029   8.451  0.00  0.00    -0.265 OA
HETATM   52  C   UNK N   1      29.737  17.455   7.541  0.00  0.00     0.126 C 
ENDBRANCH  49  50
ENDBRANCH   6  49
BRANCH  16  53
HETATM   53  O   UNK N   1      20.732  16.036   5.016  0.00  0.00    -0.375 OA
HETATM   54  H   UNK N   1      20.015  16.584   5.369  0.00  0.00     0.212 HD
ENDBRANCH  16  53
BRANCH  38  55
HETATM   55  O   UNK N   1      25.011  11.131   3.504  0.00  0.00    -0.357 OA
HETATM   56  H   UNK N   1      25.883  11.233   3.173  0.00  0.00     0.217 HD
ENDBRANCH  38  55
BRANCH  37  57
HETATM   57  O   UNK N   1      25.168   8.616   4.815  0.00  0.00    -0.353 OA
HETATM   58  C   UNK N   1      26.541   8.518   4.900  0.00  0.00     0.210 C 
ENDBRANCH  37  57
TORSDOF 7
ENDMDL
MODEL 7
REMARK VINA RESULT:      -7.3      8.038     13.541
REMARK  7 active torsions:
REMARK  status: ('A' for Active; 'I' for Inactive)
REMARK    1  A    between atoms: O_2  and  C_8 
REMARK    2  A    between atoms: O_2  and  C_13 
REMARK    3  A    between atoms: C_20  and  O_43 
REMARK    4  A    between atoms: C_24  and  O_33 
REMARK    5  A    between atoms: C_25  and  O_34 
REMARK    6  A    between atoms: C_45  and  O_50 
REMARK    7  A    between atoms: C_46  and  O_51 
ROOT
HETATM    1  O   UNK N   1      37.194  13.399   1.839  0.00  0.00    -0.322 OA
HETATM    2  O   UNK N   1      35.241  13.426   0.809  0.00  0.00    -0.322 OA
HETATM    3  C   UNK N   1      35.190  12.536   4.829  0.00  0.00     0.004 A 
HETATM    4  C   UNK N   1      36.341  12.871   4.064  0.00  0.00     0.013 A 
HETATM    5  C   UNK N   1      36.221  13.139   2.720  0.00  0.00     0.114 A 
HETATM    6  C   UNK N   1      33.905  12.608   4.185  0.00  0.00     0.096 A 
HETATM    7  C   UNK N   1      35.051  13.161   2.102  0.00  0.00     0.114 A 
HETATM    8  C   UNK N   1      33.846  12.933   2.781  0.00  0.00     0.009 A 
HETATM    9  C   UNK N   1      36.615  13.576   0.583  0.00  0.00     0.352 A 
HETATM   10  C   UNK N   1      32.597  12.970   1.976  0.00  0.00     0.054 C 
HETATM   11  C   UNK N   1      35.399  12.042   6.312  0.00  0.00     0.108 C 
HETATM   12  C   UNK N   1      37.649  12.958   4.716  0.00  0.00     0.143 C 
HETATM   13  N   UNK N   1      37.696  11.812   5.663  0.00  0.00    -0.367 N 
HETATM   14  C   UNK N   1      36.899  12.003   6.843  0.00  0.00     0.139 C 
HETATM   15  C   UNK N   1      37.888  12.692   7.887  0.00  0.00     0.283 C 
HETATM   16  C   UNK N   1      38.806  10.846   5.835  0.00  0.00     0.250 C 
HETATM   17  C   UNK N   1      39.416  10.959   7.263  0.00  0.00     0.275 C 
HETATM   18  N   UNK N   1      39.317  12.363   7.669  0.00  0.00     0.104 N 
HETATM   19  C   UNK N   1      31.262  16.325   8.718  0.00  0.00     0.047 A 
HETATM   20  C   UNK N   1      30.621  16.659   7.526  0.00  0.00     0.099 A 
HETATM   21  C   UNK N   1      31.306  16.503   6.290  0.00  0.00     0.101 A 
HETATM   22  C   UNK N   1      32.614  15.993   6.293  0.00  0.00     0.050 A 
HETATM   23  C   UNK N   1      33.258  15.654   7.492  0.00  0.00    -0.011 A 
HETATM   24  C   UNK N   1      32.566  15.837   8.701  0.00  0.00    -0.044 A 
HETATM   25  C   UNK N   1      33.299  15.598   9.973  0.00  0.00     0.058 C 
HETATM   26  C   UNK N   1      34.735  15.227   7.592  0.00  0.00     0.151 C 
HETATM   27  N   UNK N   1      35.347  16.184   8.534  0.00  0.00    -0.400 N 
HETATM   28  C   UNK N   1      34.688  16.270   9.873  0.00  0.00     0.120 C 
HETATM   29  C   UNK N   1      37.770  14.468   5.262  0.00  0.00     0.208 C 
HETATM   30  O   UNK N   1      36.925  14.932   6.303  0.00  0.00    -0.317 OA
HETATM   31  S   UNK N   1      34.044  12.399   7.500  0.00  0.00    -0.154 SA
HETATM   32  C   UNK N   1      34.827  13.841   8.272  0.00  0.00     0.121 C 
HETATM   33  C   UNK N   1      35.577  15.226   6.269  0.00  0.00     0.292 C 
HETATM   34  C   UNK N   1      40.033  13.288   6.798  0.00  0.00     0.311 C 
HETATM   35  O   UNK N   1      35.047  15.476   5.198  0.00  0.00    -0.262 OA
HETATM   36  C   UNK N   1      38.058  10.882   9.498  0.00  0.00    -0.044 A 
HETATM   37  C   UNK N   1      37.187  12.591  11.586  0.00  0.00     0.107 A 
HETATM   38  C   UNK N   1      37.282  13.069  10.264  0.00  0.00     0.108 A 
HETATM   39  C   UNK N   1      37.976  10.401  10.808  0.00  0.00     0.017 A 
HETATM   40  C   UNK N   1      37.525  11.245  11.844  0.00  0.00    -0.025 A 
HETATM   41  C   UNK N   1      37.453  10.712  13.232  0.00  0.00     0.051 C 
HETATM   42  C   UNK N   1      37.682  12.203   9.246  0.00  0.00     0.019 A 
HETATM   43  C   UNK N   1      38.679  10.063   8.348  0.00  0.00     0.079 C 
HETATM   44  H   UNK N   1      36.162  16.747   8.290  0.00  0.00     0.154 HD
ENDROOT
BRANCH  21  45
HETATM   45  O   UNK N   1      30.766  16.850   5.092  0.00  0.00    -0.353 OA
HETATM   46  C   UNK N   1      31.465  16.984   3.914  0.00  0.00     0.210 C 
ENDBRANCH  21  45
BRANCH  20  47
HETATM   47  O   UNK N   1      29.369  17.143   7.582  0.00  0.00    -0.358 OA
HETATM   48  H   UNK N   1      28.883  17.324   6.800  0.00  0.00     0.217 HD
ENDBRANCH  20  47
BRANCH   6  49
HETATM   49  O   UNK N   1      32.811  12.331   4.954  0.00  0.00    -0.278 OA
BRANCH  49  50
HETATM   50  C   UNK N   1      31.861  11.354   4.942  0.00  0.00     0.260 C 
HETATM   51  O   UNK N   1      30.688  11.692   4.954  0.00  0.00    -0.265 OA
HETATM   52  C   UNK N   1      32.160   9.903   4.776  0.00  0.00     0.126 C 
ENDBRANCH  49  50
ENDBRANCH   6  49
BRANCH  16  53
HETATM   53  O   UNK N   1      39.781  11.041   4.855  0.00  0.00    -0.375 OA
HETATM   54  H   UNK N   1      40.489  10.463   4.533  0.00  0.00     0.212 HD
ENDBRANCH  16  53
BRANCH  38  55
HETATM   55  O   UNK N   1      37.038  14.356   9.968  0.00  0.00    -0.357 OA
HETATM   56  H   UNK N   1      37.006  14.940   9.235  0.00  0.00     0.217 HD
ENDBRANCH  38  55
BRANCH  37  57
HETATM   57  O   UNK N   1      36.799  13.384  12.626  0.00  0.00    -0.353 OA
HETATM   58  C   UNK N   1      35.502  13.751  12.918  0.00  0.00     0.210 C 
ENDBRANCH  37  57
TORSDOF 7
ENDMDL
MODEL 8
REMARK VINA RESULT:      -7.2      2.706      7.346
REMARK  7 active torsions:
REMARK  status: ('A' for Active; 'I' for Inactive)
REMARK    1  A    between atoms: O_2  and  C_8 
REMARK    2  A    between atoms: O_2  and  C_13 
REMARK    3  A    between atoms: C_20  and  O_43 
REMARK    4  A    between atoms: C_24  and  O_33 
REMARK    5  A    between atoms: C_25  and  O_34 
REMARK    6  A    between atoms: C_45  and  O_50 
REMARK    7  A    between atoms: C_46  and  O_51 
ROOT
HETATM    1  O   UNK N   1      20.592  15.776   0.447  0.00  0.00    -0.322 OA
HETATM    2  O   UNK N   1      20.145  17.539   1.699  0.00  0.00    -0.322 OA
HETATM    3  C   UNK N   1      22.459  14.599   3.420  0.00  0.00     0.004 A 
HETATM    4  C   UNK N   1      21.967  14.599   2.085  0.00  0.00     0.013 A 
HETATM    5  C   UNK N   1      21.193  15.644   1.635  0.00  0.00     0.114 A 
HETATM    6  C   UNK N   1      22.226  15.769   4.226  0.00  0.00     0.096 A 
HETATM    7  C   UNK N   1      20.928  16.705   2.382  0.00  0.00     0.114 A 
HETATM    8  C   UNK N   1      21.438  16.847   3.680  0.00  0.00     0.009 A 
HETATM    9  C   UNK N   1      19.885  16.978   0.442  0.00  0.00     0.352 A 
HETATM   10  C   UNK N   1      21.060  18.076   4.426  0.00  0.00     0.054 C 
HETATM   11  C   UNK N   1      23.168  13.296   3.952  0.00  0.00     0.108 C 
HETATM   12  C   UNK N   1      22.310  13.499   1.183  0.00  0.00     0.143 C 
HETATM   13  N   UNK N   1      22.214  12.265   2.008  0.00  0.00    -0.367 N 
HETATM   14  C   UNK N   1      23.311  12.093   2.920  0.00  0.00     0.139 C 
HETATM   15  C   UNK N   1      24.389  11.257   2.095  0.00  0.00     0.283 C 
HETATM   16  C   UNK N   1      21.527  11.004   1.646  0.00  0.00     0.250 C 
HETATM   17  C   UNK N   1      22.548   9.834   1.534  0.00  0.00     0.275 C 
HETATM   18  N   UNK N   1      23.805  10.400   1.036  0.00  0.00     0.104 N 
HETATM   19  C   UNK N   1      28.394  16.482   5.897  0.00  0.00     0.047 A 
HETATM   20  C   UNK N   1      27.849  17.765   5.883  0.00  0.00     0.099 A 
HETATM   21  C   UNK N   1      26.752  18.056   5.028  0.00  0.00     0.101 A 
HETATM   22  C   UNK N   1      26.221  17.032   4.224  0.00  0.00     0.050 A 
HETATM   23  C   UNK N   1      26.768  15.741   4.240  0.00  0.00    -0.011 A 
HETATM   24  C   UNK N   1      27.865  15.486   5.080  0.00  0.00    -0.044 A 
HETATM   25  C   UNK N   1      28.519  14.153   4.997  0.00  0.00     0.058 C 
HETATM   26  C   UNK N   1      26.340  14.607   3.290  0.00  0.00     0.151 C 
HETATM   27  N   UNK N   1      27.581  14.194   2.604  0.00  0.00    -0.400 N 
HETATM   28  C   UNK N   1      28.702  13.788   3.506  0.00  0.00     0.120 C 
HETATM   29  C   UNK N   1      23.708  13.909   0.497  0.00  0.00     0.208 C 
HETATM   30  O   UNK N   1      24.894  13.998   1.268  0.00  0.00    -0.317 OA
HETATM   31  S   UNK N   1      24.462  13.526   5.235  0.00  0.00    -0.154 SA
HETATM   32  C   UNK N   1      25.882  13.384   4.117  0.00  0.00     0.121 C 
HETATM   33  C   UNK N   1      25.262  14.946   2.202  0.00  0.00     0.292 C 
HETATM   34  C   UNK N   1      23.697  11.033  -0.274  0.00  0.00     0.311 C 
HETATM   35  O   UNK N   1      24.732  16.046   2.177  0.00  0.00    -0.262 OA
HETATM   36  C   UNK N   1      24.308   9.183   3.357  0.00  0.00    -0.044 A 
HETATM   37  C   UNK N   1      27.097   9.313   3.849  0.00  0.00     0.107 A 
HETATM   38  C   UNK N   1      26.450  10.336   3.127  0.00  0.00     0.108 A 
HETATM   39  C   UNK N   1      24.942   8.159   4.066  0.00  0.00     0.017 A 
HETATM   40  C   UNK N   1      26.326   8.232   4.327  0.00  0.00    -0.025 A 
HETATM   41  C   UNK N   1      26.980   7.126   5.078  0.00  0.00     0.051 C 
HETATM   42  C   UNK N   1      25.072  10.268   2.924  0.00  0.00     0.019 A 
HETATM   43  C   UNK N   1      22.834   9.098   2.912  0.00  0.00     0.079 C 
HETATM   44  H   UNK N   1      27.667  14.186   1.588  0.00  0.00     0.154 HD
ENDROOT
BRANCH  21  45
HETATM   45  O   UNK N   1      26.197  19.292   4.923  0.00  0.00    -0.353 OA
HETATM   46  C   UNK N   1      26.456  20.198   3.920  0.00  0.00     0.210 C 
ENDBRANCH  21  45
BRANCH  20  47
HETATM   47  O   UNK N   1      28.396  18.706   6.672  0.00  0.00    -0.358 OA
HETATM   48  H   UNK N   1      28.884  19.420   6.310  0.00  0.00     0.217 HD
ENDBRANCH  20  47
BRANCH   6  49
HETATM   49  O   UNK N   1      22.751  15.765   5.486  0.00  0.00    -0.278 OA
BRANCH  49  50
HETATM   50  C   UNK N   1      22.219  15.762   6.741  0.00  0.00     0.260 C 
HETATM   51  O   UNK N   1      21.840  16.824   7.208  0.00  0.00    -0.265 OA
HETATM   52  C   UNK N   1      21.942  14.524   7.524  0.00  0.00     0.126 C 
ENDBRANCH  49  50
ENDBRANCH   6  49
BRANCH  16  53
HETATM   53  O   UNK N   1      20.810  11.161   0.458  0.00  0.00    -0.375 OA
HETATM   54  H   UNK N   1      21.058  10.999  -0.465  0.00  0.00     0.212 HD
ENDBRANCH  16  53
BRANCH  38  55
HETATM   55  O   UNK N   1      27.141  11.355   2.589  0.00  0.00    -0.357 OA
HETATM   56  H   UNK N   1      27.095  11.971   1.884  0.00  0.00     0.217 HD
ENDBRANCH  38  55
BRANCH  37  57
HETATM   57  O   UNK N   1      28.441   9.320   4.085  0.00  0.00    -0.353 OA
HETATM   58  C   UNK N   1      29.100  10.161   4.956  0.00  0.00     0.210 C 
ENDBRANCH  37  57
TORSDOF 7
ENDMDL
MODEL 9
REMARK VINA RESULT:      -7.1      9.849     13.770
REMARK  7 active torsions:
REMARK  status: ('A' for Active; 'I' for Inactive)
REMARK    1  A    between atoms: O_2  and  C_8 
REMARK    2  A    between atoms: O_2  and  C_13 
REMARK    3  A    between atoms: C_20  and  O_43 
REMARK    4  A    between atoms: C_24  and  O_33 
REMARK    5  A    between atoms: C_25  and  O_34 
REMARK    6  A    between atoms: C_45  and  O_50 
REMARK    7  A    between atoms: C_46  and  O_51 
ROOT
HETATM    1  O   UNK N   1      36.389  13.632  13.651  0.00  0.00    -0.322 OA
HETATM    2  O   UNK N   1      37.202  11.777  14.531  0.00  0.00    -0.322 OA
HETATM    3  C   UNK N   1      36.125  11.611  10.560  0.00  0.00     0.004 A 
HETATM    4  C   UNK N   1      36.065  12.762  11.392  0.00  0.00     0.013 A 
HETATM    5  C   UNK N   1      36.447  12.680  12.712  0.00  0.00     0.114 A 
HETATM    6  C   UNK N   1      36.709  10.413  11.104  0.00  0.00     0.096 A 
HETATM    7  C   UNK N   1      36.940  11.570  13.240  0.00  0.00     0.114 A 
HETATM    8  C   UNK N   1      37.126  10.405  12.485  0.00  0.00     0.009 A 
HETATM    9  C   UNK N   1      36.850  13.094  14.852  0.00  0.00     0.352 A 
HETATM   10  C   UNK N   1      37.674   9.218  13.192  0.00  0.00     0.054 C 
HETATM   11  C   UNK N   1      35.492  11.700   9.119  0.00  0.00     0.108 C 
HETATM   12  C   UNK N   1      35.620  14.041  10.837  0.00  0.00     0.143 C 
HETATM   13  N   UNK N   1      34.476  13.709   9.945  0.00  0.00    -0.367 N 
HETATM   14  C   UNK N   1      34.868  13.104   8.703  0.00  0.00     0.139 C 
HETATM   15  C   UNK N   1      35.072  14.332   7.706  0.00  0.00     0.283 C 
HETATM   16  C   UNK N   1      33.160  14.388   9.897  0.00  0.00     0.250 C 
HETATM   17  C   UNK N   1      32.945  15.071   8.515  0.00  0.00     0.275 C 
HETATM   18  N   UNK N   1      34.256  15.522   8.042  0.00  0.00     0.104 N 
HETATM   19  C   UNK N   1      40.824   9.584   6.233  0.00  0.00     0.047 A 
HETATM   20  C   UNK N   1      41.450   9.051   7.359  0.00  0.00     0.099 A 
HETATM   21  C   UNK N   1      41.136   9.562   8.647  0.00  0.00     0.101 A 
HETATM   22  C   UNK N   1      40.181  10.586   8.763  0.00  0.00     0.050 A 
HETATM   23  C   UNK N   1      39.550  11.120   7.631  0.00  0.00    -0.011 A 
HETATM   24  C   UNK N   1      39.892  10.610   6.367  0.00  0.00    -0.044 A 
HETATM   25  C   UNK N   1      39.316  11.268   5.164  0.00  0.00     0.058 C 
HETATM   26  C   UNK N   1      38.603  12.335   7.658  0.00  0.00     0.151 C 
HETATM   27  N   UNK N   1      39.203  13.308   6.724  0.00  0.00    -0.400 N 
HETATM   28  C   UNK N   1      39.435  12.800   5.338  0.00  0.00     0.120 C 
HETATM   29  C   UNK N   1      36.939  14.744  10.236  0.00  0.00     0.208 C 
HETATM   30  O   UNK N   1      37.610  14.187   9.118  0.00  0.00    -0.317 OA
HETATM   31  S   UNK N   1      36.241  10.639   7.820  0.00  0.00    -0.154 SA
HETATM   32  C   UNK N   1      37.238  11.941   7.047  0.00  0.00     0.121 C 
HETATM   33  C   UNK N   1      38.381  13.045   9.039  0.00  0.00     0.292 C 
HETATM   34  C   UNK N   1      34.909  16.484   8.924  0.00  0.00     0.311 C 
HETATM   35  O   UNK N   1      38.880  12.590  10.056  0.00  0.00    -0.262 OA
HETATM   36  C   UNK N   1      33.223  13.902   6.191  0.00  0.00    -0.044 A 
HETATM   37  C   UNK N   1      34.989  13.839   3.973  0.00  0.00     0.107 A 
HETATM   38  C   UNK N   1      35.485  14.036   5.277  0.00  0.00     0.108 A 
HETATM   39  C   UNK N   1      32.719  13.717   4.900  0.00  0.00     0.017 A 
HETATM   40  C   UNK N   1      33.599  13.667   3.798  0.00  0.00    -0.025 A 
HETATM   41  C   UNK N   1      33.038  13.475   2.433  0.00  0.00     0.051 C 
HETATM   42  C   UNK N   1      34.604  14.031   6.357  0.00  0.00     0.019 A 
HETATM   43  C   UNK N   1      32.312  14.112   7.418  0.00  0.00     0.079 C 
HETATM   44  H   UNK N   1      39.441  14.260   7.004  0.00  0.00     0.154 HD
ENDROOT
BRANCH  21  45
HETATM   45  O   UNK N   1      41.736   9.128   9.787  0.00  0.00    -0.353 OA
HETATM   46  C   UNK N   1      41.305   8.077  10.563  0.00  0.00     0.210 C 
ENDBRANCH  21  45
BRANCH  20  47
HETATM   47  O   UNK N   1      42.356   8.073   7.190  0.00  0.00    -0.358 OA
HETATM   48  H   UNK N   1      43.089   7.985   7.768  0.00  0.00     0.217 HD
ENDBRANCH  20  47
BRANCH   6  49
HETATM   49  O   UNK N   1      36.802   9.337  10.269  0.00  0.00    -0.278 OA
BRANCH  49  50
HETATM   50  C   UNK N   1      36.199   8.116  10.216  0.00  0.00     0.260 C 
HETATM   51  O   UNK N   1      36.907   7.128  10.108  0.00  0.00    -0.265 OA
HETATM   52  C   UNK N   1      34.738   7.900  10.421  0.00  0.00     0.126 C 
ENDBRANCH  49  50
ENDBRANCH   6  49
BRANCH  16  53
HETATM   53  O   UNK N   1      33.049  15.312  10.938  0.00  0.00    -0.375 OA
HETATM   54  H   UNK N   1      32.777  15.205  11.862  0.00  0.00     0.212 HD
ENDBRANCH  16  53
BRANCH  38  55
HETATM   55  O   UNK N   1      36.789  14.273   5.498  0.00  0.00    -0.357 OA
HETATM   56  H   UNK N   1      37.417  14.287   6.195  0.00  0.00     0.217 HD
ENDBRANCH  38  55
BRANCH  37  57
HETATM   57  O   UNK N   1      35.797  13.830   2.874  0.00  0.00    -0.353 OA
HETATM   58  C   UNK N   1      36.624  12.795   2.493  0.00  0.00     0.210 C 
ENDBRANCH  37  57
TORSDOF 7
ENDMDL
