REMARK  6 active torsions:
REMARK  status: ('A' for Active; 'I' for Inactive)
REMARK    1  A    between atoms: C_5  and  N_7 
REMARK    2  A    between atoms: N_7  and  S_8 
REMARK    3  A    between atoms: S_8  and  C_9 
REMARK    4  A    between atoms: C_11  and  C_17 
REMARK    5  A    between atoms: C_18  and  C_19 
REMARK       I    between atoms: C_19  and  N_21 
REMARK    6  A    between atoms: N_21  and  O_22 
ROOT
HETATM    1  C   UNK N   1      -0.468   0.219  -0.190  0.00  0.00     0.080 A 
HETATM    2  C   UNK N   1       0.634  -0.633  -0.162  0.00  0.00     0.036 A 
HETATM    3  C   UNK N   1       1.936  -0.137  -0.179  0.00  0.00    -0.035 A 
HETATM    4  C   UNK N   1       2.130   1.249  -0.228  0.00  0.00     0.011 A 
HETATM    5  C   UNK N   1       1.027   2.118  -0.264  0.00  0.00     0.002 A 
HETATM    6  C   UNK N   1      -0.277   1.603  -0.238  0.00  0.00     0.025 A 
ENDROOT
BRANCH   1   7
HETATM    7  S   UNK N   1      -2.089  -0.526  -0.092  0.00  0.00     0.263 S 
HETATM    8  O   UNK N   1      -2.233  -1.676  -1.100  0.00  0.00    -0.200 OA
HETATM    9  O   UNK N   1      -2.226  -1.277   1.241  0.00  0.00    -0.200 OA
BRANCH   7  10
HETATM   10  N   UNK N   1      -3.586   0.390  -0.222  0.00  0.00    -0.281 N 
HETATM   11  H   UNK N   1      -3.546   1.357  -0.401  0.00  0.00     0.179 HD
BRANCH  10  12
HETATM   12  C   UNK N   1      -4.853  -0.240  -0.076  0.00  0.00     0.042 A 
HETATM   13  C   UNK N   1      -6.019   0.533  -0.077  0.00  0.00     0.030 A 
HETATM   14  C   UNK N   1      -7.269  -0.078   0.087  0.00  0.00     0.002 A 
HETATM   15  C   UNK N   1      -7.358  -1.464   0.249  0.00  0.00     0.000 A 
HETATM   16  C   UNK N   1      -6.199  -2.242   0.246  0.00  0.00     0.002 A 
HETATM   17  C   UNK N   1      -4.954  -1.633   0.087  0.00  0.00     0.030 A 
ENDBRANCH  10  12
ENDBRANCH   7  10
ENDBRANCH   1   7
BRANCH   3  18
HETATM   18  C   UNK N   1       3.018  -1.146  -0.115  0.00  0.00     0.017 C 
HETATM   19  C   UNK N   1       4.359  -1.073  -0.004  0.00  0.00     0.077 C 
BRANCH  19  20
HETATM   20  C   UNK N   1       5.282   0.076   0.078  0.00  0.00     0.264 C 
HETATM   21  O   UNK N   1       6.465  -0.146   0.291  0.00  0.00    -0.266 OA
HETATM   22  N   UNK N   1       4.863   1.347  -0.089  0.00  0.00    -0.234 N 
HETATM   23  H   UNK N   1       3.911   1.526  -0.263  0.00  0.00     0.197 HD
BRANCH  22  24
HETATM   24  O   UNK N   1       5.726   2.369  -0.021  0.00  0.00    -0.287 OA
HETATM   25  H   UNK N   1       6.679   2.198   0.029  0.00  0.00     0.244 HD
ENDBRANCH  22  24
ENDBRANCH  19  20
ENDBRANCH   3  18
TORSDOF 6
