MODEL 1
REMARK VINA RESULT:      -7.8      0.000      0.000
REMARK  6 active torsions:
REMARK  status: ('A' for Active; 'I' for Inactive)
REMARK    1  A    between atoms: C_5  and  N_7 
REMARK    2  A    between atoms: N_7  and  S_8 
REMARK    3  A    between atoms: S_8  and  C_9 
REMARK    4  A    between atoms: C_11  and  C_17 
REMARK    5  A    between atoms: C_18  and  C_19 
REMARK       I    between atoms: C_19  and  N_21 
REMARK    6  A    between atoms: N_21  and  O_22 
ROOT
HETATM    1  C   UNK N   1      30.015  17.353   7.909  0.00  0.00     0.080 A 
HETATM    2  C   UNK N   1      31.323  17.774   8.144  0.00  0.00     0.036 A 
HETATM    3  C   UNK N   1      32.388  17.295   7.385  0.00  0.00    -0.035 A 
HETATM    4  C   UNK N   1      32.129  16.368   6.367  0.00  0.00     0.011 A 
HETATM    5  C   UNK N   1      30.816  15.931   6.125  0.00  0.00     0.002 A 
HETATM    6  C   UNK N   1      29.754  16.429   6.893  0.00  0.00     0.025 A 
ENDROOT
BRANCH   1   7
HETATM    7  S   UNK N   1      28.721  18.088   8.897  0.00  0.00     0.263 S 
HETATM    8  O   UNK N   1      27.827  17.012   9.531  0.00  0.00    -0.200 OA
HETATM    9  O   UNK N   1      29.339  18.738  10.145  0.00  0.00    -0.200 OA
BRANCH   7  10
HETATM   10  N   UNK N   1      27.610  19.308   8.286  0.00  0.00    -0.281 N 
HETATM   11  H   UNK N   1      27.091  19.850   8.923  0.00  0.00     0.179 HD
BRANCH  10  12
HETATM   12  C   UNK N   1      27.449  19.528   6.890  0.00  0.00     0.042 A 
HETATM   13  C   UNK N   1      27.439  20.834   6.388  0.00  0.00     0.030 A 
HETATM   14  C   UNK N   1      27.260  21.060   5.017  0.00  0.00     0.002 A 
HETATM   15  C   UNK N   1      27.095  19.981   4.142  0.00  0.00     0.000 A 
HETATM   16  C   UNK N   1      27.109  18.676   4.636  0.00  0.00     0.002 A 
HETATM   17  C   UNK N   1      27.282  18.451   6.002  0.00  0.00     0.030 A 
ENDBRANCH  10  12
ENDBRANCH   7  10
ENDBRANCH   1   7
BRANCH   3  18
HETATM   18  C   UNK N   1      33.723  17.844   7.716  0.00  0.00     0.017 C 
HETATM   19  C   UNK N   1      34.591  17.644   8.727  0.00  0.00     0.077 C 
BRANCH  19  20
HETATM   20  C   UNK N   1      34.527  16.791   9.930  0.00  0.00     0.264 C 
HETATM   21  O   UNK N   1      35.300  17.026  10.847  0.00  0.00    -0.266 OA
HETATM   22  N   UNK N   1      33.640  15.783  10.049  0.00  0.00    -0.234 N 
HETATM   23  H   UNK N   1      33.016  15.595   9.311  0.00  0.00     0.197 HD
BRANCH  22  24
HETATM   24  O   UNK N   1      33.597  15.033  11.158  0.00  0.00    -0.287 OA
HETATM   25  H   UNK N   1      34.249  15.170  11.862  0.00  0.00     0.244 HD
ENDBRANCH  22  24
ENDBRANCH  19  20
ENDBRANCH   3  18
TORSDOF 6
ENDMDL
MODEL 2
REMARK VINA RESULT:      -7.6      6.264     10.794
REMARK  6 active torsions:
REMARK  status: ('A' for Active; 'I' for Inactive)
REMARK    1  A    between atoms: C_5  and  N_7 
REMARK    2  A    between atoms: N_7  and  S_8 
REMARK    3  A    between atoms: S_8  and  C_9 
REMARK    4  A    between atoms: C_11  and  C_17 
REMARK    5  A    between atoms: C_18  and  C_19 
REMARK       I    between atoms: C_19  and  N_21 
REMARK    6  A    between atoms: N_21  and  O_22 
ROOT
HETATM    1  C   UNK N   1      36.436  13.345  12.431  0.00  0.00     0.080 A 
HETATM    2  C   UNK N   1      35.392  14.010  11.792  0.00  0.00     0.036 A 
HETATM    3  C   UNK N   1      35.304  14.056  10.402  0.00  0.00    -0.035 A 
HETATM    4  C   UNK N   1      36.292  13.419   9.641  0.00  0.00     0.011 A 
HETATM    5  C   UNK N   1      37.354  12.752  10.274  0.00  0.00     0.002 A 
HETATM    6  C   UNK N   1      37.424  12.708  11.674  0.00  0.00     0.025 A 
ENDROOT
BRANCH   1   7
HETATM    7  S   UNK N   1      36.408  13.290  14.217  0.00  0.00     0.263 S 
HETATM    8  O   UNK N   1      37.545  12.414  14.763  0.00  0.00    -0.200 OA
HETATM    9  O   UNK N   1      36.797  14.667  14.776  0.00  0.00    -0.200 OA
BRANCH   7  10
HETATM   10  N   UNK N   1      34.987  12.836  15.150  0.00  0.00    -0.281 N 
HETATM   11  H   UNK N   1      34.108  12.810  14.709  0.00  0.00     0.179 HD
BRANCH  10  12
HETATM   12  C   UNK N   1      35.084  12.503  16.530  0.00  0.00     0.042 A 
HETATM   13  C   UNK N   1      35.077  13.518  17.493  0.00  0.00     0.030 A 
HETATM   14  C   UNK N   1      35.193  13.199  18.852  0.00  0.00     0.002 A 
HETATM   15  C   UNK N   1      35.314  11.865  19.254  0.00  0.00     0.000 A 
HETATM   16  C   UNK N   1      35.317  10.848  18.299  0.00  0.00     0.002 A 
HETATM   17  C   UNK N   1      35.206  11.165  16.945  0.00  0.00     0.030 A 
ENDBRANCH  10  12
ENDBRANCH   7  10
ENDBRANCH   1   7
BRANCH   3  18
HETATM   18  C   UNK N   1      34.130  14.768   9.847  0.00  0.00     0.017 C 
HETATM   19  C   UNK N   1      33.904  16.039   9.462  0.00  0.00     0.077 C 
BRANCH  19  20
HETATM   20  C   UNK N   1      34.762  17.240   9.467  0.00  0.00     0.264 C 
HETATM   21  O   UNK N   1      35.643  17.318  10.311  0.00  0.00    -0.266 OA
HETATM   22  N   UNK N   1      34.612  18.234   8.568  0.00  0.00    -0.234 N 
HETATM   23  H   UNK N   1      33.904  18.170   7.887  0.00  0.00     0.197 HD
BRANCH  22  24
HETATM   24  O   UNK N   1      35.414  19.306   8.590  0.00  0.00    -0.287 OA
HETATM   25  H   UNK N   1      35.154  20.098   9.085  0.00  0.00     0.244 HD
ENDBRANCH  22  24
ENDBRANCH  19  20
ENDBRANCH   3  18
TORSDOF 6
ENDMDL
MODEL 3
REMARK VINA RESULT:      -7.5      3.274      4.939
REMARK  6 active torsions:
REMARK  status: ('A' for Active; 'I' for Inactive)
REMARK    1  A    between atoms: C_5  and  N_7 
REMARK    2  A    between atoms: N_7  and  S_8 
REMARK    3  A    between atoms: S_8  and  C_9 
REMARK    4  A    between atoms: C_11  and  C_17 
REMARK    5  A    between atoms: C_18  and  C_19 
REMARK       I    between atoms: C_19  and  N_21 
REMARK    6  A    between atoms: N_21  and  O_22 
ROOT
HETATM    1  C   UNK N   1      29.256  17.533   6.117  0.00  0.00     0.080 A 
HETATM    2  C   UNK N   1      30.411  16.816   6.421  0.00  0.00     0.036 A 
HETATM    3  C   UNK N   1      30.985  16.869   7.690  0.00  0.00    -0.035 A 
HETATM    4  C   UNK N   1      30.382  17.665   8.671  0.00  0.00     0.011 A 
HETATM    5  C   UNK N   1      29.221  18.399   8.374  0.00  0.00     0.002 A 
HETATM    6  C   UNK N   1      28.651  18.328   7.095  0.00  0.00     0.025 A 
ENDROOT
BRANCH   1   7
HETATM    7  S   UNK N   1      28.568  17.333   4.480  0.00  0.00     0.263 S 
HETATM    8  O   UNK N   1      27.544  16.189   4.444  0.00  0.00    -0.200 OA
HETATM    9  O   UNK N   1      27.680  18.541   4.147  0.00  0.00    -0.200 OA
BRANCH   7  10
HETATM   10  N   UNK N   1      29.551  17.115   3.036  0.00  0.00    -0.281 N 
HETATM   11  H   UNK N   1      29.250  17.505   2.184  0.00  0.00     0.179 HD
BRANCH  10  12
HETATM   12  C   UNK N   1      30.774  16.389   3.077  0.00  0.00     0.042 A 
HETATM   13  C   UNK N   1      30.751  14.992   3.152  0.00  0.00     0.030 A 
HETATM   14  C   UNK N   1      31.951  14.271   3.214  0.00  0.00     0.002 A 
HETATM   15  C   UNK N   1      33.177  14.943   3.196  0.00  0.00     0.000 A 
HETATM   16  C   UNK N   1      33.207  16.337   3.116  0.00  0.00     0.002 A 
HETATM   17  C   UNK N   1      32.012  17.055   3.059  0.00  0.00     0.030 A 
ENDBRANCH  10  12
ENDBRANCH   7  10
ENDBRANCH   1   7
BRANCH   3  18
HETATM   18  C   UNK N   1      32.193  16.037   7.893  0.00  0.00     0.017 C 
HETATM   19  C   UNK N   1      33.515  16.300   7.925  0.00  0.00     0.077 C 
BRANCH  19  20
HETATM   20  C   UNK N   1      34.277  17.551   7.746  0.00  0.00     0.264 C 
HETATM   21  O   UNK N   1      34.448  17.967   6.609  0.00  0.00    -0.266 OA
HETATM   22  N   UNK N   1      34.772  18.247   8.790  0.00  0.00    -0.234 N 
HETATM   23  H   UNK N   1      34.633  17.913   9.706  0.00  0.00     0.197 HD
BRANCH  22  24
HETATM   24  O   UNK N   1      35.450  19.385   8.598  0.00  0.00    -0.287 OA
HETATM   25  H   UNK N   1      35.018  20.143   8.174  0.00  0.00     0.244 HD
ENDBRANCH  22  24
ENDBRANCH  19  20
ENDBRANCH   3  18
TORSDOF 6
ENDMDL
MODEL 4
REMARK VINA RESULT:      -7.4     12.577     14.856
REMARK  6 active torsions:
REMARK  status: ('A' for Active; 'I' for Inactive)
REMARK    1  A    between atoms: C_5  and  N_7 
REMARK    2  A    between atoms: N_7  and  S_8 
REMARK    3  A    between atoms: S_8  and  C_9 
REMARK    4  A    between atoms: C_11  and  C_17 
REMARK    5  A    between atoms: C_18  and  C_19 
REMARK       I    between atoms: C_19  and  N_21 
REMARK    6  A    between atoms: N_21  and  O_22 
ROOT
HETATM    1  C   UNK N   1      28.016  22.724  -6.975  0.00  0.00     0.080 A 
HETATM    2  C   UNK N   1      28.962  23.275  -6.114  0.00  0.00     0.036 A 
HETATM    3  C   UNK N   1      30.094  22.562  -5.726  0.00  0.00    -0.035 A 
HETATM    4  C   UNK N   1      30.274  21.262  -6.215  0.00  0.00     0.011 A 
HETATM    5  C   UNK N   1      29.323  20.692  -7.078  0.00  0.00     0.002 A 
HETATM    6  C   UNK N   1      28.193  21.427  -7.466  0.00  0.00     0.025 A 
ENDROOT
BRANCH   1   7
HETATM    7  S   UNK N   1      26.641  23.757  -7.460  0.00  0.00     0.263 S 
HETATM    8  O   UNK N   1      27.129  25.054  -8.122  0.00  0.00    -0.200 OA
HETATM    9  O   UNK N   1      25.889  23.092  -8.623  0.00  0.00    -0.200 OA
BRANCH   7  10
HETATM   10  N   UNK N   1      25.365  24.255  -6.355  0.00  0.00    -0.281 N 
HETATM   11  H   UNK N   1      24.508  23.771  -6.358  0.00  0.00     0.179 HD
BRANCH  10  12
HETATM   12  C   UNK N   1      25.549  25.342  -5.456  0.00  0.00     0.042 A 
HETATM   13  C   UNK N   1      24.999  26.593  -5.754  0.00  0.00     0.030 A 
HETATM   14  C   UNK N   1      25.193  27.673  -4.883  0.00  0.00     0.002 A 
HETATM   15  C   UNK N   1      25.935  27.505  -3.710  0.00  0.00     0.000 A 
HETATM   16  C   UNK N   1      26.484  26.259  -3.404  0.00  0.00     0.002 A 
HETATM   17  C   UNK N   1      26.294  25.184  -4.273  0.00  0.00     0.030 A 
ENDBRANCH  10  12
ENDBRANCH   7  10
ENDBRANCH   1   7
BRANCH   3  18
HETATM   18  C   UNK N   1      31.037  23.272  -4.832  0.00  0.00     0.017 C 
HETATM   19  C   UNK N   1      31.047  23.548  -3.513  0.00  0.00     0.077 C 
BRANCH  19  20
HETATM   20  C   UNK N   1      30.082  23.254  -2.435  0.00  0.00     0.264 C 
HETATM   21  O   UNK N   1      30.519  22.931  -1.340  0.00  0.00    -0.266 OA
HETATM   22  N   UNK N   1      28.750  23.345  -2.620  0.00  0.00    -0.234 N 
HETATM   23  H   UNK N   1      28.398  23.607  -3.501  0.00  0.00     0.197 HD
BRANCH  22  24
HETATM   24  O   UNK N   1      27.898  23.083  -1.619  0.00  0.00    -0.287 OA
HETATM   25  H   UNK N   1      26.988  23.413  -1.657  0.00  0.00     0.244 HD
ENDBRANCH  22  24
ENDBRANCH  19  20
ENDBRANCH   3  18
TORSDOF 6
ENDMDL
MODEL 5
REMARK VINA RESULT:      -7.3      5.576     10.043
REMARK  6 active torsions:
REMARK  status: ('A' for Active; 'I' for Inactive)
REMARK    1  A    between atoms: C_5  and  N_7 
REMARK    2  A    between atoms: N_7  and  S_8 
REMARK    3  A    between atoms: S_8  and  C_9 
REMARK    4  A    between atoms: C_11  and  C_17 
REMARK    5  A    between atoms: C_18  and  C_19 
REMARK       I    between atoms: C_19  and  N_21 
REMARK    6  A    between atoms: N_21  and  O_22 
ROOT
HETATM    1  C   UNK N   1      36.139  13.487  11.062  0.00  0.00     0.080 A 
HETATM    2  C   UNK N   1      35.037  14.071  10.441  0.00  0.00     0.036 A 
HETATM    3  C   UNK N   1      35.072  14.440   9.098  0.00  0.00    -0.035 A 
HETATM    4  C   UNK N   1      36.246  14.218   8.367  0.00  0.00     0.011 A 
HETATM    5  C   UNK N   1      37.366  13.637   8.984  0.00  0.00     0.002 A 
HETATM    6  C   UNK N   1      37.311  13.264  10.334  0.00  0.00     0.025 A 
ENDROOT
BRANCH   1   7
HETATM    7  S   UNK N   1      35.956  12.989  12.768  0.00  0.00     0.263 S 
HETATM    8  O   UNK N   1      34.613  13.464  13.344  0.00  0.00    -0.200 OA
HETATM    9  O   UNK N   1      35.790  11.463  12.840  0.00  0.00    -0.200 OA
BRANCH   7  10
HETATM   10  N   UNK N   1      37.144  13.348  14.016  0.00  0.00    -0.281 N 
HETATM   11  H   UNK N   1      38.100  13.211  13.826  0.00  0.00     0.179 HD
BRANCH  10  12
HETATM   12  C   UNK N   1      36.750  13.835  15.293  0.00  0.00     0.042 A 
HETATM   13  C   UNK N   1      35.851  13.098  16.072  0.00  0.00     0.030 A 
HETATM   14  C   UNK N   1      35.443  13.581  17.322  0.00  0.00     0.002 A 
HETATM   15  C   UNK N   1      35.935  14.800  17.799  0.00  0.00     0.000 A 
HETATM   16  C   UNK N   1      36.836  15.538  17.030  0.00  0.00     0.002 A 
HETATM   17  C   UNK N   1      37.239  15.059  15.783  0.00  0.00     0.030 A 
ENDBRANCH  10  12
ENDBRANCH   7  10
ENDBRANCH   1   7
BRANCH   3  18
HETATM   18  C   UNK N   1      33.826  15.022   8.550  0.00  0.00     0.017 C 
HETATM   19  C   UNK N   1      33.506  16.221   8.025  0.00  0.00     0.077 C 
BRANCH  19  20
HETATM   20  C   UNK N   1      34.298  17.448   7.809  0.00  0.00     0.264 C 
HETATM   21  O   UNK N   1      34.539  17.788   6.660  0.00  0.00    -0.266 OA
HETATM   22  N   UNK N   1      34.745  18.203   8.834  0.00  0.00    -0.234 N 
HETATM   23  H   UNK N   1      34.549  17.932   9.759  0.00  0.00     0.197 HD
BRANCH  22  24
HETATM   24  O   UNK N   1      35.451  19.319   8.607  0.00  0.00    -0.287 OA
HETATM   25  H   UNK N   1      35.101  20.005   8.019  0.00  0.00     0.244 HD
ENDBRANCH  22  24
ENDBRANCH  19  20
ENDBRANCH   3  18
TORSDOF 6
ENDMDL
MODEL 6
REMARK VINA RESULT:      -7.2     13.394     15.585
REMARK  6 active torsions:
REMARK  status: ('A' for Active; 'I' for Inactive)
REMARK    1  A    between atoms: C_5  and  N_7 
REMARK    2  A    between atoms: N_7  and  S_8 
REMARK    3  A    between atoms: S_8  and  C_9 
REMARK    4  A    between atoms: C_11  and  C_17 
REMARK    5  A    between atoms: C_18  and  C_19 
REMARK       I    between atoms: C_19  and  N_21 
REMARK    6  A    between atoms: N_21  and  O_22 
ROOT
HETATM    1  C   UNK N   1      29.146  22.779  -4.993  0.00  0.00     0.080 A 
HETATM    2  C   UNK N   1      28.364  22.903  -6.139  0.00  0.00     0.036 A 
HETATM    3  C   UNK N   1      28.501  22.023  -7.211  0.00  0.00    -0.035 A 
HETATM    4  C   UNK N   1      29.451  20.998  -7.126  0.00  0.00     0.011 A 
HETATM    5  C   UNK N   1      30.251  20.867  -5.978  0.00  0.00     0.002 A 
HETATM    6  C   UNK N   1      30.094  21.755  -4.905  0.00  0.00     0.025 A 
ENDROOT
BRANCH   1   7
HETATM    7  S   UNK N   1      28.833  23.918  -3.653  0.00  0.00     0.263 S 
HETATM    8  O   UNK N   1      29.529  23.462  -2.362  0.00  0.00    -0.200 OA
HETATM    9  O   UNK N   1      29.557  25.244  -3.931  0.00  0.00    -0.200 OA
BRANCH   7  10
HETATM   10  N   UNK N   1      27.218  24.410  -3.156  0.00  0.00    -0.281 N 
HETATM   11  H   UNK N   1      26.801  23.978  -2.376  0.00  0.00     0.179 HD
BRANCH  10  12
HETATM   12  C   UNK N   1      26.504  25.420  -3.858  0.00  0.00     0.042 A 
HETATM   13  C   UNK N   1      26.391  26.702  -3.309  0.00  0.00     0.030 A 
HETATM   14  C   UNK N   1      25.672  27.697  -3.985  0.00  0.00     0.002 A 
HETATM   15  C   UNK N   1      25.067  27.414  -5.214  0.00  0.00     0.000 A 
HETATM   16  C   UNK N   1      25.179  26.139  -5.770  0.00  0.00     0.002 A 
HETATM   17  C   UNK N   1      25.892  25.147  -5.095  0.00  0.00     0.030 A 
ENDBRANCH  10  12
ENDBRANCH   7  10
ENDBRANCH   1   7
BRANCH   3  18
HETATM   18  C   UNK N   1      27.589  22.245  -8.356  0.00  0.00     0.017 C 
HETATM   19  C   UNK N   1      26.308  21.911  -8.610  0.00  0.00     0.077 C 
BRANCH  19  20
HETATM   20  C   UNK N   1      25.310  21.159  -7.825  0.00  0.00     0.264 C 
HETATM   21  O   UNK N   1      25.363  19.938  -7.839  0.00  0.00    -0.266 OA
HETATM   22  N   UNK N   1      24.362  21.775  -7.089  0.00  0.00    -0.234 N 
HETATM   23  H   UNK N   1      24.321  22.758  -7.075  0.00  0.00     0.197 HD
BRANCH  22  24
HETATM   24  O   UNK N   1      23.477  21.066  -6.377  0.00  0.00    -0.287 OA
HETATM   25  H   UNK N   1      22.595  20.887  -6.738  0.00  0.00     0.244 HD
ENDBRANCH  22  24
ENDBRANCH  19  20
ENDBRANCH   3  18
TORSDOF 6
ENDMDL
MODEL 7
REMARK VINA RESULT:      -7.1      2.769      7.372
REMARK  6 active torsions:
REMARK  status: ('A' for Active; 'I' for Inactive)
REMARK    1  A    between atoms: C_5  and  N_7 
REMARK    2  A    between atoms: N_7  and  S_8 
REMARK    3  A    between atoms: S_8  and  C_9 
REMARK    4  A    between atoms: C_11  and  C_17 
REMARK    5  A    between atoms: C_18  and  C_19 
REMARK       I    between atoms: C_19  and  N_21 
REMARK    6  A    between atoms: N_21  and  O_22 
ROOT
HETATM    1  C   UNK N   1      32.763  17.147   6.019  0.00  0.00     0.080 A 
HETATM    2  C   UNK N   1      31.497  16.609   6.239  0.00  0.00     0.036 A 
HETATM    3  C   UNK N   1      30.559  16.516   5.213  0.00  0.00    -0.035 A 
HETATM    4  C   UNK N   1      30.906  16.979   3.937  0.00  0.00     0.011 A 
HETATM    5  C   UNK N   1      32.177  17.530   3.704  0.00  0.00     0.002 A 
HETATM    6  C   UNK N   1      33.112  17.609   4.746  0.00  0.00     0.025 A 
ENDROOT
BRANCH   1   7
HETATM    7  S   UNK N   1      33.908  17.150   7.390  0.00  0.00     0.263 S 
HETATM    8  O   UNK N   1      35.077  16.185   7.140  0.00  0.00    -0.200 OA
HETATM    9  O   UNK N   1      34.640  18.500   7.442  0.00  0.00    -0.200 OA
BRANCH   7  10
HETATM   10  N   UNK N   1      33.423  16.863   9.058  0.00  0.00    -0.281 N 
HETATM   11  H   UNK N   1      32.592  17.267   9.395  0.00  0.00     0.179 HD
BRANCH  10  12
HETATM   12  C   UNK N   1      34.209  16.057   9.927  0.00  0.00     0.042 A 
HETATM   13  C   UNK N   1      33.878  14.711  10.116  0.00  0.00     0.030 A 
HETATM   14  C   UNK N   1      34.635  13.915  10.987  0.00  0.00     0.002 A 
HETATM   15  C   UNK N   1      35.726  14.462  11.669  0.00  0.00     0.000 A 
HETATM   16  C   UNK N   1      36.065  15.803  11.481  0.00  0.00     0.002 A 
HETATM   17  C   UNK N   1      35.309  16.596  10.617  0.00  0.00     0.030 A 
ENDBRANCH  10  12
ENDBRANCH   7  10
ENDBRANCH   1   7
BRANCH   3  18
HETATM   18  C   UNK N   1      29.262  15.898   5.570  0.00  0.00     0.017 C 
HETATM   19  C   UNK N   1      28.257  16.245   6.398  0.00  0.00     0.077 C 
BRANCH  19  20
HETATM   20  C   UNK N   1      28.076  17.398   7.302  0.00  0.00     0.264 C 
HETATM   21  O   UNK N   1      28.348  18.513   6.880  0.00  0.00    -0.266 OA
HETATM   22  N   UNK N   1      27.610  17.259   8.559  0.00  0.00    -0.234 N 
HETATM   23  H   UNK N   1      27.388  16.362   8.899  0.00  0.00     0.197 HD
BRANCH  22  24
HETATM   24  O   UNK N   1      27.444  18.325   9.353  0.00  0.00    -0.287 OA
HETATM   25  H   UNK N   1      26.665  18.892   9.249  0.00  0.00     0.244 HD
ENDBRANCH  22  24
ENDBRANCH  19  20
ENDBRANCH   3  18
TORSDOF 6
ENDMDL
MODEL 8
REMARK VINA RESULT:      -7.0      6.317     10.411
REMARK  6 active torsions:
REMARK  status: ('A' for Active; 'I' for Inactive)
REMARK    1  A    between atoms: C_5  and  N_7 
REMARK    2  A    between atoms: N_7  and  S_8 
REMARK    3  A    between atoms: S_8  and  C_9 
REMARK    4  A    between atoms: C_11  and  C_17 
REMARK    5  A    between atoms: C_18  and  C_19 
REMARK       I    between atoms: C_19  and  N_21 
REMARK    6  A    between atoms: N_21  and  O_22 
ROOT
HETATM    1  C   UNK N   1      23.277  15.962   3.279  0.00  0.00     0.080 A 
HETATM    2  C   UNK N   1      22.620  17.100   3.742  0.00  0.00     0.036 A 
HETATM    3  C   UNK N   1      21.301  17.372   3.385  0.00  0.00    -0.035 A 
HETATM    4  C   UNK N   1      20.632  16.478   2.539  0.00  0.00     0.011 A 
HETATM    5  C   UNK N   1      21.287  15.332   2.059  0.00  0.00     0.002 A 
HETATM    6  C   UNK N   1      22.612  15.068   2.435  0.00  0.00     0.025 A 
ENDROOT
BRANCH   1   7
HETATM    7  S   UNK N   1      24.943  15.679   3.859  0.00  0.00     0.263 S 
HETATM    8  O   UNK N   1      25.023  15.786   5.390  0.00  0.00    -0.200 OA
HETATM    9  O   UNK N   1      25.315  14.205   3.643  0.00  0.00    -0.200 OA
BRANCH   7  10
HETATM   10  N   UNK N   1      26.342  16.565   3.262  0.00  0.00    -0.281 N 
HETATM   11  H   UNK N   1      26.931  16.143   2.597  0.00  0.00     0.179 HD
BRANCH  10  12
HETATM   12  C   UNK N   1      26.635  17.879   3.721  0.00  0.00     0.042 A 
HETATM   13  C   UNK N   1      25.721  18.915   3.496  0.00  0.00     0.030 A 
HETATM   14  C   UNK N   1      26.013  20.216   3.927  0.00  0.00     0.002 A 
HETATM   15  C   UNK N   1      27.216  20.485   4.586  0.00  0.00     0.000 A 
HETATM   16  C   UNK N   1      28.130  19.456   4.818  0.00  0.00     0.002 A 
HETATM   17  C   UNK N   1      27.842  18.161   4.385  0.00  0.00     0.030 A 
ENDBRANCH  10  12
ENDBRANCH   7  10
ENDBRANCH   1   7
BRANCH   3  18
HETATM   18  C   UNK N   1      20.707  18.597   3.969  0.00  0.00     0.017 C 
HETATM   19  C   UNK N   1      20.578  19.868   3.541  0.00  0.00     0.077 C 
BRANCH  19  20
HETATM   20  C   UNK N   1      21.009  20.542   2.301  0.00  0.00     0.264 C 
HETATM   21  O   UNK N   1      21.907  21.368   2.374  0.00  0.00    -0.266 OA
HETATM   22  N   UNK N   1      20.458  20.262   1.103  0.00  0.00    -0.234 N 
HETATM   23  H   UNK N   1      19.737  19.595   1.043  0.00  0.00     0.197 HD
BRANCH  22  24
HETATM   24  O   UNK N   1      20.878  20.881  -0.008  0.00  0.00    -0.287 OA
HETATM   25  H   UNK N   1      20.315  20.901  -0.797  0.00  0.00     0.244 HD
ENDBRANCH  22  24
ENDBRANCH  19  20
ENDBRANCH   3  18
TORSDOF 6
ENDMDL
MODEL 9
REMARK VINA RESULT:      -7.0      2.800      4.153
REMARK  6 active torsions:
REMARK  status: ('A' for Active; 'I' for Inactive)
REMARK    1  A    between atoms: C_5  and  N_7 
REMARK    2  A    between atoms: N_7  and  S_8 
REMARK    3  A    between atoms: S_8  and  C_9 
REMARK    4  A    between atoms: C_11  and  C_17 
REMARK    5  A    between atoms: C_18  and  C_19 
REMARK       I    between atoms: C_19  and  N_21 
REMARK    6  A    between atoms: N_21  and  O_22 
ROOT
HETATM    1  C   UNK N   1      30.732  16.864   4.659  0.00  0.00     0.080 A 
HETATM    2  C   UNK N   1      30.755  16.523   6.009  0.00  0.00     0.036 A 
HETATM    3  C   UNK N   1      31.874  16.771   6.802  0.00  0.00    -0.035 A 
HETATM    4  C   UNK N   1      32.995  17.374   6.218  0.00  0.00     0.011 A 
HETATM    5  C   UNK N   1      32.986  17.716   4.855  0.00  0.00     0.002 A 
HETATM    6  C   UNK N   1      31.849  17.467   4.074  0.00  0.00     0.025 A 
ENDROOT
BRANCH   1   7
HETATM    7  S   UNK N   1      29.218  16.564   3.759  0.00  0.00     0.263 S 
HETATM    8  O   UNK N   1      29.500  15.890   2.407  0.00  0.00    -0.200 OA
HETATM    9  O   UNK N   1      28.406  15.473   4.474  0.00  0.00    -0.200 OA
BRANCH   7  10
HETATM   10  N   UNK N   1      28.034  17.818   3.409  0.00  0.00    -0.281 N 
HETATM   11  H   UNK N   1      27.565  17.811   2.544  0.00  0.00     0.179 HD
BRANCH  10  12
HETATM   12  C   UNK N   1      27.739  18.840   4.354  0.00  0.00     0.042 A 
HETATM   13  C   UNK N   1      27.096  20.010   3.935  0.00  0.00     0.030 A 
HETATM   14  C   UNK N   1      26.821  21.030   4.855  0.00  0.00     0.002 A 
HETATM   15  C   UNK N   1      27.185  20.882   6.198  0.00  0.00     0.000 A 
HETATM   16  C   UNK N   1      27.822  19.715   6.623  0.00  0.00     0.002 A 
HETATM   17  C   UNK N   1      28.099  18.701   5.706  0.00  0.00     0.030 A 
ENDBRANCH  10  12
ENDBRANCH   7  10
ENDBRANCH   1   7
BRANCH   3  18
HETATM   18  C   UNK N   1      31.760  16.389   8.228  0.00  0.00     0.017 C 
HETATM   19  C   UNK N   1      30.925  16.740   9.226  0.00  0.00     0.077 C 
BRANCH  19  20
HETATM   20  C   UNK N   1      29.789  17.681   9.278  0.00  0.00     0.264 C 
HETATM   21  O   UNK N   1      30.024  18.877   9.184  0.00  0.00    -0.266 OA
HETATM   22  N   UNK N   1      28.514  17.262   9.410  0.00  0.00    -0.234 N 
HETATM   23  H   UNK N   1      28.325  16.299   9.484  0.00  0.00     0.197 HD
BRANCH  22  24
HETATM   24  O   UNK N   1      27.503  18.139   9.443  0.00  0.00    -0.287 OA
HETATM   25  H   UNK N   1      27.143  18.435  10.293  0.00  0.00     0.244 HD
ENDBRANCH  22  24
ENDBRANCH  19  20
ENDBRANCH   3  18
TORSDOF 6
ENDMDL
