MODEL 1
REMARK VINA RESULT:      -5.3      0.000      0.000
REMARK  8 active torsions:
REMARK  status: ('A' for Active; 'I' for Inactive)
REMARK    1  A    between atoms: N_2  and  C_9 
REMARK    2  A    between atoms: N_2  and  C_11 
REMARK    3  A    between atoms: N_2  and  C_12 
REMARK    4  A    between atoms: N_3  and  C_8 
REMARK    5  A    between atoms: N_3  and  C_13 
REMARK    6  A    between atoms: C_6  and  C_7 
REMARK    7  A    between atoms: C_6  and  C_8 
REMARK    8  A    between atoms: C_7  and  C_9 
ROOT
HETATM    1 Cl   UNK N   1      27.095  31.059  -3.059  0.00  0.00    -0.084 Cl
HETATM    2  N   UNK N   1      28.006  28.432  -7.351  0.00  0.00    -0.365 N 
ATOM      3  HN  UNK N   1      28.661  29.173  -7.601  1.00  0.00     0.165 HD
HETATM    4  C   UNK N   1      26.226  26.419  -6.677  0.00  0.00     0.042 A 
HETATM    5  C   UNK N   1      26.404  27.509  -5.816  0.00  0.00     0.017 A 
HETATM    6  C   UNK N   1      26.955  26.350  -7.867  0.00  0.00     0.047 A 
HETATM    7  C   UNK N   1      27.320  28.521  -6.181  0.00  0.00     0.046 A 
HETATM    8  C   UNK N   1      25.720  27.596  -4.597  0.00  0.00     0.018 A 
HETATM    9  C   UNK N   1      27.839  27.377  -8.195  0.00  0.00     0.090 A 
HETATM   10  C   UNK N   1      27.531  29.606  -5.327  0.00  0.00     0.054 A 
HETATM   11  C   UNK N   1      25.936  28.687  -3.750  0.00  0.00     0.025 A 
HETATM   12  C   UNK N   1      26.838  29.690  -4.116  0.00  0.00     0.036 A 
ENDROOT
BRANCH   4  13
HETATM   13  N   UNK N   1      25.401  25.340  -6.304  0.00  0.00    -0.385 N 
HETATM   14  H   UNK N   1      24.425  25.375  -6.423  0.00  0.00     0.160 HD
BRANCH  13  15
HETATM   15  C   UNK N   1      26.046  24.188  -5.745  0.00  0.00     0.077 C 
HETATM   16  C   UNK N   1      25.920  22.932  -6.590  0.00  0.00     0.032 C 
BRANCH  15  17
HETATM   17  C   UNK N   1      25.940  24.122  -4.223  0.00  0.00     0.026 C 
BRANCH  17  18
HETATM   18  C   UNK N   1      27.265  24.005  -3.496  0.00  0.00     0.032 C 
BRANCH  18  19
HETATM   19  C   UNK N   1      28.376  24.865  -4.112  0.00  0.00     0.272 C 
BRANCH  19  20
HETATM   20  N   UNK N   1      29.490  24.048  -4.612  0.00  0.00     0.087 N 
BRANCH  20  21
HETATM   21  C   UNK N   1      29.760  22.958  -3.665  0.00  0.00     0.268 C 
HETATM   22  C   UNK N   1      30.259  21.725  -4.392  0.00  0.00     0.037 C 
ENDBRANCH  20  21
BRANCH  20  23
HETATM   23  C   UNK N   1      30.627  24.960  -4.813  0.00  0.00     0.268 C 
HETATM   24  C   UNK N   1      30.278  26.334  -5.374  0.00  0.00     0.037 C 
ENDBRANCH  20  23
ENDBRANCH  19  20
ENDBRANCH  18  19
ENDBRANCH  17  18
ENDBRANCH  15  17
ENDBRANCH  13  15
ENDBRANCH   4  13
TORSDOF 8
ENDMDL
MODEL 2
REMARK VINA RESULT:      -5.2      1.846      2.968
REMARK  8 active torsions:
REMARK  status: ('A' for Active; 'I' for Inactive)
REMARK    1  A    between atoms: N_2  and  C_9 
REMARK    2  A    between atoms: N_2  and  C_11 
REMARK    3  A    between atoms: N_2  and  C_12 
REMARK    4  A    between atoms: N_3  and  C_8 
REMARK    5  A    between atoms: N_3  and  C_13 
REMARK    6  A    between atoms: C_6  and  C_7 
REMARK    7  A    between atoms: C_6  and  C_8 
REMARK    8  A    between atoms: C_7  and  C_9 
ROOT
HETATM    1 Cl   UNK N   1      30.038  29.838  -8.766  0.00  0.00    -0.084 Cl
HETATM    2  N   UNK N   1      27.041  29.631  -4.629  0.00  0.00    -0.365 N 
ATOM      3  HN  UNK N   1      27.423  30.542  -4.372  1.00  0.00     0.165 HD
HETATM    4  C   UNK N   1      26.000  27.158  -5.317  0.00  0.00     0.042 A 
HETATM    5  C   UNK N   1      26.960  27.763  -6.138  0.00  0.00     0.017 A 
HETATM    6  C   UNK N   1      25.566  27.811  -4.161  0.00  0.00     0.047 A 
HETATM    7  C   UNK N   1      27.473  29.026  -5.766  0.00  0.00     0.046 A 
HETATM    8  C   UNK N   1      27.394  27.159  -7.325  0.00  0.00     0.018 A 
HETATM    9  C   UNK N   1      26.108  29.050  -3.824  0.00  0.00     0.090 A 
HETATM   10  C   UNK N   1      28.415  29.660  -6.581  0.00  0.00     0.054 A 
HETATM   11  C   UNK N   1      28.338  27.799  -8.132  0.00  0.00     0.025 A 
HETATM   12  C   UNK N   1      28.848  29.046  -7.759  0.00  0.00     0.036 A 
ENDROOT
BRANCH   4  13
HETATM   13  N   UNK N   1      25.389  25.950  -5.704  0.00  0.00    -0.385 N 
HETATM   14  H   UNK N   1      24.505  25.936  -6.138  0.00  0.00     0.160 HD
BRANCH  13  15
HETATM   15  C   UNK N   1      26.111  24.739  -5.438  0.00  0.00     0.077 C 
HETATM   16  C   UNK N   1      25.902  23.649  -6.475  0.00  0.00     0.032 C 
BRANCH  15  17
HETATM   17  C   UNK N   1      26.185  24.401  -3.951  0.00  0.00     0.026 C 
BRANCH  17  18
HETATM   18  C   UNK N   1      27.584  24.146  -3.425  0.00  0.00     0.032 C 
BRANCH  18  19
HETATM   19  C   UNK N   1      28.677  24.865  -4.227  0.00  0.00     0.272 C 
BRANCH  19  20
HETATM   20  N   UNK N   1      29.787  23.966  -4.572  0.00  0.00     0.087 N 
BRANCH  20  21
HETATM   21  C   UNK N   1      29.654  23.541  -5.972  0.00  0.00     0.268 C 
HETATM   22  C   UNK N   1      29.309  22.067  -6.056  0.00  0.00     0.037 C 
ENDBRANCH  20  21
BRANCH  20  23
HETATM   23  C   UNK N   1      29.750  22.858  -3.605  0.00  0.00     0.268 C 
HETATM   24  C   UNK N   1      30.972  22.731  -2.702  0.00  0.00     0.037 C 
ENDBRANCH  20  23
ENDBRANCH  19  20
ENDBRANCH  18  19
ENDBRANCH  17  18
ENDBRANCH  15  17
ENDBRANCH  13  15
ENDBRANCH   4  13
TORSDOF 8
ENDMDL
MODEL 3
REMARK VINA RESULT:      -5.0     17.942     21.438
REMARK  8 active torsions:
REMARK  status: ('A' for Active; 'I' for Inactive)
REMARK    1  A    between atoms: N_2  and  C_9 
REMARK    2  A    between atoms: N_2  and  C_11 
REMARK    3  A    between atoms: N_2  and  C_12 
REMARK    4  A    between atoms: N_3  and  C_8 
REMARK    5  A    between atoms: N_3  and  C_13 
REMARK    6  A    between atoms: C_6  and  C_7 
REMARK    7  A    between atoms: C_6  and  C_8 
REMARK    8  A    between atoms: C_7  and  C_9 
ROOT
HETATM    1 Cl   UNK N   1      32.982  17.566   5.020  0.00  0.00    -0.084 Cl
HETATM    2  N   UNK N   1      34.689  17.354   9.836  0.00  0.00    -0.365 N 
ATOM      3  HN  UNK N   1      34.288  18.283   9.962  1.00  0.00     0.165 HD
HETATM    4  C   UNK N   1      35.781  14.831   9.500  0.00  0.00     0.042 A 
HETATM    5  C   UNK N   1      35.139  15.461   8.427  0.00  0.00     0.017 A 
HETATM    6  C   UNK N   1      35.858  15.476  10.737  0.00  0.00     0.047 A 
HETATM    7  C   UNK N   1      34.587  16.746   8.625  0.00  0.00     0.046 A 
HETATM    8  C   UNK N   1      35.008  14.832   7.182  0.00  0.00     0.018 A 
HETATM    9  C   UNK N   1      35.312  16.750  10.885  0.00  0.00     0.090 A 
HETATM   10  C   UNK N   1      33.922  17.385   7.575  0.00  0.00     0.054 A 
HETATM   11  C   UNK N   1      34.343  15.480   6.138  0.00  0.00     0.025 A 
HETATM   12  C   UNK N   1      33.803  16.754   6.334  0.00  0.00     0.036 A 
ENDROOT
BRANCH   4  13
HETATM   13  N   UNK N   1      36.254  13.510   9.375  0.00  0.00    -0.385 N 
HETATM   14  H   UNK N   1      35.641  12.759   9.204  0.00  0.00     0.160 HD
BRANCH  13  15
HETATM   15  C   UNK N   1      37.667  13.308   9.506  0.00  0.00     0.077 C 
HETATM   16  C   UNK N   1      38.366  12.936   8.209  0.00  0.00     0.032 C 
BRANCH  15  17
HETATM   17  C   UNK N   1      38.058  12.642  10.823  0.00  0.00     0.026 C 
BRANCH  17  18
HETATM   18  C   UNK N   1      36.904  12.033  11.595  0.00  0.00     0.032 C 
BRANCH  18  19
HETATM   19  C   UNK N   1      36.775  12.571  13.026  0.00  0.00     0.272 C 
BRANCH  19  20
HETATM   20  N   UNK N   1      35.371  12.752  13.421  0.00  0.00     0.087 N 
BRANCH  20  21
HETATM   21  C   UNK N   1      35.309  13.137  14.837  0.00  0.00     0.268 C 
HETATM   22  C   UNK N   1      36.638  13.702  15.300  0.00  0.00     0.037 C 
ENDBRANCH  20  21
BRANCH  20  23
HETATM   23  C   UNK N   1      34.679  11.491  13.113  0.00  0.00     0.268 C 
HETATM   24  C   UNK N   1      33.903  10.866  14.267  0.00  0.00     0.037 C 
ENDBRANCH  20  23
ENDBRANCH  19  20
ENDBRANCH  18  19
ENDBRANCH  17  18
ENDBRANCH  15  17
ENDBRANCH  13  15
ENDBRANCH   4  13
TORSDOF 8
ENDMDL
MODEL 4
REMARK VINA RESULT:      -5.0     15.303     17.463
REMARK  8 active torsions:
REMARK  status: ('A' for Active; 'I' for Inactive)
REMARK    1  A    between atoms: N_2  and  C_9 
REMARK    2  A    between atoms: N_2  and  C_11 
REMARK    3  A    between atoms: N_2  and  C_12 
REMARK    4  A    between atoms: N_3  and  C_8 
REMARK    5  A    between atoms: N_3  and  C_13 
REMARK    6  A    between atoms: C_6  and  C_7 
REMARK    7  A    between atoms: C_6  and  C_8 
REMARK    8  A    between atoms: C_7  and  C_9 
ROOT
HETATM    1 Cl   UNK N   1      20.926  20.147   1.707  0.00  0.00    -0.084 Cl
HETATM    2  N   UNK N   1      19.415  15.522   3.283  0.00  0.00    -0.365 N 
ATOM      3  HN  UNK N   1      19.085  15.365   2.331  1.00  0.00     0.165 HD
HETATM    4  C   UNK N   1      20.308  15.943   5.871  0.00  0.00     0.042 A 
HETATM    5  C   UNK N   1      20.451  16.953   4.911  0.00  0.00     0.017 A 
HETATM    6  C   UNK N   1      19.723  14.726   5.514  0.00  0.00     0.047 A 
HETATM    7  C   UNK N   1      19.991  16.712   3.597  0.00  0.00     0.046 A 
HETATM    8  C   UNK N   1      21.066  18.173   5.220  0.00  0.00     0.018 A 
HETATM    9  C   UNK N   1      19.270  14.535   4.209  0.00  0.00     0.090 A 
HETATM   10  C   UNK N   1      20.144  17.696   2.617  0.00  0.00     0.054 A 
HETATM   11  C   UNK N   1      21.213  19.152   4.233  0.00  0.00     0.025 A 
HETATM   12  C   UNK N   1      20.751  18.913   2.935  0.00  0.00     0.036 A 
ENDROOT
BRANCH   4  13
HETATM   13  N   UNK N   1      20.845  16.104   7.163  0.00  0.00    -0.385 N 
HETATM   14  H   UNK N   1      21.817  16.140   7.314  0.00  0.00     0.160 HD
BRANCH  13  15
HETATM   15  C   UNK N   1      19.914  16.212   8.248  0.00  0.00     0.077 C 
HETATM   16  C   UNK N   1      19.680  17.634   8.729  0.00  0.00     0.032 C 
BRANCH  15  17
HETATM   17  C   UNK N   1      20.014  15.057   9.241  0.00  0.00     0.026 C 
BRANCH  17  18
HETATM   18  C   UNK N   1      21.401  14.462   9.387  0.00  0.00     0.032 C 
BRANCH  18  19
HETATM   19  C   UNK N   1      21.395  13.035   9.950  0.00  0.00     0.272 C 
BRANCH  19  20
HETATM   20  N   UNK N   1      22.484  12.220   9.392  0.00  0.00     0.087 N 
BRANCH  20  21
HETATM   21  C   UNK N   1      23.771  12.876   9.660  0.00  0.00     0.268 C 
HETATM   22  C   UNK N   1      24.500  12.185  10.796  0.00  0.00     0.037 C 
ENDBRANCH  20  21
BRANCH  20  23
HETATM   23  C   UNK N   1      22.190  12.042   7.962  0.00  0.00     0.268 C 
HETATM   24  C   UNK N   1      23.364  12.263   7.015  0.00  0.00     0.037 C 
ENDBRANCH  20  23
ENDBRANCH  19  20
ENDBRANCH  18  19
ENDBRANCH  17  18
ENDBRANCH  15  17
ENDBRANCH  13  15
ENDBRANCH   4  13
TORSDOF 8
ENDMDL
MODEL 5
REMARK VINA RESULT:      -5.0     12.824     15.384
REMARK  8 active torsions:
REMARK  status: ('A' for Active; 'I' for Inactive)
REMARK    1  A    between atoms: N_2  and  C_9 
REMARK    2  A    between atoms: N_2  and  C_11 
REMARK    3  A    between atoms: N_2  and  C_12 
REMARK    4  A    between atoms: N_3  and  C_8 
REMARK    5  A    between atoms: N_3  and  C_13 
REMARK    6  A    between atoms: C_6  and  C_7 
REMARK    7  A    between atoms: C_6  and  C_8 
REMARK    8  A    between atoms: C_7  and  C_9 
ROOT
HETATM    1 Cl   UNK N   1      26.605  20.536   3.543  0.00  0.00    -0.084 Cl
HETATM    2  N   UNK N   1      27.522  19.027   8.342  0.00  0.00    -0.365 N 
ATOM      3  HN  UNK N   1      26.744  19.625   8.622  1.00  0.00     0.165 HD
HETATM    4  C   UNK N   1      29.636  17.403   7.590  0.00  0.00     0.042 A 
HETATM    5  C   UNK N   1      28.946  18.143   6.621  0.00  0.00     0.017 A 
HETATM    6  C   UNK N   1      29.247  17.483   8.929  0.00  0.00     0.047 A 
HETATM    7  C   UNK N   1      27.869  18.961   7.030  0.00  0.00     0.046 A 
HETATM    8  C   UNK N   1      29.281  18.061   5.263  0.00  0.00     0.018 A 
HETATM    9  C   UNK N   1      28.188  18.314   9.291  0.00  0.00     0.090 A 
HETATM   10  C   UNK N   1      27.152  19.690   6.078  0.00  0.00     0.054 A 
HETATM   11  C   UNK N   1      28.559  18.796   4.319  0.00  0.00     0.025 A 
HETATM   12  C   UNK N   1      27.497  19.609   4.727  0.00  0.00     0.036 A 
ENDROOT
BRANCH   4  13
HETATM   13  N   UNK N   1      30.647  16.499   7.213  0.00  0.00    -0.385 N 
HETATM   14  H   UNK N   1      30.537  15.897   6.441  0.00  0.00     0.160 HD
BRANCH  13  15
HETATM   15  C   UNK N   1      31.845  16.492   8.001  0.00  0.00     0.077 C 
HETATM   16  C   UNK N   1      32.638  17.787   7.939  0.00  0.00     0.032 C 
BRANCH  15  17
HETATM   17  C   UNK N   1      32.554  15.140   8.003  0.00  0.00     0.026 C 
BRANCH  17  18
HETATM   18  C   UNK N   1      32.275  14.273   6.791  0.00  0.00     0.032 C 
BRANCH  18  19
HETATM   19  C   UNK N   1      33.349  14.384   5.702  0.00  0.00     0.272 C 
BRANCH  19  20
HETATM   20  N   UNK N   1      32.863  15.115   4.523  0.00  0.00     0.087 N 
BRANCH  20  21
HETATM   21  C   UNK N   1      33.230  14.378   3.306  0.00  0.00     0.268 C 
HETATM   22  C   UNK N   1      34.632  13.813   3.422  0.00  0.00     0.037 C 
ENDBRANCH  20  21
BRANCH  20  23
HETATM   23  C   UNK N   1      33.437  16.468   4.598  0.00  0.00     0.268 C 
HETATM   24  C   UNK N   1      32.639  17.561   3.896  0.00  0.00     0.037 C 
ENDBRANCH  20  23
ENDBRANCH  19  20
ENDBRANCH  18  19
ENDBRANCH  17  18
ENDBRANCH  15  17
ENDBRANCH  13  15
ENDBRANCH   4  13
TORSDOF 8
ENDMDL
MODEL 6
REMARK VINA RESULT:      -5.0     15.974     18.695
REMARK  8 active torsions:
REMARK  status: ('A' for Active; 'I' for Inactive)
REMARK    1  A    between atoms: N_2  and  C_9 
REMARK    2  A    between atoms: N_2  and  C_11 
REMARK    3  A    between atoms: N_2  and  C_12 
REMARK    4  A    between atoms: N_3  and  C_8 
REMARK    5  A    between atoms: N_3  and  C_13 
REMARK    6  A    between atoms: C_6  and  C_7 
REMARK    7  A    between atoms: C_6  and  C_8 
REMARK    8  A    between atoms: C_7  and  C_9 
ROOT
HETATM    1 Cl   UNK N   1      23.043  11.751  12.962  0.00  0.00    -0.084 Cl
HETATM    2  N   UNK N   1      24.616  13.390   8.381  0.00  0.00    -0.365 N 
ATOM      3  HN  UNK N   1      25.569  13.263   8.722  1.00  0.00     0.165 HD
HETATM    4  C   UNK N   1      22.032  13.741   7.448  0.00  0.00     0.042 A 
HETATM    5  C   UNK N   1      22.245  13.285   8.755  0.00  0.00     0.017 A 
HETATM    6  C   UNK N   1      23.124  14.007   6.620  0.00  0.00     0.047 A 
HETATM    7  C   UNK N   1      23.573  13.111   9.205  0.00  0.00     0.046 A 
HETATM    8  C   UNK N   1      21.176  12.970   9.603  0.00  0.00     0.018 A 
HETATM    9  C   UNK N   1      24.419  13.836   7.109  0.00  0.00     0.090 A 
HETATM   10  C   UNK N   1      23.810  12.635  10.497  0.00  0.00     0.054 A 
HETATM   11  C   UNK N   1      21.423  12.497  10.895  0.00  0.00     0.025 A 
HETATM   12  C   UNK N   1      22.738  12.331  11.340  0.00  0.00     0.036 A 
ENDROOT
BRANCH   4  13
HETATM   13  N   UNK N   1      20.727  13.829   6.926  0.00  0.00    -0.385 N 
HETATM   14  H   UNK N   1      20.169  13.028   6.797  0.00  0.00     0.160 HD
BRANCH  13  15
HETATM   15  C   UNK N   1      20.245  15.138   6.591  0.00  0.00     0.077 C 
HETATM   16  C   UNK N   1      19.999  16.037   7.790  0.00  0.00     0.032 C 
BRANCH  15  17
HETATM   17  C   UNK N   1      19.285  15.136   5.403  0.00  0.00     0.026 C 
BRANCH  17  18
HETATM   18  C   UNK N   1      19.433  16.317   4.464  0.00  0.00     0.032 C 
BRANCH  18  19
HETATM   19  C   UNK N   1      20.885  16.784   4.296  0.00  0.00     0.272 C 
BRANCH  19  20
HETATM   20  N   UNK N   1      21.138  17.316   2.949  0.00  0.00     0.087 N 
BRANCH  20  21
HETATM   21  C   UNK N   1      20.409  18.580   2.778  0.00  0.00     0.268 C 
HETATM   22  C   UNK N   1      20.929  19.634   3.737  0.00  0.00     0.037 C 
ENDBRANCH  20  21
BRANCH  20  23
HETATM   23  C   UNK N   1      20.744  16.265   1.998  0.00  0.00     0.268 C 
HETATM   24  C   UNK N   1      20.055  16.751   0.728  0.00  0.00     0.037 C 
ENDBRANCH  20  23
ENDBRANCH  19  20
ENDBRANCH  18  19
ENDBRANCH  17  18
ENDBRANCH  15  17
ENDBRANCH  13  15
ENDBRANCH   4  13
TORSDOF 8
ENDMDL
MODEL 7
REMARK VINA RESULT:      -4.9      1.286      2.240
REMARK  8 active torsions:
REMARK  status: ('A' for Active; 'I' for Inactive)
REMARK    1  A    between atoms: N_2  and  C_9 
REMARK    2  A    between atoms: N_2  and  C_11 
REMARK    3  A    between atoms: N_2  and  C_12 
REMARK    4  A    between atoms: N_3  and  C_8 
REMARK    5  A    between atoms: N_3  and  C_13 
REMARK    6  A    between atoms: C_6  and  C_7 
REMARK    7  A    between atoms: C_6  and  C_8 
REMARK    8  A    between atoms: C_7  and  C_9 
ROOT
HETATM    1 Cl   UNK N   1      26.322  29.609  -3.321  0.00  0.00    -0.084 Cl
HETATM    2  N   UNK N   1      28.333  28.232  -7.816  0.00  0.00    -0.365 N 
ATOM      3  HN  UNK N   1      29.017  28.976  -7.677  1.00  0.00     0.165 HD
HETATM    4  C   UNK N   1      26.477  26.213  -8.202  0.00  0.00     0.042 A 
HETATM    5  C   UNK N   1      26.412  27.009  -7.051  0.00  0.00     0.017 A 
HETATM    6  C   UNK N   1      27.484  26.437  -9.143  0.00  0.00     0.047 A 
HETATM    7  C   UNK N   1      27.372  28.030  -6.877  0.00  0.00     0.046 A 
HETATM    8  C   UNK N   1      25.440  26.792  -6.066  0.00  0.00     0.018 A 
HETATM    9  C   UNK N   1      28.403  27.465  -8.939  0.00  0.00     0.090 A 
HETATM   10  C   UNK N   1      27.342  28.822  -5.726  0.00  0.00     0.054 A 
HETATM   11  C   UNK N   1      25.416  27.590  -4.919  0.00  0.00     0.025 A 
HETATM   12  C   UNK N   1      26.364  28.604  -4.751  0.00  0.00     0.036 A 
ENDROOT
BRANCH   4  13
HETATM   13  N   UNK N   1      25.604  25.120  -8.365  0.00  0.00    -0.385 N 
HETATM   14  H   UNK N   1      24.643  25.251  -8.538  0.00  0.00     0.160 HD
BRANCH  13  15
HETATM   15  C   UNK N   1      26.174  23.808  -8.268  0.00  0.00     0.077 C 
HETATM   16  C   UNK N   1      26.308  23.087  -9.599  0.00  0.00     0.032 C 
BRANCH  15  17
HETATM   17  C   UNK N   1      25.740  23.057  -7.011  0.00  0.00     0.026 C 
BRANCH  17  18
HETATM   18  C   UNK N   1      26.394  23.532  -5.729  0.00  0.00     0.032 C 
BRANCH  18  19
HETATM   19  C   UNK N   1      27.925  23.592  -5.811  0.00  0.00     0.272 C 
BRANCH  19  20
HETATM   20  N   UNK N   1      28.548  23.561  -4.480  0.00  0.00     0.087 N 
BRANCH  20  21
HETATM   21  C   UNK N   1      28.436  24.888  -3.858  0.00  0.00     0.268 C 
HETATM   22  C   UNK N   1      29.323  25.891  -4.569  0.00  0.00     0.037 C 
ENDBRANCH  20  21
BRANCH  20  23
HETATM   23  C   UNK N   1      29.933  23.106  -4.672  0.00  0.00     0.268 C 
HETATM   24  C   UNK N   1      30.287  21.777  -4.014  0.00  0.00     0.037 C 
ENDBRANCH  20  23
ENDBRANCH  19  20
ENDBRANCH  18  19
ENDBRANCH  17  18
ENDBRANCH  15  17
ENDBRANCH  13  15
ENDBRANCH   4  13
TORSDOF 8
ENDMDL
MODEL 8
REMARK VINA RESULT:      -4.8      3.179      5.839
REMARK  8 active torsions:
REMARK  status: ('A' for Active; 'I' for Inactive)
REMARK    1  A    between atoms: N_2  and  C_9 
REMARK    2  A    between atoms: N_2  and  C_11 
REMARK    3  A    between atoms: N_2  and  C_12 
REMARK    4  A    between atoms: N_3  and  C_8 
REMARK    5  A    between atoms: N_3  and  C_13 
REMARK    6  A    between atoms: C_6  and  C_7 
REMARK    7  A    between atoms: C_6  and  C_8 
REMARK    8  A    between atoms: C_7  and  C_9 
ROOT
HETATM    1 Cl   UNK N   1      31.122  20.663  -5.995  0.00  0.00    -0.084 Cl
HETATM    2  N   UNK N   1      26.855  21.488  -8.690  0.00  0.00    -0.365 N 
ATOM      3  HN  UNK N   1      27.133  20.696  -9.270  1.00  0.00     0.165 HD
HETATM    4  C   UNK N   1      26.097  23.641  -7.121  0.00  0.00     0.042 A 
HETATM    5  C   UNK N   1      27.292  22.964  -6.845  0.00  0.00     0.017 A 
HETATM    6  C   UNK N   1      25.291  23.220  -8.180  0.00  0.00     0.047 A 
HETATM    7  C   UNK N   1      27.655  21.867  -7.658  0.00  0.00     0.046 A 
HETATM    8  C   UNK N   1      28.110  23.332  -5.769  0.00  0.00     0.018 A 
HETATM    9  C   UNK N   1      25.693  22.141  -8.967  0.00  0.00     0.090 A 
HETATM   10  C   UNK N   1      28.830  21.162  -7.388  0.00  0.00     0.054 A 
HETATM   11  C   UNK N   1      29.285  22.622  -5.508  0.00  0.00     0.025 A 
HETATM   12  C   UNK N   1      29.644  21.541  -6.318  0.00  0.00     0.036 A 
ENDROOT
BRANCH   4  13
HETATM   13  N   UNK N   1      25.649  24.673  -6.274  0.00  0.00    -0.385 N 
HETATM   14  H   UNK N   1      25.391  24.496  -5.340  0.00  0.00     0.160 HD
BRANCH  13  15
HETATM   15  C   UNK N   1      25.585  25.993  -6.831  0.00  0.00     0.077 C 
HETATM   16  C   UNK N   1      26.807  26.386  -7.644  0.00  0.00     0.032 C 
BRANCH  15  17
HETATM   17  C   UNK N   1      24.901  26.999  -5.908  0.00  0.00     0.026 C 
BRANCH  17  18
HETATM   18  C   UNK N   1      25.546  27.154  -4.545  0.00  0.00     0.032 C 
BRANCH  18  19
HETATM   19  C   UNK N   1      26.229  28.513  -4.345  0.00  0.00     0.272 C 
BRANCH  19  20
HETATM   20  N   UNK N   1      27.620  28.367  -3.891  0.00  0.00     0.087 N 
BRANCH  20  21
HETATM   21  C   UNK N   1      28.468  29.336  -4.598  0.00  0.00     0.268 C 
HETATM   22  C   UNK N   1      28.031  29.479  -6.043  0.00  0.00     0.037 C 
ENDBRANCH  20  21
BRANCH  20  23
HETATM   23  C   UNK N   1      27.996  26.963  -4.122  0.00  0.00     0.268 C 
HETATM   24  C   UNK N   1      29.486  26.657  -4.033  0.00  0.00     0.037 C 
ENDBRANCH  20  23
ENDBRANCH  19  20
ENDBRANCH  18  19
ENDBRANCH  17  18
ENDBRANCH  15  17
ENDBRANCH  13  15
ENDBRANCH   4  13
TORSDOF 8
ENDMDL
MODEL 9
REMARK VINA RESULT:      -4.8     20.678     24.020
REMARK  8 active torsions:
REMARK  status: ('A' for Active; 'I' for Inactive)
REMARK    1  A    between atoms: N_2  and  C_9 
REMARK    2  A    between atoms: N_2  and  C_11 
REMARK    3  A    between atoms: N_2  and  C_12 
REMARK    4  A    between atoms: N_3  and  C_8 
REMARK    5  A    between atoms: N_3  and  C_13 
REMARK    6  A    between atoms: C_6  and  C_7 
REMARK    7  A    between atoms: C_6  and  C_8 
REMARK    8  A    between atoms: C_7  and  C_9 
ROOT
HETATM    1 Cl   UNK N   1      37.541  15.801  15.988  0.00  0.00    -0.084 Cl
HETATM    2  N   UNK N   1      34.817  11.473  15.938  0.00  0.00    -0.365 N 
ATOM      3  HN  UNK N   1      34.927  11.456  16.952  1.00  0.00     0.165 HD
HETATM    4  C   UNK N   1      34.517  11.514  13.185  0.00  0.00     0.042 A 
HETATM    5  C   UNK N   1      35.246  12.526  13.821  0.00  0.00     0.017 A 
HETATM    6  C   UNK N   1      33.939  10.494  13.944  0.00  0.00     0.047 A 
HETATM    7  C   UNK N   1      35.381  12.485  15.227  0.00  0.00     0.046 A 
HETATM    8  C   UNK N   1      35.809  13.586  13.099  0.00  0.00     0.018 A 
HETATM    9  C   UNK N   1      34.109  10.484  15.328  0.00  0.00     0.090 A 
HETATM   10  C   UNK N   1      36.084  13.497  15.886  0.00  0.00     0.054 A 
HETATM   11  C   UNK N   1      36.512  14.592  13.767  0.00  0.00     0.025 A 
HETATM   12  C   UNK N   1      36.650  14.546  15.158  0.00  0.00     0.036 A 
ENDROOT
BRANCH   4  13
HETATM   13  N   UNK N   1      34.271  11.573  11.799  0.00  0.00    -0.385 N 
HETATM   14  H   UNK N   1      33.656  12.238  11.415  0.00  0.00     0.160 HD
BRANCH  13  15
HETATM   15  C   UNK N   1      34.958  10.622  10.974  0.00  0.00     0.077 C 
HETATM   16  C   UNK N   1      36.347  10.255  11.469  0.00  0.00     0.032 C 
BRANCH  15  17
HETATM   17  C   UNK N   1      34.684  10.815   9.484  0.00  0.00     0.026 C 
BRANCH  17  18
HETATM   18  C   UNK N   1      34.093  12.161   9.114  0.00  0.00     0.032 C 
BRANCH  18  19
HETATM   19  C   UNK N   1      35.105  13.113   8.463  0.00  0.00     0.272 C 
BRANCH  19  20
HETATM   20  N   UNK N   1      35.910  13.828   9.463  0.00  0.00     0.087 N 
BRANCH  20  21
HETATM   21  C   UNK N   1      35.558  15.254   9.444  0.00  0.00     0.268 C 
HETATM   22  C   UNK N   1      34.375  15.527  10.352  0.00  0.00     0.037 C 
ENDBRANCH  20  21
BRANCH  20  23
HETATM   23  C   UNK N   1      37.320  13.556   9.144  0.00  0.00     0.268 C 
HETATM   24  C   UNK N   1      38.219  13.250  10.337  0.00  0.00     0.037 C 
ENDBRANCH  20  23
ENDBRANCH  19  20
ENDBRANCH  18  19
ENDBRANCH  17  18
ENDBRANCH  15  17
ENDBRANCH  13  15
ENDBRANCH   4  13
TORSDOF 8
ENDMDL
