MODEL 1
REMARK VINA RESULT:      -7.8      0.000      0.000
REMARK  3 active torsions:
REMARK  status: ('A' for Active; 'I' for Inactive)
REMARK    1  A    between atoms: C_21  and  C_23 
REMARK    2  A    between atoms: C_23  and  C_25 
REMARK    3  A    between atoms: C_25  and  O_26 
ROOT
HETATM    1  C   UNK N   1      35.617  13.726   8.732  0.00  0.00     0.078 C 
HETATM    2  C   UNK N   1      34.451  14.675   8.951  0.00  0.00     0.159 C 
HETATM    3  O   UNK N   1      34.912  16.021   8.857  0.00  0.00    -0.347 OA
HETATM    4  C   UNK N   1      34.034  16.648   7.965  0.00  0.00     0.168 C 
HETATM    5  C   UNK N   1      32.764  17.554   8.111  0.00  0.00     0.041 C 
HETATM    6  C   UNK N   1      31.598  16.664   7.625  0.00  0.00     0.006 C 
HETATM    7  C   UNK N   1      30.134  17.188   7.451  0.00  0.00     0.020 C 
HETATM    8  C   UNK N   1      29.913  18.588   8.057  0.00  0.00     0.049 C 
HETATM    9  C   UNK N   1      28.430  18.985   8.076  0.00  0.00     0.201 C 
HETATM   10  C   UNK N   1      27.821  18.750   6.720  0.00  0.00    -0.029 A 
HETATM   11  C   UNK N   1      27.213  19.773   6.101  0.00  0.00     0.061 A 
HETATM   12  C   UNK N   1      26.637  19.605   4.759  0.00  0.00     0.172 A 
HETATM   13  O   UNK N   1      26.069  20.536   4.215  0.00  0.00    -0.289 OA
HETATM   14  C   UNK N   1      26.751  18.310   4.077  0.00  0.00     0.052 A 
HETATM   15  C   UNK N   1      27.367  17.282   4.672  0.00  0.00    -0.007 A 
HETATM   16  C   UNK N   1      27.984  17.368   6.064  0.00  0.00     0.023 A 
HETATM   17  C   UNK N   1      29.535  17.053   6.007  0.00  0.00     0.072 C 
HETATM   18  C   UNK N   1      29.927  15.642   5.381  0.00  0.00     0.108 C 
HETATM   19  C   UNK N   1      31.262  14.979   5.851  0.00  0.00     0.035 C 
HETATM   20  C   UNK N   1      32.248  15.983   6.433  0.00  0.00     0.003 C 
HETATM   21  C   UNK N   1      33.582  15.481   7.067  0.00  0.00     0.160 C 
HETATM   22  O   UNK N   1      33.438  14.432   7.983  0.00  0.00    -0.334 OA
HETATM   23  C   UNK N   1      32.652  16.959   5.314  0.00  0.00     0.019 C 
HETATM   24 Cl   UNK N   1      28.689  14.356   5.312  0.00  0.00    -0.123 Cl
HETATM   25 Cl   UNK N   1      30.222  18.344   4.936  0.00  0.00    -0.116 Cl
HETATM   26  F   UNK N   1      27.759  18.257   9.042  0.00  0.00    -0.245 F 
HETATM   27  C   UNK N   1      33.884  14.439  10.337  0.00  0.00     0.078 C 
HETATM   28  C   UNK N   1      27.212  16.377   6.935  0.00  0.00     0.027 C 
ENDROOT
BRANCH  21  29
HETATM   29  C   UNK N   1      34.606  15.055   6.012  0.00  0.00     0.188 C 
HETATM   30  O   UNK N   1      35.641  15.687   5.867  0.00  0.00    -0.292 OA
BRANCH  29  31
HETATM   31  C   UNK N   1      34.353  13.867   5.135  0.00  0.00     0.245 C 
BRANCH  31  32
HETATM   32  O   UNK N   1      34.017  12.757   5.912  0.00  0.00    -0.393 OA
HETATM   33  H   UNK N   1      34.117  12.217   6.711  0.00  0.00     0.209 HD
ENDBRANCH  31  32
ENDBRANCH  29  31
ENDBRANCH  21  29
TORSDOF 3
ENDMDL
MODEL 2
REMARK VINA RESULT:      -7.6      2.245      7.395
REMARK  3 active torsions:
REMARK  status: ('A' for Active; 'I' for Inactive)
REMARK    1  A    between atoms: C_21  and  C_23 
REMARK    2  A    between atoms: C_23  and  C_25 
REMARK    3  A    between atoms: C_25  and  O_26 
ROOT
HETATM    1  C   UNK N   1      25.258  18.949   3.306  0.00  0.00     0.078 C 
HETATM    2  C   UNK N   1      26.367  18.939   4.344  0.00  0.00     0.159 C 
HETATM    3  O   UNK N   1      25.927  18.229   5.500  0.00  0.00    -0.347 OA
HETATM    4  C   UNK N   1      26.946  17.309   5.775  0.00  0.00     0.168 C 
HETATM    5  C   UNK N   1      28.170  17.268   6.752  0.00  0.00     0.041 C 
HETATM    6  C   UNK N   1      29.403  17.381   5.829  0.00  0.00     0.006 C 
HETATM    7  C   UNK N   1      30.875  17.240   6.342  0.00  0.00     0.020 C 
HETATM    8  C   UNK N   1      30.985  17.244   7.880  0.00  0.00     0.049 C 
HETATM    9  C   UNK N   1      32.441  17.331   8.356  0.00  0.00     0.201 C 
HETATM   10  C   UNK N   1      33.277  16.305   7.638  0.00  0.00    -0.029 A 
HETATM   11  C   UNK N   1      33.982  15.425   8.364  0.00  0.00     0.061 A 
HETATM   12  C   UNK N   1      34.782  14.380   7.710  0.00  0.00     0.172 A 
HETATM   13  O   UNK N   1      35.434  13.599   8.381  0.00  0.00    -0.289 OA
HETATM   14  C   UNK N   1      34.790  14.282   6.246  0.00  0.00     0.052 A 
HETATM   15  C   UNK N   1      34.082  15.142   5.504  0.00  0.00    -0.007 A 
HETATM   16  C   UNK N   1      33.233  16.259   6.102  0.00  0.00     0.023 A 
HETATM   17  C   UNK N   1      31.715  16.093   5.679  0.00  0.00     0.072 C 
HETATM   18  C   UNK N   1      31.440  16.049   4.111  0.00  0.00     0.108 C 
HETATM   19  C   UNK N   1      30.044  16.534   3.599  0.00  0.00     0.035 C 
HETATM   20  C   UNK N   1      28.971  16.488   4.678  0.00  0.00     0.003 C 
HETATM   21  C   UNK N   1      27.548  17.053   4.380  0.00  0.00     0.160 C 
HETATM   22  O   UNK N   1      27.533  18.330   3.805  0.00  0.00    -0.334 OA
HETATM   23  C   UNK N   1      28.766  15.018   5.086  0.00  0.00     0.019 C 
HETATM   24 Cl   UNK N   1      32.673  16.711   3.000  0.00  0.00    -0.123 Cl
HETATM   25 Cl   UNK N   1      31.223  14.493   6.373  0.00  0.00    -0.116 Cl
HETATM   26  F   UNK N   1      32.936  18.604   8.132  0.00  0.00    -0.245 F 
HETATM   27  C   UNK N   1      26.685  20.371   4.732  0.00  0.00     0.078 C 
HETATM   28  C   UNK N   1      33.843  17.570   5.606  0.00  0.00     0.027 C 
ENDROOT
BRANCH  21  29
HETATM   29  C   UNK N   1      26.723  16.120   3.490  0.00  0.00     0.188 C 
HETATM   30  O   UNK N   1      26.984  16.013   2.302  0.00  0.00    -0.292 OA
BRANCH  29  31
HETATM   31  C   UNK N   1      25.581  15.334   4.056  0.00  0.00     0.245 C 
BRANCH  31  32
HETATM   32  O   UNK N   1      24.460  15.451   3.233  0.00  0.00    -0.393 OA
HETATM   33  H   UNK N   1      23.953  15.196   2.447  0.00  0.00     0.209 HD
ENDBRANCH  31  32
ENDBRANCH  29  31
ENDBRANCH  21  29
TORSDOF 3
ENDMDL
MODEL 3
REMARK VINA RESULT:      -7.3      3.070      5.157
REMARK  3 active torsions:
REMARK  status: ('A' for Active; 'I' for Inactive)
REMARK    1  A    between atoms: C_21  and  C_23 
REMARK    2  A    between atoms: C_23  and  C_25 
REMARK    3  A    between atoms: C_25  and  O_26 
ROOT
HETATM    1  C   UNK N   1      38.317  13.092  10.131  0.00  0.00     0.078 C 
HETATM    2  C   UNK N   1      37.684  13.280   8.763  0.00  0.00     0.159 C 
HETATM    3  O   UNK N   1      37.081  12.056   8.347  0.00  0.00    -0.347 OA
HETATM    4  C   UNK N   1      35.782  12.403   7.955  0.00  0.00     0.168 C 
HETATM    5  C   UNK N   1      35.081  12.706   6.587  0.00  0.00     0.041 C 
HETATM    6  C   UNK N   1      34.777  14.220   6.638  0.00  0.00     0.006 C 
HETATM    7  C   UNK N   1      33.943  14.965   5.543  0.00  0.00     0.020 C 
HETATM    8  C   UNK N   1      33.685  14.107   4.288  0.00  0.00     0.049 C 
HETATM    9  C   UNK N   1      33.067  14.924   3.145  0.00  0.00     0.201 C 
HETATM   10  C   UNK N   1      31.891  15.713   3.657  0.00  0.00    -0.029 A 
HETATM   11  C   UNK N   1      30.702  15.560   3.058  0.00  0.00     0.061 A 
HETATM   12  C   UNK N   1      29.515  16.278   3.545  0.00  0.00     0.172 A 
HETATM   13  O   UNK N   1      28.444  16.146   2.980  0.00  0.00    -0.289 OA
HETATM   14  C   UNK N   1      29.628  17.154   4.718  0.00  0.00     0.052 A 
HETATM   15  C   UNK N   1      30.804  17.308   5.339  0.00  0.00    -0.007 A 
HETATM   16  C   UNK N   1      32.083  16.608   4.893  0.00  0.00     0.023 A 
HETATM   17  C   UNK N   1      32.650  15.692   6.054  0.00  0.00     0.072 C 
HETATM   18  C   UNK N   1      32.948  16.434   7.432  0.00  0.00     0.108 C 
HETATM   19  C   UNK N   1      34.054  15.836   8.361  0.00  0.00     0.035 C 
HETATM   20  C   UNK N   1      34.328  14.364   8.082  0.00  0.00     0.003 C 
HETATM   21  C   UNK N   1      35.488  13.637   8.829  0.00  0.00     0.160 C 
HETATM   22  O   UNK N   1      36.712  14.317   8.815  0.00  0.00    -0.334 OA
HETATM   23  C   UNK N   1      33.050  13.571   8.410  0.00  0.00     0.019 C 
HETATM   24 Cl   UNK N   1      33.159  18.208   7.427  0.00  0.00    -0.123 Cl
HETATM   25 Cl   UNK N   1      31.341  14.474   6.353  0.00  0.00    -0.116 Cl
HETATM   26  F   UNK N   1      34.018  15.769   2.599  0.00  0.00    -0.245 F 
HETATM   27  C   UNK N   1      38.768  13.662   7.772  0.00  0.00     0.078 C 
HETATM   28  C   UNK N   1      33.056  17.714   4.487  0.00  0.00     0.027 C 
ENDROOT
BRANCH  21  29
HETATM   29  C   UNK N   1      35.137  13.318  10.285  0.00  0.00     0.188 C 
HETATM   30  O   UNK N   1      34.895  12.169  10.622  0.00  0.00    -0.292 OA
BRANCH  29  31
HETATM   31  C   UNK N   1      35.072  14.405  11.312  0.00  0.00     0.245 C 
BRANCH  31  32
HETATM   32  O   UNK N   1      33.745  14.754  11.563  0.00  0.00    -0.393 OA
HETATM   33  H   UNK N   1      32.835  14.519  11.804  0.00  0.00     0.209 HD
ENDBRANCH  31  32
ENDBRANCH  29  31
ENDBRANCH  21  29
TORSDOF 3
ENDMDL
MODEL 4
REMARK VINA RESULT:      -7.3     12.303     15.711
REMARK  3 active torsions:
REMARK  status: ('A' for Active; 'I' for Inactive)
REMARK    1  A    between atoms: C_21  and  C_23 
REMARK    2  A    between atoms: C_23  and  C_25 
REMARK    3  A    between atoms: C_25  and  O_26 
ROOT
HETATM    1  C   UNK N   1      25.891  27.687  -5.609  0.00  0.00     0.078 C 
HETATM    2  C   UNK N   1      27.368  27.334  -5.674  0.00  0.00     0.159 C 
HETATM    3  O   UNK N   1      27.981  27.634  -4.423  0.00  0.00    -0.347 OA
HETATM    4  C   UNK N   1      28.684  26.475  -4.072  0.00  0.00     0.168 C 
HETATM    5  C   UNK N   1      30.172  26.001  -4.192  0.00  0.00     0.041 C 
HETATM    6  C   UNK N   1      30.134  24.880  -5.255  0.00  0.00     0.006 C 
HETATM    7  C   UNK N   1      31.373  23.995  -5.614  0.00  0.00     0.020 C 
HETATM    8  C   UNK N   1      32.690  24.519  -5.006  0.00  0.00     0.049 C 
HETATM    9  C   UNK N   1      33.917  23.773  -5.551  0.00  0.00     0.201 C 
HETATM   10  C   UNK N   1      33.694  22.287  -5.460  0.00  0.00    -0.029 A 
HETATM   11  C   UNK N   1      34.590  21.541  -4.798  0.00  0.00     0.061 A 
HETATM   12  C   UNK N   1      34.397  20.091  -4.648  0.00  0.00     0.172 A 
HETATM   13  O   UNK N   1      35.229  19.420  -4.062  0.00  0.00    -0.289 OA
HETATM   14  C   UNK N   1      33.198  19.456  -5.207  0.00  0.00     0.052 A 
HETATM   15  C   UNK N   1      32.285  20.188  -5.858  0.00  0.00    -0.007 A 
HETATM   16  C   UNK N   1      32.411  21.693  -6.065  0.00  0.00     0.023 A 
HETATM   17  C   UNK N   1      31.185  22.451  -5.409  0.00  0.00     0.072 C 
HETATM   18  C   UNK N   1      29.746  22.002  -5.921  0.00  0.00     0.108 C 
HETATM   19  C   UNK N   1      28.588  23.051  -5.861  0.00  0.00     0.035 C 
HETATM   20  C   UNK N   1      28.852  24.167  -4.859  0.00  0.00     0.003 C 
HETATM   21  C   UNK N   1      27.862  25.367  -4.757  0.00  0.00     0.160 C 
HETATM   22  O   UNK N   1      27.524  25.955  -5.983  0.00  0.00    -0.334 OA
HETATM   23  C   UNK N   1      28.906  23.542  -3.454  0.00  0.00     0.019 C 
HETATM   24 Cl   UNK N   1      29.614  21.153  -7.488  0.00  0.00    -0.123 Cl
HETATM   25 Cl   UNK N   1      31.295  22.050  -3.645  0.00  0.00    -0.116 Cl
HETATM   26  F   UNK N   1      34.155  24.149  -6.861  0.00  0.00    -0.245 F 
HETATM   27  C   UNK N   1      28.021  28.166  -6.761  0.00  0.00     0.078 C 
HETATM   28  C   UNK N   1      32.498  21.910  -7.576  0.00  0.00     0.027 C 
ENDROOT
BRANCH  21  29
HETATM   29  C   UNK N   1      26.565  24.995  -4.034  0.00  0.00     0.188 C 
HETATM   30  O   UNK N   1      26.313  25.471  -2.937  0.00  0.00    -0.292 OA
BRANCH  29  31
HETATM   31  C   UNK N   1      25.593  24.036  -4.649  0.00  0.00     0.245 C 
BRANCH  31  32
HETATM   32  O   UNK N   1      25.188  24.498  -5.902  0.00  0.00    -0.393 OA
HETATM   33  H   UNK N   1      24.583  24.479  -6.660  0.00  0.00     0.209 HD
ENDBRANCH  31  32
ENDBRANCH  29  31
ENDBRANCH  21  29
TORSDOF 3
ENDMDL
MODEL 5
REMARK VINA RESULT:      -7.3     13.172     15.087
REMARK  3 active torsions:
REMARK  status: ('A' for Active; 'I' for Inactive)
REMARK    1  A    between atoms: C_21  and  C_23 
REMARK    2  A    between atoms: C_23  and  C_25 
REMARK    3  A    between atoms: C_25  and  O_26 
ROOT
HETATM    1  C   UNK N   1      32.163  19.816  -7.136  0.00  0.00     0.078 C 
HETATM    2  C   UNK N   1      30.923  20.510  -6.594  0.00  0.00     0.159 C 
HETATM    3  O   UNK N   1      30.962  20.501  -5.169  0.00  0.00    -0.347 OA
HETATM    4  C   UNK N   1      30.721  21.827  -4.788  0.00  0.00     0.168 C 
HETATM    5  C   UNK N   1      29.464  22.634  -4.315  0.00  0.00     0.041 C 
HETATM    6  C   UNK N   1      29.158  23.593  -5.486  0.00  0.00     0.006 C 
HETATM    7  C   UNK N   1      28.064  24.710  -5.419  0.00  0.00     0.020 C 
HETATM    8  C   UNK N   1      27.149  24.589  -4.183  0.00  0.00     0.049 C 
HETATM    9  C   UNK N   1      25.953  25.549  -4.252  0.00  0.00     0.201 C 
HETATM   10  C   UNK N   1      26.429  26.937  -4.586  0.00  0.00    -0.029 A 
HETATM   11  C   UNK N   1      26.107  27.945  -3.762  0.00  0.00     0.061 A 
HETATM   12  C   UNK N   1      26.581  29.311  -4.024  0.00  0.00     0.172 A 
HETATM   13  O   UNK N   1      26.265  30.222  -3.279  0.00  0.00    -0.289 OA
HETATM   14  C   UNK N   1      27.438  29.572  -5.187  0.00  0.00     0.052 A 
HETATM   15  C   UNK N   1      27.783  28.577  -6.012  0.00  0.00    -0.007 A 
HETATM   16  C   UNK N   1      27.328  27.134  -5.819  0.00  0.00     0.023 A 
HETATM   17  C   UNK N   1      28.577  26.174  -5.650  0.00  0.00     0.072 C 
HETATM   18  C   UNK N   1      29.631  26.203  -6.843  0.00  0.00     0.108 C 
HETATM   19  C   UNK N   1      30.482  24.916  -7.098  0.00  0.00     0.035 C 
HETATM   20  C   UNK N   1      30.566  24.010  -5.877  0.00  0.00     0.003 C 
HETATM   21  C   UNK N   1      31.269  22.623  -5.988  0.00  0.00     0.160 C 
HETATM   22  O   UNK N   1      30.862  21.845  -7.079  0.00  0.00    -0.334 OA
HETATM   23  C   UNK N   1      31.309  24.775  -4.767  0.00  0.00     0.019 C 
HETATM   24 Cl   UNK N   1      29.115  26.825  -8.436  0.00  0.00    -0.123 Cl
HETATM   25 Cl   UNK N   1      29.412  26.774  -4.157  0.00  0.00    -0.116 Cl
HETATM   26  F   UNK N   1      25.046  25.106  -5.199  0.00  0.00    -0.245 F 
HETATM   27  C   UNK N   1      29.696  19.752  -7.063  0.00  0.00     0.078 C 
HETATM   28  C   UNK N   1      26.478  26.787  -7.040  0.00  0.00     0.027 C 
ENDROOT
BRANCH  21  29
HETATM   29  C   UNK N   1      32.795  22.743  -6.030  0.00  0.00     0.188 C 
HETATM   30  O   UNK N   1      33.359  23.055  -7.068  0.00  0.00    -0.292 OA
BRANCH  29  31
HETATM   31  C   UNK N   1      33.618  22.469  -4.810  0.00  0.00     0.245 C 
BRANCH  31  32
HETATM   32  O   UNK N   1      34.072  21.150  -4.819  0.00  0.00    -0.393 OA
HETATM   33  H   UNK N   1      34.767  20.489  -4.677  0.00  0.00     0.209 HD
ENDBRANCH  31  32
ENDBRANCH  29  31
ENDBRANCH  21  29
TORSDOF 3
ENDMDL
MODEL 6
REMARK VINA RESULT:      -7.1      3.409      5.935
REMARK  3 active torsions:
REMARK  status: ('A' for Active; 'I' for Inactive)
REMARK    1  A    between atoms: C_21  and  C_23 
REMARK    2  A    between atoms: C_23  and  C_25 
REMARK    3  A    between atoms: C_25  and  O_26 
ROOT
HETATM    1  C   UNK N   1      40.068  11.648   8.699  0.00  0.00     0.078 C 
HETATM    2  C   UNK N   1      39.083  12.390   7.810  0.00  0.00     0.159 C 
HETATM    3  O   UNK N   1      38.242  11.449   7.146  0.00  0.00    -0.347 OA
HETATM    4  C   UNK N   1      36.937  11.903   7.369  0.00  0.00     0.168 C 
HETATM    5  C   UNK N   1      35.901  12.747   6.551  0.00  0.00     0.041 C 
HETATM    6  C   UNK N   1      35.808  14.087   7.313  0.00  0.00     0.006 C 
HETATM    7  C   UNK N   1      34.782  15.211   6.952  0.00  0.00     0.020 C 
HETATM    8  C   UNK N   1      34.060  14.966   5.610  0.00  0.00     0.049 C 
HETATM    9  C   UNK N   1      33.232  16.180   5.168  0.00  0.00     0.201 C 
HETATM   10  C   UNK N   1      32.365  16.650   6.306  0.00  0.00    -0.029 A 
HETATM   11  C   UNK N   1      31.042  16.743   6.112  0.00  0.00     0.061 A 
HETATM   12  C   UNK N   1      30.149  17.159   7.204  0.00  0.00     0.172 A 
HETATM   13  O   UNK N   1      28.950  17.260   7.010  0.00  0.00    -0.289 OA
HETATM   14  C   UNK N   1      30.710  17.453   8.528  0.00  0.00     0.052 A 
HETATM   15  C   UNK N   1      32.027  17.351   8.745  0.00  0.00    -0.007 A 
HETATM   16  C   UNK N   1      33.022  16.935   7.668  0.00  0.00     0.023 A 
HETATM   17  C   UNK N   1      33.796  15.623   8.101  0.00  0.00     0.072 C 
HETATM   18  C   UNK N   1      34.577  15.712   9.486  0.00  0.00     0.108 C 
HETATM   19  C   UNK N   1      35.830  14.797   9.679  0.00  0.00     0.035 C 
HETATM   20  C   UNK N   1      35.831  13.591   8.749  0.00  0.00     0.003 C 
HETATM   21  C   UNK N   1      37.066  12.639   8.716  0.00  0.00     0.160 C 
HETATM   22  O   UNK N   1      38.302  13.285   8.592  0.00  0.00    -0.334 OA
HETATM   23  C   UNK N   1      34.624  12.708   9.112  0.00  0.00     0.019 C 
HETATM   24 Cl   UNK N   1      34.987  17.322  10.143  0.00  0.00    -0.123 Cl
HETATM   25 Cl   UNK N   1      32.500  14.368   8.275  0.00  0.00    -0.116 Cl
HETATM   26  F   UNK N   1      34.071  17.196   4.745  0.00  0.00    -0.245 F 
HETATM   27  C   UNK N   1      39.860  13.180   6.774  0.00  0.00     0.078 C 
HETATM   28  C   UNK N   1      33.954  18.129   7.463  0.00  0.00     0.027 C 
ENDROOT
BRANCH  21  29
HETATM   29  C   UNK N   1      37.129  11.721   9.941  0.00  0.00     0.188 C 
HETATM   30  O   UNK N   1      36.970  10.517   9.816  0.00  0.00    -0.292 OA
BRANCH  29  31
HETATM   31  C   UNK N   1      37.372  12.284  11.307  0.00  0.00     0.245 C 
BRANCH  31  32
HETATM   32  O   UNK N   1      38.462  13.155  11.283  0.00  0.00    -0.393 OA
HETATM   33  H   UNK N   1      39.228  13.571  11.709  0.00  0.00     0.209 HD
ENDBRANCH  31  32
ENDBRANCH  29  31
ENDBRANCH  21  29
TORSDOF 3
ENDMDL
MODEL 7
REMARK VINA RESULT:      -7.1     12.882     16.777
REMARK  3 active torsions:
REMARK  status: ('A' for Active; 'I' for Inactive)
REMARK    1  A    between atoms: C_21  and  C_23 
REMARK    2  A    between atoms: C_23  and  C_25 
REMARK    3  A    between atoms: C_25  and  O_26 
ROOT
HETATM    1  C   UNK N   1      25.015  24.625 -11.062  0.00  0.00     0.078 C 
HETATM    2  C   UNK N   1      25.561  24.769  -9.651  0.00  0.00     0.159 C 
HETATM    3  O   UNK N   1      24.824  23.925  -8.769  0.00  0.00    -0.347 OA
HETATM    4  C   UNK N   1      25.791  23.202  -8.060  0.00  0.00     0.168 C 
HETATM    5  C   UNK N   1      26.470  23.342  -6.655  0.00  0.00     0.041 C 
HETATM    6  C   UNK N   1      27.929  23.739  -6.971  0.00  0.00     0.006 C 
HETATM    7  C   UNK N   1      29.044  23.853  -5.878  0.00  0.00     0.020 C 
HETATM    8  C   UNK N   1      28.492  23.792  -4.439  0.00  0.00     0.049 C 
HETATM    9  C   UNK N   1      29.563  24.130  -3.393  0.00  0.00     0.201 C 
HETATM   10  C   UNK N   1      30.807  23.324  -3.657  0.00  0.00    -0.029 A 
HETATM   11  C   UNK N   1      31.298  22.555  -2.673  0.00  0.00     0.061 A 
HETATM   12  C   UNK N   1      32.487  21.720  -2.893  0.00  0.00     0.172 A 
HETATM   13  O   UNK N   1      32.935  21.042  -1.985  0.00  0.00    -0.289 OA
HETATM   14  C   UNK N   1      33.131  21.707  -4.212  0.00  0.00     0.052 A 
HETATM   15  C   UNK N   1      32.647  22.456  -5.211  0.00  0.00    -0.007 A 
HETATM   16  C   UNK N   1      31.425  23.355  -5.065  0.00  0.00     0.023 A 
HETATM   17  C   UNK N   1      30.292  22.927  -6.086  0.00  0.00     0.072 C 
HETATM   18  C   UNK N   1      30.718  22.918  -7.620  0.00  0.00     0.108 C 
HETATM   19  C   UNK N   1      29.603  23.155  -8.691  0.00  0.00     0.035 C 
HETATM   20  C   UNK N   1      28.207  22.846  -8.168  0.00  0.00     0.003 C 
HETATM   21  C   UNK N   1      26.962  23.144  -9.058  0.00  0.00     0.160 C 
HETATM   22  O   UNK N   1      26.941  24.424  -9.626  0.00  0.00    -0.334 OA
HETATM   23  C   UNK N   1      28.143  21.343  -7.840  0.00  0.00     0.019 C 
HETATM   24 Cl   UNK N   1      32.149  23.864  -8.124  0.00  0.00    -0.123 Cl
HETATM   25 Cl   UNK N   1      29.878  21.226  -5.617  0.00  0.00    -0.116 Cl
HETATM   26  F   UNK N   1      29.846  25.484  -3.426  0.00  0.00    -0.245 F 
HETATM   27  C   UNK N   1      25.399  26.211  -9.210  0.00  0.00     0.078 C 
HETATM   28  C   UNK N   1      31.917  24.784  -5.295  0.00  0.00     0.027 C 
ENDROOT
BRANCH  21  29
HETATM   29  C   UNK N   1      26.791  22.121 -10.185  0.00  0.00     0.188 C 
HETATM   30  O   UNK N   1      27.504  22.170 -11.175  0.00  0.00    -0.292 OA
BRANCH  29  31
HETATM   31  C   UNK N   1      25.742  21.056 -10.097  0.00  0.00     0.245 C 
BRANCH  31  32
HETATM   32  O   UNK N   1      25.106  20.903 -11.330  0.00  0.00    -0.393 OA
HETATM   33  H   UNK N   1      24.339  20.647 -11.864  0.00  0.00     0.209 HD
ENDBRANCH  31  32
ENDBRANCH  29  31
ENDBRANCH  21  29
TORSDOF 3
ENDMDL
MODEL 8
REMARK VINA RESULT:      -6.9      7.888     11.216
REMARK  3 active torsions:
REMARK  status: ('A' for Active; 'I' for Inactive)
REMARK    1  A    between atoms: C_21  and  C_23 
REMARK    2  A    between atoms: C_23  and  C_25 
REMARK    3  A    between atoms: C_25  and  O_26 
ROOT
HETATM    1  C   UNK N   1      21.113  20.638   1.792  0.00  0.00     0.078 C 
HETATM    2  C   UNK N   1      21.887  19.847   2.834  0.00  0.00     0.159 C 
HETATM    3  O   UNK N   1      21.176  19.867   4.069  0.00  0.00    -0.347 OA
HETATM    4  C   UNK N   1      21.104  18.527   4.472  0.00  0.00     0.168 C 
HETATM    5  C   UNK N   1      21.918  17.621   5.457  0.00  0.00     0.041 C 
HETATM    6  C   UNK N   1      22.670  16.633   4.539  0.00  0.00     0.006 C 
HETATM    7  C   UNK N   1      23.511  15.429   5.079  0.00  0.00     0.020 C 
HETATM    8  C   UNK N   1      23.734  15.480   6.604  0.00  0.00     0.049 C 
HETATM    9  C   UNK N   1      24.741  14.423   7.078  0.00  0.00     0.201 C 
HETATM   10  C   UNK N   1      24.376  13.077   6.510  0.00  0.00    -0.029 A 
HETATM   11  C   UNK N   1      24.189  12.051   7.352  0.00  0.00     0.061 A 
HETATM   12  C   UNK N   1      23.794  10.727   6.850  0.00  0.00     0.172 A 
HETATM   13  O   UNK N   1      23.647   9.797   7.623  0.00  0.00    -0.289 OA
HETATM   14  C   UNK N   1      23.578  10.532   5.411  0.00  0.00     0.052 A 
HETATM   15  C   UNK N   1      23.745  11.548   4.556  0.00  0.00    -0.007 A 
HETATM   16  C   UNK N   1      24.161  12.949   4.992  0.00  0.00     0.023 A 
HETATM   17  C   UNK N   1      23.060  14.011   4.581  0.00  0.00     0.072 C 
HETATM   18  C   UNK N   1      22.702  14.064   3.030  0.00  0.00     0.108 C 
HETATM   19  C   UNK N   1      22.177  15.416   2.446  0.00  0.00     0.035 C 
HETATM   20  C   UNK N   1      21.592  16.333   3.512  0.00  0.00     0.003 C 
HETATM   21  C   UNK N   1      21.135  17.774   3.129  0.00  0.00     0.160 C 
HETATM   22  O   UNK N   1      22.070  18.508   2.390  0.00  0.00    -0.334 OA
HETATM   23  C   UNK N   1      20.353  15.640   4.109  0.00  0.00     0.019 C 
HETATM   24 Cl   UNK N   1      23.866  13.392   1.853  0.00  0.00    -0.123 Cl
HETATM   25 Cl   UNK N   1      21.572  13.492   5.476  0.00  0.00    -0.116 Cl
HETATM   26  F   UNK N   1      26.020  14.783   6.692  0.00  0.00    -0.245 F 
HETATM   27  C   UNK N   1      23.244  20.496   3.031  0.00  0.00     0.078 C 
HETATM   28  C   UNK N   1      25.514  13.217   4.334  0.00  0.00     0.027 C 
ENDROOT
BRANCH  21  29
HETATM   29  C   UNK N   1      19.809  17.782   2.363  0.00  0.00     0.188 C 
HETATM   30  O   UNK N   1      18.825  18.328   2.840  0.00  0.00    -0.292 OA
BRANCH  29  31
HETATM   31  C   UNK N   1      19.693  17.114   1.028  0.00  0.00     0.245 C 
BRANCH  31  32
HETATM   32  O   UNK N   1      20.351  17.865   0.053  0.00  0.00    -0.393 OA
HETATM   33  H   UNK N   1      20.454  18.165  -0.863  0.00  0.00     0.209 HD
ENDBRANCH  31  32
ENDBRANCH  29  31
ENDBRANCH  21  29
TORSDOF 3
ENDMDL
MODEL 9
REMARK VINA RESULT:      -6.9      2.930      5.260
REMARK  3 active torsions:
REMARK  status: ('A' for Active; 'I' for Inactive)
REMARK    1  A    between atoms: C_21  and  C_23 
REMARK    2  A    between atoms: C_23  and  C_25 
REMARK    3  A    between atoms: C_25  and  O_26 
ROOT
HETATM    1  C   UNK N   1      39.069  13.073  10.322  0.00  0.00     0.078 C 
HETATM    2  C   UNK N   1      37.949  13.091   9.296  0.00  0.00     0.159 C 
HETATM    3  O   UNK N   1      37.047  12.019   9.560  0.00  0.00    -0.347 OA
HETATM    4  C   UNK N   1      35.775  12.606   9.571  0.00  0.00     0.168 C 
HETATM    5  C   UNK N   1      34.611  12.750   8.532  0.00  0.00     0.041 C 
HETATM    6  C   UNK N   1      34.594  14.254   8.180  0.00  0.00     0.006 C 
HETATM    7  C   UNK N   1      33.498  14.912   7.278  0.00  0.00     0.020 C 
HETATM    8  C   UNK N   1      32.599  13.882   6.565  0.00  0.00     0.049 C 
HETATM    9  C   UNK N   1      31.685  14.536   5.520  0.00  0.00     0.201 C 
HETATM   10  C   UNK N   1      30.978  15.718   6.127  0.00  0.00    -0.029 A 
HETATM   11  C   UNK N   1      29.638  15.760   6.085  0.00  0.00     0.061 A 
HETATM   12  C   UNK N   1      28.901  16.873   6.698  0.00  0.00     0.172 A 
HETATM   13  O   UNK N   1      27.684  16.910   6.635  0.00  0.00    -0.289 OA
HETATM   14  C   UNK N   1      29.637  17.941   7.385  0.00  0.00     0.052 A 
HETATM   15  C   UNK N   1      30.973  17.910   7.450  0.00  0.00    -0.007 A 
HETATM   16  C   UNK N   1      31.815  16.797   6.835  0.00  0.00     0.023 A 
HETATM   17  C   UNK N   1      32.677  16.070   7.947  0.00  0.00     0.072 C 
HETATM   18  C   UNK N   1      33.645  17.011   8.791  0.00  0.00     0.108 C 
HETATM   19  C   UNK N   1      34.936  16.374   9.401  0.00  0.00     0.035 C 
HETATM   20  C   UNK N   1      34.835  14.862   9.551  0.00  0.00     0.003 C 
HETATM   21  C   UNK N   1      36.076  14.046  10.026  0.00  0.00     0.160 C 
HETATM   22  O   UNK N   1      37.265  14.337   9.346  0.00  0.00    -0.334 OA
HETATM   23  C   UNK N   1      33.715  14.557  10.563  0.00  0.00     0.019 C 
HETATM   24 Cl   UNK N   1      34.103  18.602   8.118  0.00  0.00    -0.123 Cl
HETATM   25 Cl   UNK N   1      31.451  15.372   9.087  0.00  0.00    -0.116 Cl
HETATM   26  F   UNK N   1      32.428  14.926   4.420  0.00  0.00    -0.245 F 
HETATM   27  C   UNK N   1      38.549  12.906   7.915  0.00  0.00     0.078 C 
HETATM   28  C   UNK N   1      32.677  17.458   5.760  0.00  0.00     0.027 C 
ENDROOT
BRANCH  21  29
HETATM   29  C   UNK N   1      36.337  14.199  11.527  0.00  0.00     0.188 C 
HETATM   30  O   UNK N   1      36.757  15.256  11.974  0.00  0.00    -0.292 OA
BRANCH  29  31
HETATM   31  C   UNK N   1      36.094  13.059  12.467  0.00  0.00     0.245 C 
BRANCH  31  32
HETATM   32  O   UNK N   1      37.187  12.894  13.319  0.00  0.00    -0.393 OA
HETATM   33  H   UNK N   1      38.086  13.122  13.601  0.00  0.00     0.209 HD
ENDBRANCH  31  32
ENDBRANCH  29  31
ENDBRANCH  21  29
TORSDOF 3
ENDMDL
