MODEL 1
REMARK VINA RESULT:      -9.1      0.000      0.000
REMARK  8 active torsions:
REMARK  status: ('A' for Active; 'I' for Inactive)
REMARK    1  A    between atoms: C_3  and  O_16 
REMARK    2  A    between atoms: C_9  and  O_12 
REMARK    3  A    between atoms: C_10  and  O_14 
REMARK    4  A    between atoms: O_16  and  C_17 
REMARK    5  A    between atoms: C_20  and  N_23 
REMARK       I    between atoms: N_23  and  C_24 
REMARK    6  A    between atoms: C_24  and  C_25 
REMARK    7  A    between atoms: C_25  and  C_27 
REMARK       I    between atoms: C_27  and  N_28 
REMARK    8  A    between atoms: N_28  and  C_30 
ROOT
HETATM    1  C   UNK N   1      34.220  17.121   7.046  0.00  0.00     0.076 A 
HETATM    2  C   UNK N   1      34.366  17.567   8.363  0.00  0.00     0.039 A 
HETATM    3  C   UNK N   1      34.838  16.692   9.340  0.00  0.00     0.032 A 
HETATM    4  C   UNK N   1      35.217  15.388   8.984  0.00  0.00     0.034 A 
HETATM    5  C   UNK N   1      35.174  14.987   7.652  0.00  0.00     0.032 A 
HETATM    6  C   UNK N   1      34.688  15.850   6.683  0.00  0.00     0.039 A 
ENDROOT
BRANCH   4   7
HETATM    7  N   UNK N   1      35.295  14.374   9.956  0.00  0.00    -0.326 N 
HETATM    8  C   UNK N   1      36.510  13.971  10.415  0.00  0.00     0.240 C 
HETATM    9  O   UNK N   1      37.543  14.430   9.940  0.00  0.00    -0.272 OA
HETATM   10  H   UNK N   1      34.473  13.958  10.303  0.00  0.00     0.169 HD
BRANCH   8  11
HETATM   11  C   UNK N   1      36.587  13.097  11.612  0.00  0.00     0.122 A 
HETATM   12  C   UNK N   1      37.884  12.319  11.689  0.00  0.00     0.031 A 
HETATM   13  C   UNK N   1      36.576  11.597  11.414  0.00  0.00     0.031 A 
BRANCH  11  14
HETATM   14  C   UNK N   1      36.139  13.616  12.945  0.00  0.00     0.240 C 
HETATM   15  N   UNK N   1      36.922  13.479  14.050  0.00  0.00    -0.326 N 
HETATM   16  H   UNK N   1      37.860  13.198  13.941  0.00  0.00     0.169 HD
HETATM   17  O   UNK N   1      35.062  14.187  13.022  0.00  0.00    -0.272 OA
BRANCH  15  18
HETATM   18  C   UNK N   1      36.423  13.727  15.359  0.00  0.00     0.034 A 
HETATM   19  C   UNK N   1      35.451  12.877  15.911  0.00  0.00     0.032 A 
HETATM   20  C   UNK N   1      34.960  13.104  17.197  0.00  0.00     0.044 A 
HETATM   21  C   UNK N   1      35.428  14.189  17.938  0.00  0.00     0.116 A 
HETATM   22  C   UNK N   1      36.402  15.039  17.398  0.00  0.00     0.044 A 
HETATM   23  F   UNK N   1      34.937  14.416  19.180  0.00  0.00    -0.206 F 
HETATM   24  C   UNK N   1      36.909  14.800  16.114  0.00  0.00     0.032 A 
ENDBRANCH  15  18
ENDBRANCH  11  14
ENDBRANCH   8  11
ENDBRANCH   4   7
BRANCH   1  25
HETATM   25  O   UNK N   1      33.576  17.901   6.153  0.00  0.00    -0.310 OA
BRANCH  25  26
HETATM   26  C   UNK N   1      32.536  17.509   5.359  0.00  0.00     0.090 A 
HETATM   27  C   UNK N   1      31.194  17.304   5.829  0.00  0.00     0.027 A 
HETATM   28  C   UNK N   1      30.217  16.882   4.894  0.00  0.00     0.048 A 
HETATM   29  C   UNK N   1      30.796  17.519   7.161  0.00  0.00     0.056 A 
HETATM   30  N   UNK N   1      30.541  16.704   3.591  0.00  0.00    -0.365 N 
HETATM   31  C   UNK N   1      28.905  16.641   5.309  0.00  0.00     0.070 A 
HETATM   32  C   UNK N   1      31.799  16.925   3.130  0.00  0.00     0.091 A 
ATOM     33  HN  UNK N   1      29.820  16.395   2.940  1.00  0.00     0.165 HD
HETATM   34  C   UNK N   1      32.806  17.328   4.004  0.00  0.00     0.055 A 
HETATM   35  C   UNK N   1      28.517  16.815   6.635  0.00  0.00     0.103 A 
HETATM   36  C   UNK N   1      29.470  17.274   7.577  0.00  0.00     0.102 A 
BRANCH  35  37
HETATM   37  O   UNK N   1      27.221  16.542   6.954  0.00  0.00    -0.353 OA
HETATM   38  C   UNK N   1      26.457  15.526   6.428  0.00  0.00     0.210 C 
ENDBRANCH  35  37
BRANCH  36  39
HETATM   39  O   UNK N   1      29.116  17.469   8.863  0.00  0.00    -0.353 OA
HETATM   40  C   UNK N   1      29.657  18.493   9.602  0.00  0.00     0.210 C 
ENDBRANCH  36  39
ENDBRANCH  25  26
ENDBRANCH   1  25
TORSDOF 8
ENDMDL
MODEL 2
REMARK VINA RESULT:      -8.6      1.954      3.003
REMARK  8 active torsions:
REMARK  status: ('A' for Active; 'I' for Inactive)
REMARK    1  A    between atoms: C_3  and  O_16 
REMARK    2  A    between atoms: C_9  and  O_12 
REMARK    3  A    between atoms: C_10  and  O_14 
REMARK    4  A    between atoms: O_16  and  C_17 
REMARK    5  A    between atoms: C_20  and  N_23 
REMARK       I    between atoms: N_23  and  C_24 
REMARK    6  A    between atoms: C_24  and  C_25 
REMARK    7  A    between atoms: C_25  and  C_27 
REMARK       I    between atoms: C_27  and  N_28 
REMARK    8  A    between atoms: N_28  and  C_30 
ROOT
HETATM    1  C   UNK N   1      32.722  16.874   8.644  0.00  0.00     0.076 A 
HETATM    2  C   UNK N   1      34.008  17.146   9.122  0.00  0.00     0.039 A 
HETATM    3  C   UNK N   1      34.691  16.177   9.855  0.00  0.00     0.032 A 
HETATM    4  C   UNK N   1      34.108  14.916  10.057  0.00  0.00     0.034 A 
HETATM    5  C   UNK N   1      32.876  14.615   9.484  0.00  0.00     0.032 A 
HETATM    6  C   UNK N   1      32.188  15.583   8.770  0.00  0.00     0.039 A 
ENDROOT
BRANCH   4   7
HETATM    7  N   UNK N   1      34.549  14.083  11.101  0.00  0.00    -0.326 N 
HETATM    8  C   UNK N   1      35.375  13.037  10.828  0.00  0.00     0.240 C 
HETATM    9  O   UNK N   1      35.685  12.769   9.672  0.00  0.00    -0.272 OA
HETATM   10  H   UNK N   1      34.259  14.255  12.026  0.00  0.00     0.169 HD
BRANCH   8  11
HETATM   11  C   UNK N   1      36.043  12.321  11.943  0.00  0.00     0.122 A 
HETATM   12  C   UNK N   1      37.553  12.326  11.824  0.00  0.00     0.031 A 
HETATM   13  C   UNK N   1      36.778  11.034  11.638  0.00  0.00     0.031 A 
BRANCH  11  14
HETATM   14  C   UNK N   1      35.569  12.524  13.351  0.00  0.00     0.240 C 
HETATM   15  N   UNK N   1      36.455  12.654  14.377  0.00  0.00    -0.326 N 
HETATM   16  H   UNK N   1      37.408  12.793  14.172  0.00  0.00     0.169 HD
HETATM   17  O   UNK N   1      34.368  12.592  13.562  0.00  0.00    -0.272 OA
BRANCH  15  18
HETATM   18  C   UNK N   1      36.042  12.591  15.736  0.00  0.00     0.034 A 
HETATM   19  C   UNK N   1      36.017  11.356  16.405  0.00  0.00     0.032 A 
HETATM   20  C   UNK N   1      35.622  11.282  17.741  0.00  0.00     0.044 A 
HETATM   21  C   UNK N   1      35.238  12.440  18.418  0.00  0.00     0.116 A 
HETATM   22  C   UNK N   1      35.265  13.677  17.761  0.00  0.00     0.044 A 
HETATM   23  F   UNK N   1      34.840  12.362  19.710  0.00  0.00    -0.206 F 
HETATM   24  C   UNK N   1      35.680  13.754  16.424  0.00  0.00     0.032 A 
ENDBRANCH  15  18
ENDBRANCH  11  14
ENDBRANCH   8  11
ENDBRANCH   4   7
BRANCH   1  25
HETATM   25  O   UNK N   1      31.989  17.877   8.116  0.00  0.00    -0.310 OA
BRANCH  25  26
HETATM   26  C   UNK N   1      30.627  17.897   8.015  0.00  0.00     0.090 A 
HETATM   27  C   UNK N   1      29.901  17.558   6.823  0.00  0.00     0.027 A 
HETATM   28  C   UNK N   1      28.487  17.638   6.857  0.00  0.00     0.048 A 
HETATM   29  C   UNK N   1      30.519  17.134   5.631  0.00  0.00     0.056 A 
HETATM   30  N   UNK N   1      27.845  17.999   7.993  0.00  0.00    -0.365 N 
HETATM   31  C   UNK N   1      27.739  17.347   5.714  0.00  0.00     0.070 A 
HETATM   32  C   UNK N   1      28.519  18.291   9.135  0.00  0.00     0.091 A 
ATOM     33  HN  UNK N   1      26.826  18.053   7.989  1.00  0.00     0.165 HD
HETATM   34  C   UNK N   1      29.911  18.243   9.158  0.00  0.00     0.055 A 
HETATM   35  C   UNK N   1      28.349  16.965   4.521  0.00  0.00     0.103 A 
HETATM   36  C   UNK N   1      29.759  16.841   4.478  0.00  0.00     0.102 A 
BRANCH  35  37
HETATM   37  O   UNK N   1      27.543  16.714   3.452  0.00  0.00    -0.353 OA
HETATM   38  C   UNK N   1      26.172  16.824   3.431  0.00  0.00     0.210 C 
ENDBRANCH  35  37
BRANCH  36  39
HETATM   39  O   UNK N   1      30.374  16.454   3.343  0.00  0.00    -0.353 OA
HETATM   40  C   UNK N   1      31.672  16.817   3.077  0.00  0.00     0.210 C 
ENDBRANCH  36  39
ENDBRANCH  25  26
ENDBRANCH   1  25
TORSDOF 8
ENDMDL
MODEL 3
REMARK VINA RESULT:      -8.3      3.922      6.518
REMARK  8 active torsions:
REMARK  status: ('A' for Active; 'I' for Inactive)
REMARK    1  A    between atoms: C_3  and  O_16 
REMARK    2  A    between atoms: C_9  and  O_12 
REMARK    3  A    between atoms: C_10  and  O_14 
REMARK    4  A    between atoms: O_16  and  C_17 
REMARK    5  A    between atoms: C_20  and  N_23 
REMARK       I    between atoms: N_23  and  C_24 
REMARK    6  A    between atoms: C_24  and  C_25 
REMARK    7  A    between atoms: C_25  and  C_27 
REMARK       I    between atoms: C_27  and  N_28 
REMARK    8  A    between atoms: N_28  and  C_30 
ROOT
HETATM    1  C   UNK N   1      27.664  17.290   6.397  0.00  0.00     0.076 A 
HETATM    2  C   UNK N   1      28.597  16.414   5.833  0.00  0.00     0.039 A 
HETATM    3  C   UNK N   1      29.912  16.414   6.296  0.00  0.00     0.032 A 
HETATM    4  C   UNK N   1      30.274  17.248   7.364  0.00  0.00     0.034 A 
HETATM    5  C   UNK N   1      29.316  18.035   7.994  0.00  0.00     0.032 A 
HETATM    6  C   UNK N   1      28.013  18.051   7.523  0.00  0.00     0.039 A 
ENDROOT
BRANCH   4   7
HETATM    7  N   UNK N   1      31.623  17.584   7.583  0.00  0.00    -0.326 N 
HETATM    8  C   UNK N   1      32.388  16.808   8.397  0.00  0.00     0.240 C 
HETATM    9  O   UNK N   1      31.900  15.858   8.999  0.00  0.00    -0.272 OA
HETATM   10  H   UNK N   1      32.012  18.378   7.150  0.00  0.00     0.169 HD
BRANCH   8  11
HETATM   11  C   UNK N   1      33.859  17.005   8.425  0.00  0.00     0.122 A 
HETATM   12  C   UNK N   1      34.263  18.444   8.176  0.00  0.00     0.031 A 
HETATM   13  C   UNK N   1      34.563  17.377   7.138  0.00  0.00     0.031 A 
BRANCH  11  14
HETATM   14  C   UNK N   1      34.682  16.345   9.490  0.00  0.00     0.240 C 
HETATM   15  N   UNK N   1      34.953  15.012   9.441  0.00  0.00    -0.326 N 
HETATM   16  H   UNK N   1      34.760  14.514   8.614  0.00  0.00     0.169 HD
HETATM   17  O   UNK N   1      35.127  17.031  10.399  0.00  0.00    -0.272 OA
BRANCH  15  18
HETATM   18  C   UNK N   1      35.505  14.318  10.553  0.00  0.00     0.034 A 
HETATM   19  C   UNK N   1      36.826  13.844  10.499  0.00  0.00     0.032 A 
HETATM   20  C   UNK N   1      37.382  13.170  11.586  0.00  0.00     0.044 A 
HETATM   21  C   UNK N   1      36.620  12.952  12.733  0.00  0.00     0.116 A 
HETATM   22  C   UNK N   1      35.303  13.427  12.800  0.00  0.00     0.044 A 
HETATM   23  F   UNK N   1      37.158  12.284  13.781  0.00  0.00    -0.206 F 
HETATM   24  C   UNK N   1      34.750  14.121  11.715  0.00  0.00     0.032 A 
ENDBRANCH  15  18
ENDBRANCH  11  14
ENDBRANCH   8  11
ENDBRANCH   4   7
BRANCH   1  25
HETATM   25  O   UNK N   1      26.456  17.433   5.814  0.00  0.00    -0.310 OA
BRANCH  25  26
HETATM   26  C   UNK N   1      26.118  18.403   4.913  0.00  0.00     0.090 A 
HETATM   27  C   UNK N   1      24.768  18.708   4.525  0.00  0.00     0.027 A 
HETATM   28  C   UNK N   1      24.565  19.732   3.567  0.00  0.00     0.048 A 
HETATM   29  C   UNK N   1      23.640  18.059   5.059  0.00  0.00     0.056 A 
HETATM   30  N   UNK N   1      25.616  20.416   3.056  0.00  0.00    -0.365 N 
HETATM   31  C   UNK N   1      23.274  20.045   3.136  0.00  0.00     0.070 A 
HETATM   32  C   UNK N   1      26.893  20.157   3.440  0.00  0.00     0.091 A 
ATOM     33  HN  UNK N   1      25.443  21.145   2.364  1.00  0.00     0.165 HD
HETATM   34  C   UNK N   1      27.156  19.153   4.368  0.00  0.00     0.055 A 
HETATM   35  C   UNK N   1      22.158  19.377   3.633  0.00  0.00     0.103 A 
HETATM   36  C   UNK N   1      22.337  18.377   4.620  0.00  0.00     0.102 A 
BRANCH  35  37
HETATM   37  O   UNK N   1      20.938  19.736   3.146  0.00  0.00    -0.353 OA
HETATM   38  C   UNK N   1      20.710  20.588   2.089  0.00  0.00     0.210 C 
ENDBRANCH  35  37
BRANCH  36  39
HETATM   39  O   UNK N   1      21.273  17.729   5.133  0.00  0.00    -0.353 OA
HETATM   40  C   UNK N   1      21.187  17.453   6.477  0.00  0.00     0.210 C 
ENDBRANCH  36  39
ENDBRANCH  25  26
ENDBRANCH   1  25
TORSDOF 8
ENDMDL
MODEL 4
REMARK VINA RESULT:      -8.2      1.740      2.244
REMARK  8 active torsions:
REMARK  status: ('A' for Active; 'I' for Inactive)
REMARK    1  A    between atoms: C_3  and  O_16 
REMARK    2  A    between atoms: C_9  and  O_12 
REMARK    3  A    between atoms: C_10  and  O_14 
REMARK    4  A    between atoms: O_16  and  C_17 
REMARK    5  A    between atoms: C_20  and  N_23 
REMARK       I    between atoms: N_23  and  C_24 
REMARK    6  A    between atoms: C_24  and  C_25 
REMARK    7  A    between atoms: C_25  and  C_27 
REMARK       I    between atoms: C_27  and  N_28 
REMARK    8  A    between atoms: N_28  and  C_30 
ROOT
HETATM    1  C   UNK N   1      33.818  16.846   8.913  0.00  0.00     0.076 A 
HETATM    2  C   UNK N   1      33.271  15.562   9.009  0.00  0.00     0.039 A 
HETATM    3  C   UNK N   1      33.877  14.614   9.831  0.00  0.00     0.032 A 
HETATM    4  C   UNK N   1      34.995  14.971  10.600  0.00  0.00     0.034 A 
HETATM    5  C   UNK N   1      35.466  16.280  10.584  0.00  0.00     0.032 A 
HETATM    6  C   UNK N   1      34.876  17.219   9.754  0.00  0.00     0.039 A 
ENDROOT
BRANCH   4   7
HETATM    7  N   UNK N   1      35.864  13.984  11.101  0.00  0.00    -0.326 N 
HETATM    8  C   UNK N   1      35.630  13.435  12.323  0.00  0.00     0.240 C 
HETATM    9  O   UNK N   1      34.710  13.839  13.026  0.00  0.00    -0.272 OA
HETATM   10  H   UNK N   1      36.640  13.692  10.569  0.00  0.00     0.169 HD
BRANCH   8  11
HETATM   11  C   UNK N   1      36.383  12.225  12.738  0.00  0.00     0.122 A 
HETATM   12  C   UNK N   1      37.672  12.042  11.965  0.00  0.00     0.031 A 
HETATM   13  C   UNK N   1      36.514  11.083  11.754  0.00  0.00     0.031 A 
BRANCH  11  14
HETATM   14  C   UNK N   1      36.524  11.896  14.193  0.00  0.00     0.240 C 
HETATM   15  N   UNK N   1      35.437  11.581  14.951  0.00  0.00    -0.326 N 
HETATM   16  H   UNK N   1      34.580  11.396  14.503  0.00  0.00     0.169 HD
HETATM   17  O   UNK N   1      37.642  11.892  14.689  0.00  0.00    -0.272 OA
BRANCH  15  18
HETATM   18  C   UNK N   1      35.506  11.515  16.370  0.00  0.00     0.034 A 
HETATM   19  C   UNK N   1      35.917  10.329  16.998  0.00  0.00     0.032 A 
HETATM   20  C   UNK N   1      35.996  10.255  18.389  0.00  0.00     0.044 A 
HETATM   21  C   UNK N   1      35.655  11.362  19.165  0.00  0.00     0.116 A 
HETATM   22  C   UNK N   1      35.250  12.553  18.547  0.00  0.00     0.044 A 
HETATM   23  F   UNK N   1      35.719  11.282  20.515  0.00  0.00    -0.206 F 
HETATM   24  C   UNK N   1      35.188  12.633  17.149  0.00  0.00     0.032 A 
ENDBRANCH  15  18
ENDBRANCH  11  14
ENDBRANCH   8  11
ENDBRANCH   4   7
BRANCH   1  25
HETATM   25  O   UNK N   1      33.355  17.692   7.969  0.00  0.00    -0.310 OA
BRANCH  25  26
HETATM   26  C   UNK N   1      32.814  17.325   6.769  0.00  0.00     0.090 A 
HETATM   27  C   UNK N   1      31.408  17.134   6.542  0.00  0.00     0.027 A 
HETATM   28  C   UNK N   1      30.990  16.738   5.247  0.00  0.00     0.048 A 
HETATM   29  C   UNK N   1      30.427  17.338   7.530  0.00  0.00     0.056 A 
HETATM   30  N   UNK N   1      31.892  16.572   4.252  0.00  0.00    -0.365 N 
HETATM   31  C   UNK N   1      29.636  16.512   4.986  0.00  0.00     0.070 A 
HETATM   32  C   UNK N   1      33.220  16.781   4.448  0.00  0.00     0.091 A 
ATOM     33  HN  UNK N   1      31.565  16.282   3.330  1.00  0.00     0.165 HD
HETATM   34  C   UNK N   1      33.693  17.158   5.702  0.00  0.00     0.055 A 
HETATM   35  C   UNK N   1      28.666  16.674   5.972  0.00  0.00     0.103 A 
HETATM   36  C   UNK N   1      29.060  17.107   7.261  0.00  0.00     0.102 A 
BRANCH  35  37
HETATM   37  O   UNK N   1      27.372  16.417   5.633  0.00  0.00    -0.353 OA
HETATM   38  C   UNK N   1      26.683  16.988   4.588  0.00  0.00     0.210 C 
ENDBRANCH  35  37
BRANCH  36  39
HETATM   39  O   UNK N   1      28.140  17.291   8.228  0.00  0.00    -0.353 OA
HETATM   40  C   UNK N   1      28.238  18.337   9.114  0.00  0.00     0.210 C 
ENDBRANCH  36  39
ENDBRANCH  25  26
ENDBRANCH   1  25
TORSDOF 8
ENDMDL
MODEL 5
REMARK VINA RESULT:      -8.1      3.721     10.903
REMARK  8 active torsions:
REMARK  status: ('A' for Active; 'I' for Inactive)
REMARK    1  A    between atoms: C_3  and  O_16 
REMARK    2  A    between atoms: C_9  and  O_12 
REMARK    3  A    between atoms: C_10  and  O_14 
REMARK    4  A    between atoms: O_16  and  C_17 
REMARK    5  A    between atoms: C_20  and  N_23 
REMARK       I    between atoms: N_23  and  C_24 
REMARK    6  A    between atoms: C_24  and  C_25 
REMARK    7  A    between atoms: C_25  and  C_27 
REMARK       I    between atoms: C_27  and  N_28 
REMARK    8  A    between atoms: N_28  and  C_30 
ROOT
HETATM    1  C   UNK N   1      35.329  14.295   9.988  0.00  0.00     0.076 A 
HETATM    2  C   UNK N   1      35.696  14.104   8.653  0.00  0.00     0.039 A 
HETATM    3  C   UNK N   1      34.990  14.755   7.642  0.00  0.00     0.032 A 
HETATM    4  C   UNK N   1      33.954  15.641   7.976  0.00  0.00     0.034 A 
HETATM    5  C   UNK N   1      33.667  15.911   9.311  0.00  0.00     0.032 A 
HETATM    6  C   UNK N   1      34.356  15.251  10.315  0.00  0.00     0.039 A 
ENDROOT
BRANCH   4   7
HETATM    7  N   UNK N   1      32.972  15.984   7.028  0.00  0.00    -0.326 N 
HETATM    8  C   UNK N   1      33.183  17.033   6.188  0.00  0.00     0.240 C 
HETATM    9  O   UNK N   1      34.187  17.729   6.293  0.00  0.00    -0.272 OA
HETATM   10  H   UNK N   1      32.136  15.467   6.973  0.00  0.00     0.169 HD
BRANCH   8  11
HETATM   11  C   UNK N   1      32.278  17.235   5.029  0.00  0.00     0.122 A 
HETATM   12  C   UNK N   1      32.627  16.350   3.851  0.00  0.00     0.031 A 
HETATM   13  C   UNK N   1      32.846  17.850   3.769  0.00  0.00     0.031 A 
BRANCH  11  14
HETATM   14  C   UNK N   1      30.800  17.359   5.247  0.00  0.00     0.240 C 
HETATM   15  N   UNK N   1      29.964  17.675   4.221  0.00  0.00    -0.326 N 
HETATM   16  H   UNK N   1      30.307  17.647   3.298  0.00  0.00     0.169 HD
HETATM   17  O   UNK N   1      30.352  17.150   6.365  0.00  0.00    -0.272 OA
BRANCH  15  18
HETATM   18  C   UNK N   1      28.609  18.047   4.444  0.00  0.00     0.034 A 
HETATM   19  C   UNK N   1      28.298  19.358   4.839  0.00  0.00     0.032 A 
HETATM   20  C   UNK N   1      26.973  19.737   5.053  0.00  0.00     0.044 A 
HETATM   21  C   UNK N   1      25.947  18.807   4.884  0.00  0.00     0.116 A 
HETATM   22  C   UNK N   1      26.247  17.498   4.484  0.00  0.00     0.044 A 
HETATM   23  F   UNK N   1      24.663  19.174   5.107  0.00  0.00    -0.206 F 
HETATM   24  C   UNK N   1      27.577  17.122   4.251  0.00  0.00     0.032 A 
ENDBRANCH  15  18
ENDBRANCH  11  14
ENDBRANCH   8  11
ENDBRANCH   4   7
BRANCH   1  25
HETATM   25  O   UNK N   1      35.876  13.512  10.941  0.00  0.00    -0.310 OA
BRANCH  25  26
HETATM   26  C   UNK N   1      35.229  12.524  11.627  0.00  0.00     0.090 A 
HETATM   27  C   UNK N   1      35.179  12.435  13.061  0.00  0.00     0.027 A 
HETATM   28  C   UNK N   1      34.483  11.345  13.638  0.00  0.00     0.048 A 
HETATM   29  C   UNK N   1      35.770  13.382  13.918  0.00  0.00     0.056 A 
HETATM   30  N   UNK N   1      33.862  10.432  12.855  0.00  0.00    -0.365 N 
HETATM   31  C   UNK N   1      34.432  11.200  15.027  0.00  0.00     0.070 A 
HETATM   32  C   UNK N   1      33.875  10.524  11.500  0.00  0.00     0.091 A 
ATOM     33  HN  UNK N   1      33.370   9.654  13.296  1.00  0.00     0.165 HD
HETATM   34  C   UNK N   1      34.555  11.565  10.875  0.00  0.00     0.055 A 
HETATM   35  C   UNK N   1      35.049  12.114  15.878  0.00  0.00     0.103 A 
HETATM   36  C   UNK N   1      35.717  13.232  15.321  0.00  0.00     0.102 A 
BRANCH  35  37
HETATM   37  O   UNK N   1      34.962  11.886  17.218  0.00  0.00    -0.353 OA
HETATM   38  C   UNK N   1      35.719  10.988  17.935  0.00  0.00     0.210 C 
ENDBRANCH  35  37
BRANCH  36  39
HETATM   39  O   UNK N   1      36.305  14.142  16.122  0.00  0.00    -0.353 OA
HETATM   40  C   UNK N   1      37.209  15.049  15.625  0.00  0.00     0.210 C 
ENDBRANCH  36  39
ENDBRANCH  25  26
ENDBRANCH   1  25
TORSDOF 8
ENDMDL
MODEL 6
REMARK VINA RESULT:      -8.1      4.029     11.144
REMARK  8 active torsions:
REMARK  status: ('A' for Active; 'I' for Inactive)
REMARK    1  A    between atoms: C_3  and  O_16 
REMARK    2  A    between atoms: C_9  and  O_12 
REMARK    3  A    between atoms: C_10  and  O_14 
REMARK    4  A    between atoms: O_16  and  C_17 
REMARK    5  A    between atoms: C_20  and  N_23 
REMARK       I    between atoms: N_23  and  C_24 
REMARK    6  A    between atoms: C_24  and  C_25 
REMARK    7  A    between atoms: C_25  and  C_27 
REMARK       I    between atoms: C_27  and  N_28 
REMARK    8  A    between atoms: N_28  and  C_30 
ROOT
HETATM    1  C   UNK N   1      34.488  16.010  10.084  0.00  0.00     0.076 A 
HETATM    2  C   UNK N   1      34.563  17.229   9.403  0.00  0.00     0.039 A 
HETATM    3  C   UNK N   1      33.861  17.398   8.210  0.00  0.00     0.032 A 
HETATM    4  C   UNK N   1      33.039  16.365   7.734  0.00  0.00     0.034 A 
HETATM    5  C   UNK N   1      32.882  15.198   8.475  0.00  0.00     0.032 A 
HETATM    6  C   UNK N   1      33.593  15.021   9.650  0.00  0.00     0.039 A 
ENDROOT
BRANCH   4   7
HETATM    7  N   UNK N   1      32.657  16.321   6.380  0.00  0.00    -0.326 N 
HETATM    8  C   UNK N   1      31.450  16.823   6.003  0.00  0.00     0.240 C 
HETATM    9  O   UNK N   1      30.660  17.250   6.836  0.00  0.00    -0.272 OA
HETATM   10  H   UNK N   1      33.261  15.928   5.709  0.00  0.00     0.169 HD
BRANCH   8  11
HETATM   11  C   UNK N   1      31.157  17.013   4.560  0.00  0.00     0.122 A 
HETATM   12  C   UNK N   1      31.725  15.907   3.694  0.00  0.00     0.031 A 
HETATM   13  C   UNK N   1      32.307  17.308   3.622  0.00  0.00     0.031 A 
BRANCH  11  14
HETATM   14  C   UNK N   1      29.790  17.448   4.127  0.00  0.00     0.240 C 
HETATM   15  N   UNK N   1      29.175  18.514   4.710  0.00  0.00    -0.326 N 
HETATM   16  H   UNK N   1      29.699  19.109   5.293  0.00  0.00     0.169 HD
HETATM   17  O   UNK N   1      29.239  16.840   3.220  0.00  0.00    -0.272 OA
BRANCH  15  18
HETATM   18  C   UNK N   1      27.795  18.789   4.502  0.00  0.00     0.034 A 
HETATM   19  C   UNK N   1      26.821  17.917   5.015  0.00  0.00     0.032 A 
HETATM   20  C   UNK N   1      25.464  18.182   4.825  0.00  0.00     0.044 A 
HETATM   21  C   UNK N   1      25.069  19.313   4.112  0.00  0.00     0.116 A 
HETATM   22  C   UNK N   1      26.033  20.193   3.602  0.00  0.00     0.044 A 
HETATM   23  F   UNK N   1      23.751  19.558   3.917  0.00  0.00    -0.206 F 
HETATM   24  C   UNK N   1      27.396  19.938   3.809  0.00  0.00     0.032 A 
ENDBRANCH  15  18
ENDBRANCH  11  14
ENDBRANCH   8  11
ENDBRANCH   4   7
BRANCH   1  25
HETATM   25  O   UNK N   1      35.323  15.781  11.119  0.00  0.00    -0.310 OA
BRANCH  25  26
HETATM   26  C   UNK N   1      36.211  14.748  11.210  0.00  0.00     0.090 A 
HETATM   27  C   UNK N   1      36.218  13.779  12.272  0.00  0.00     0.027 A 
HETATM   28  C   UNK N   1      37.209  12.768  12.246  0.00  0.00     0.048 A 
HETATM   29  C   UNK N   1      35.282  13.773  13.323  0.00  0.00     0.056 A 
HETATM   30  N   UNK N   1      38.105  12.706  11.233  0.00  0.00    -0.365 N 
HETATM   31  C   UNK N   1      37.275  11.822  13.272  0.00  0.00     0.070 A 
HETATM   32  C   UNK N   1      38.087  13.597  10.208  0.00  0.00     0.091 A 
ATOM     33  HN  UNK N   1      38.811  11.970  11.240  1.00  0.00     0.165 HD
HETATM   34  C   UNK N   1      37.146  14.622  10.185  0.00  0.00     0.055 A 
HETATM   35  C   UNK N   1      36.375  11.836  14.335  0.00  0.00     0.103 A 
HETATM   36  C   UNK N   1      35.352  12.816  14.358  0.00  0.00     0.102 A 
BRANCH  35  37
HETATM   37  O   UNK N   1      36.522  10.885  15.299  0.00  0.00    -0.353 OA
HETATM   38  C   UNK N   1      36.048   9.595  15.239  0.00  0.00     0.210 C 
ENDBRANCH  35  37
BRANCH  36  39
HETATM   39  O   UNK N   1      34.456  12.840  15.364  0.00  0.00    -0.353 OA
HETATM   40  C   UNK N   1      34.752  13.433  16.568  0.00  0.00     0.210 C 
ENDBRANCH  36  39
ENDBRANCH  25  26
ENDBRANCH   1  25
TORSDOF 8
ENDMDL
MODEL 7
REMARK VINA RESULT:      -8.1      2.153      2.699
REMARK  8 active torsions:
REMARK  status: ('A' for Active; 'I' for Inactive)
REMARK    1  A    between atoms: C_3  and  O_16 
REMARK    2  A    between atoms: C_9  and  O_12 
REMARK    3  A    between atoms: C_10  and  O_14 
REMARK    4  A    between atoms: O_16  and  C_17 
REMARK    5  A    between atoms: C_20  and  N_23 
REMARK       I    between atoms: N_23  and  C_24 
REMARK    6  A    between atoms: C_24  and  C_25 
REMARK    7  A    between atoms: C_25  and  C_27 
REMARK       I    between atoms: C_27  and  N_28 
REMARK    8  A    between atoms: N_28  and  C_30 
ROOT
HETATM    1  C   UNK N   1      32.257  16.843   6.017  0.00  0.00     0.076 A 
HETATM    2  C   UNK N   1      33.630  16.721   5.778  0.00  0.00     0.039 A 
HETATM    3  C   UNK N   1      34.444  16.107   6.729  0.00  0.00     0.032 A 
HETATM    4  C   UNK N   1      33.872  15.564   7.890  0.00  0.00     0.034 A 
HETATM    5  C   UNK N   1      32.493  15.590   8.068  0.00  0.00     0.032 A 
HETATM    6  C   UNK N   1      31.684  16.216   7.133  0.00  0.00     0.039 A 
ENDROOT
BRANCH   4   7
HETATM    7  N   UNK N   1      34.661  15.321   9.029  0.00  0.00    -0.326 N 
HETATM    8  C   UNK N   1      35.173  14.079   9.243  0.00  0.00     0.240 C 
HETATM    9  O   UNK N   1      34.899  13.150   8.492  0.00  0.00    -0.272 OA
HETATM   10  H   UNK N   1      34.840  16.046   9.670  0.00  0.00     0.169 HD
BRANCH   8  11
HETATM   11  C   UNK N   1      36.206  13.885  10.291  0.00  0.00     0.122 A 
HETATM   12  C   UNK N   1      37.537  14.508   9.927  0.00  0.00     0.031 A 
HETATM   13  C   UNK N   1      37.392  12.998   9.981  0.00  0.00     0.031 A 
BRANCH  11  14
HETATM   14  C   UNK N   1      35.851  14.073  11.735  0.00  0.00     0.240 C 
HETATM   15  N   UNK N   1      36.717  13.718  12.723  0.00  0.00    -0.326 N 
HETATM   16  H   UNK N   1      37.649  13.502  12.488  0.00  0.00     0.169 HD
HETATM   17  O   UNK N   1      34.772  14.575  12.014  0.00  0.00    -0.272 OA
BRANCH  15  18
HETATM   18  C   UNK N   1      36.314  13.647  14.085  0.00  0.00     0.034 A 
HETATM   19  C   UNK N   1      36.883  14.515  15.031  0.00  0.00     0.032 A 
HETATM   20  C   UNK N   1      36.488  14.461  16.368  0.00  0.00     0.044 A 
HETATM   21  C   UNK N   1      35.530  13.532  16.774  0.00  0.00     0.116 A 
HETATM   22  C   UNK N   1      34.952  12.666  15.836  0.00  0.00     0.044 A 
HETATM   23  F   UNK N   1      35.162  13.472  18.076  0.00  0.00    -0.206 F 
HETATM   24  C   UNK N   1      35.334  12.733  14.490  0.00  0.00     0.032 A 
ENDBRANCH  15  18
ENDBRANCH  11  14
ENDBRANCH   8  11
ENDBRANCH   4   7
BRANCH   1  25
HETATM   25  O   UNK N   1      31.511  17.612   5.197  0.00  0.00    -0.310 OA
BRANCH  25  26
HETATM   26  C   UNK N   1      30.442  17.186   4.462  0.00  0.00     0.090 A 
HETATM   27  C   UNK N   1      29.102  17.679   4.626  0.00  0.00     0.027 A 
HETATM   28  C   UNK N   1      28.086  17.135   3.803  0.00  0.00     0.048 A 
HETATM   29  C   UNK N   1      28.751  18.683   5.548  0.00  0.00     0.056 A 
HETATM   30  N   UNK N   1      28.381  16.198   2.872  0.00  0.00    -0.365 N 
HETATM   31  C   UNK N   1      26.763  17.561   3.946  0.00  0.00     0.070 A 
HETATM   32  C   UNK N   1      29.649  15.749   2.686  0.00  0.00     0.091 A 
ATOM     33  HN  UNK N   1      27.630  15.819   2.295  1.00  0.00     0.165 HD
HETATM   34  C   UNK N   1      30.688  16.236   3.475  0.00  0.00     0.055 A 
HETATM   35  C   UNK N   1      26.405  18.526   4.884  0.00  0.00     0.103 A 
HETATM   36  C   UNK N   1      27.413  19.110   5.690  0.00  0.00     0.102 A 
BRANCH  35  37
HETATM   37  O   UNK N   1      25.090  18.870   4.966  0.00  0.00    -0.353 OA
HETATM   38  C   UNK N   1      24.265  19.164   3.904  0.00  0.00     0.210 C 
ENDBRANCH  35  37
BRANCH  36  39
HETATM   39  O   UNK N   1      27.098  20.061   6.591  0.00  0.00    -0.353 OA
HETATM   40  C   UNK N   1      27.080  21.390   6.247  0.00  0.00     0.210 C 
ENDBRANCH  36  39
ENDBRANCH  25  26
ENDBRANCH   1  25
TORSDOF 8
ENDMDL
MODEL 8
REMARK VINA RESULT:      -7.9      1.973      2.292
REMARK  8 active torsions:
REMARK  status: ('A' for Active; 'I' for Inactive)
REMARK    1  A    between atoms: C_3  and  O_16 
REMARK    2  A    between atoms: C_9  and  O_12 
REMARK    3  A    between atoms: C_10  and  O_14 
REMARK    4  A    between atoms: O_16  and  C_17 
REMARK    5  A    between atoms: C_20  and  N_23 
REMARK       I    between atoms: N_23  and  C_24 
REMARK    6  A    between atoms: C_24  and  C_25 
REMARK    7  A    between atoms: C_25  and  C_27 
REMARK       I    between atoms: C_27  and  N_28 
REMARK    8  A    between atoms: N_28  and  C_30 
ROOT
HETATM    1  C   UNK N   1      32.271  14.569   6.562  0.00  0.00     0.076 A 
HETATM    2  C   UNK N   1      32.899  15.665   7.161  0.00  0.00     0.039 A 
HETATM    3  C   UNK N   1      34.179  15.520   7.695  0.00  0.00     0.032 A 
HETATM    4  C   UNK N   1      34.849  14.293   7.575  0.00  0.00     0.034 A 
HETATM    5  C   UNK N   1      34.262  13.240   6.880  0.00  0.00     0.032 A 
HETATM    6  C   UNK N   1      32.984  13.377   6.365  0.00  0.00     0.039 A 
ENDROOT
BRANCH   4   7
HETATM    7  N   UNK N   1      35.922  13.978   8.429  0.00  0.00    -0.326 N 
HETATM    8  C   UNK N   1      35.675  13.582   9.706  0.00  0.00     0.240 C 
HETATM    9  O   UNK N   1      34.531  13.564  10.147  0.00  0.00    -0.272 OA
HETATM   10  H   UNK N   1      36.849  14.044   8.103  0.00  0.00     0.169 HD
BRANCH   8  11
HETATM   11  C   UNK N   1      36.774  13.005  10.519  0.00  0.00     0.122 A 
HETATM   12  C   UNK N   1      38.128  13.593  10.177  0.00  0.00     0.031 A 
HETATM   13  C   UNK N   1      37.812  12.149   9.827  0.00  0.00     0.031 A 
BRANCH  11  14
HETATM   14  C   UNK N   1      36.585  12.797  11.992  0.00  0.00     0.240 C 
HETATM   15  N   UNK N   1      35.709  13.560  12.701  0.00  0.00    -0.326 N 
HETATM   16  H   UNK N   1      35.068  14.129  12.216  0.00  0.00     0.169 HD
HETATM   17  O   UNK N   1      37.219  11.912  12.546  0.00  0.00    -0.272 OA
BRANCH  15  18
HETATM   18  C   UNK N   1      35.695  13.560  14.123  0.00  0.00     0.034 A 
HETATM   19  C   UNK N   1      34.744  12.793  14.815  0.00  0.00     0.032 A 
HETATM   20  C   UNK N   1      34.725  12.777  16.210  0.00  0.00     0.044 A 
HETATM   21  C   UNK N   1      35.650  13.537  16.926  0.00  0.00     0.116 A 
HETATM   22  C   UNK N   1      36.607  14.301  16.245  0.00  0.00     0.044 A 
HETATM   23  F   UNK N   1      35.620  13.532  18.280  0.00  0.00    -0.206 F 
HETATM   24  C   UNK N   1      36.638  14.302  14.844  0.00  0.00     0.032 A 
ENDBRANCH  15  18
ENDBRANCH  11  14
ENDBRANCH   8  11
ENDBRANCH   4   7
BRANCH   1  25
HETATM   25  O   UNK N   1      30.965  14.655   6.233  0.00  0.00    -0.310 OA
BRANCH  25  26
HETATM   26  C   UNK N   1      30.416  15.585   5.396  0.00  0.00     0.090 A 
HETATM   27  C   UNK N   1      29.662  16.725   5.839  0.00  0.00     0.027 A 
HETATM   28  C   UNK N   1      29.137  17.600   4.857  0.00  0.00     0.048 A 
HETATM   29  C   UNK N   1      29.434  17.026   7.195  0.00  0.00     0.056 A 
HETATM   30  N   UNK N   1      29.367  17.377   3.542  0.00  0.00    -0.365 N 
HETATM   31  C   UNK N   1      28.373  18.706   5.238  0.00  0.00     0.070 A 
HETATM   32  C   UNK N   1      30.105  16.321   3.113  0.00  0.00     0.091 A 
ATOM     33  HN  UNK N   1      28.974  18.020   2.854  1.00  0.00     0.165 HD
HETATM   34  C   UNK N   1      30.635  15.417   4.031  0.00  0.00     0.055 A 
HETATM   35  C   UNK N   1      28.112  18.985   6.577  0.00  0.00     0.103 A 
HETATM   36  C   UNK N   1      28.660  18.144   7.575  0.00  0.00     0.102 A 
BRANCH  35  37
HETATM   37  O   UNK N   1      27.344  20.075   6.856  0.00  0.00    -0.353 OA
HETATM   38  C   UNK N   1      27.360  21.270   6.174  0.00  0.00     0.210 C 
ENDBRANCH  35  37
BRANCH  36  39
HETATM   39  O   UNK N   1      28.440  18.402   8.880  0.00  0.00    -0.353 OA
HETATM   40  C   UNK N   1      29.483  18.576   9.757  0.00  0.00     0.210 C 
ENDBRANCH  36  39
ENDBRANCH  25  26
ENDBRANCH   1  25
TORSDOF 8
ENDMDL
MODEL 9
REMARK VINA RESULT:      -7.8      4.922     11.822
REMARK  8 active torsions:
REMARK  status: ('A' for Active; 'I' for Inactive)
REMARK    1  A    between atoms: C_3  and  O_16 
REMARK    2  A    between atoms: C_9  and  O_12 
REMARK    3  A    between atoms: C_10  and  O_14 
REMARK    4  A    between atoms: O_16  and  C_17 
REMARK    5  A    between atoms: C_20  and  N_23 
REMARK       I    between atoms: N_23  and  C_24 
REMARK    6  A    between atoms: C_24  and  C_25 
REMARK    7  A    between atoms: C_25  and  C_27 
REMARK       I    between atoms: C_27  and  N_28 
REMARK    8  A    between atoms: N_28  and  C_30 
ROOT
HETATM    1  C   UNK N   1      32.017  16.075   5.621  0.00  0.00     0.076 A 
HETATM    2  C   UNK N   1      30.872  15.418   6.082  0.00  0.00     0.039 A 
HETATM    3  C   UNK N   1      29.613  15.865   5.685  0.00  0.00     0.032 A 
HETATM    4  C   UNK N   1      29.506  16.933   4.781  0.00  0.00     0.034 A 
HETATM    5  C   UNK N   1      30.651  17.510   4.241  0.00  0.00     0.032 A 
HETATM    6  C   UNK N   1      31.903  17.079   4.648  0.00  0.00     0.039 A 
ENDROOT
BRANCH   4   7
HETATM    7  N   UNK N   1      28.310  17.668   4.679  0.00  0.00    -0.326 N 
HETATM    8  C   UNK N   1      27.938  18.496   5.693  0.00  0.00     0.240 C 
HETATM    9  O   UNK N   1      28.596  18.558   6.725  0.00  0.00    -0.272 OA
HETATM   10  H   UNK N   1      27.744  17.582   3.879  0.00  0.00     0.169 HD
BRANCH   8  11
HETATM   11  C   UNK N   1      26.827  19.457   5.482  0.00  0.00     0.122 A 
HETATM   12  C   UNK N   1      27.313  20.859   5.178  0.00  0.00     0.031 A 
HETATM   13  C   UNK N   1      26.624  20.560   6.497  0.00  0.00     0.031 A 
BRANCH  11  14
HETATM   14  C   UNK N   1      25.642  19.059   4.655  0.00  0.00     0.240 C 
HETATM   15  N   UNK N   1      24.458  18.727   5.240  0.00  0.00    -0.326 N 
HETATM   16  H   UNK N   1      24.326  18.919   6.197  0.00  0.00     0.169 HD
HETATM   17  O   UNK N   1      25.748  19.058   3.438  0.00  0.00    -0.272 OA
BRANCH  15  18
HETATM   18  C   UNK N   1      23.408  18.107   4.508  0.00  0.00     0.034 A 
HETATM   19  C   UNK N   1      23.421  16.718   4.301  0.00  0.00     0.032 A 
HETATM   20  C   UNK N   1      22.392  16.098   3.593  0.00  0.00     0.044 A 
HETATM   21  C   UNK N   1      21.346  16.861   3.075  0.00  0.00     0.116 A 
HETATM   22  C   UNK N   1      21.320  18.247   3.282  0.00  0.00     0.044 A 
HETATM   23  F   UNK N   1      20.357  16.257   2.375  0.00  0.00    -0.206 F 
HETATM   24  C   UNK N   1      22.344  18.868   4.010  0.00  0.00     0.032 A 
ENDBRANCH  15  18
ENDBRANCH  11  14
ENDBRANCH   8  11
ENDBRANCH   4   7
BRANCH   1  25
HETATM   25  O   UNK N   1      33.215  15.773   6.164  0.00  0.00    -0.310 OA
BRANCH  25  26
HETATM   26  C   UNK N   1      33.758  16.361   7.270  0.00  0.00     0.090 A 
HETATM   27  C   UNK N   1      34.123  15.652   8.465  0.00  0.00     0.027 A 
HETATM   28  C   UNK N   1      34.663  16.394   9.544  0.00  0.00     0.048 A 
HETATM   29  C   UNK N   1      33.988  14.258   8.613  0.00  0.00     0.056 A 
HETATM   30  N   UNK N   1      34.852  17.730   9.434  0.00  0.00    -0.365 N 
HETATM   31  C   UNK N   1      35.006  15.753  10.737  0.00  0.00     0.070 A 
HETATM   32  C   UNK N   1      34.541  18.406   8.298  0.00  0.00     0.091 A 
ATOM     33  HN  UNK N   1      35.239  18.242  10.227  1.00  0.00     0.165 HD
HETATM   34  C   UNK N   1      33.993  17.733   7.209  0.00  0.00     0.055 A 
HETATM   35  C   UNK N   1      34.837  14.380  10.901  0.00  0.00     0.103 A 
HETATM   36  C   UNK N   1      34.334  13.614   9.821  0.00  0.00     0.102 A 
BRANCH  35  37
HETATM   37  O   UNK N   1      35.182  13.841  12.103  0.00  0.00    -0.353 OA
HETATM   38  C   UNK N   1      36.217  14.259  12.908  0.00  0.00     0.210 C 
ENDBRANCH  35  37
BRANCH  36  39
HETATM   39  O   UNK N   1      34.180  12.282   9.945  0.00  0.00    -0.353 OA
HETATM   40  C   UNK N   1      33.212  11.608   9.240  0.00  0.00     0.210 C 
ENDBRANCH  36  39
ENDBRANCH  25  26
ENDBRANCH   1  25
TORSDOF 8
ENDMDL
