MODEL 1
REMARK VINA RESULT:      -6.1      0.000      0.000
REMARK  3 active torsions:
REMARK  status: ('A' for Active; 'I' for Inactive)
REMARK    1  A    between atoms: C_2  and  N_1 
REMARK    2  A    between atoms: C_4  and  C_2 
REMARK    3  A    between atoms: C_7  and  C_2 
ROOT
HETATM    1  C   UNK N   1      29.429  17.145   4.768  0.00  0.00     0.289 C 
ENDROOT
BRANCH   1   2
HETATM    2  N   UNK N   1      28.816  15.832   5.087  0.00  0.00     0.105 N 
HETATM    3  C   UNK N   1      27.411  15.814   4.660  0.00  0.00     0.304 C 
HETATM    4  C   UNK N   1      26.778  14.477   5.046  0.00  0.00     0.302 C 
HETATM    5  N   UNK N   1      27.467  13.389   4.355  0.00  0.00     0.087 N 
HETATM    6  C   UNK N   1      28.891  13.418   4.688  0.00  0.00     0.302 C 
HETATM    7  C   UNK N   1      26.931  12.143   4.868  0.00  0.00     0.310 C 
HETATM    8  C   UNK N   1      29.481  14.776   4.312  0.00  0.00     0.304 C 
ENDBRANCH   1   2
BRANCH   1   9
HETATM    9  C   UNK N   1      28.683  18.331   5.380  0.00  0.00    -0.021 A 
HETATM   10  C   UNK N   1      28.179  19.338   4.541  0.00  0.00     0.011 A 
HETATM   11  C   UNK N   1      27.447  20.406   5.069  0.00  0.00     0.024 A 
HETATM   12  C   UNK N   1      27.204  20.475   6.442  0.00  0.00     0.034 A 
HETATM   13  C   UNK N   1      27.705  19.486   7.291  0.00  0.00     0.024 A 
HETATM   14 Cl   UNK N   1      26.260  21.796   7.098  0.00  0.00    -0.084 Cl
HETATM   15  C   UNK N   1      28.442  18.422   6.763  0.00  0.00     0.011 A 
ENDBRANCH   1   9
BRANCH   1  16
HETATM   16  C   UNK N   1      30.917  17.210   5.108  0.00  0.00    -0.021 A 
HETATM   17  C   UNK N   1      31.339  16.957   6.423  0.00  0.00     0.010 A 
HETATM   18  C   UNK N   1      32.692  17.047   6.765  0.00  0.00     0.001 A 
HETATM   19  C   UNK N   1      33.636  17.400   5.799  0.00  0.00     0.000 A 
HETATM   20  C   UNK N   1      33.231  17.655   4.488  0.00  0.00     0.001 A 
HETATM   21  C   UNK N   1      31.879  17.558   4.143  0.00  0.00     0.010 A 
ENDBRANCH   1  16
TORSDOF 3
ENDMDL
MODEL 2
REMARK VINA RESULT:      -6.1     10.954     13.577
REMARK  3 active torsions:
REMARK  status: ('A' for Active; 'I' for Inactive)
REMARK    1  A    between atoms: C_2  and  N_1 
REMARK    2  A    between atoms: C_4  and  C_2 
REMARK    3  A    between atoms: C_7  and  C_2 
ROOT
HETATM    1  C   UNK N   1      35.743  12.588  14.422  0.00  0.00     0.289 C 
ENDROOT
BRANCH   1   2
HETATM    2  N   UNK N   1      36.314  13.044  13.131  0.00  0.00     0.105 N 
HETATM    3  C   UNK N   1      36.253  11.960  12.142  0.00  0.00     0.304 C 
HETATM    4  C   UNK N   1      36.896  12.427  10.835  0.00  0.00     0.302 C 
HETATM    5  N   UNK N   1      36.148  13.563  10.297  0.00  0.00     0.087 N 
HETATM    6  C   UNK N   1      36.113  14.640  11.285  0.00  0.00     0.302 C 
HETATM    7  C   UNK N   1      36.882  14.056   9.148  0.00  0.00     0.310 C 
HETATM    8  C   UNK N   1      35.489  14.130  12.584  0.00  0.00     0.304 C 
ENDBRANCH   1   2
BRANCH   1   9
HETATM    9  C   UNK N   1      36.125  11.153  14.785  0.00  0.00    -0.021 A 
HETATM   10  C   UNK N   1      37.476  10.829  14.988  0.00  0.00     0.011 A 
HETATM   11  C   UNK N   1      37.849   9.537  15.372  0.00  0.00     0.024 A 
HETATM   12  C   UNK N   1      36.874   8.556  15.565  0.00  0.00     0.034 A 
HETATM   13  C   UNK N   1      35.527   8.861  15.359  0.00  0.00     0.024 A 
HETATM   14 Cl   UNK N   1      37.340   6.948  16.077  0.00  0.00    -0.084 Cl
HETATM   15  C   UNK N   1      35.155  10.151  14.968  0.00  0.00     0.011 A 
ENDBRANCH   1   9
BRANCH   1  16
HETATM   16  C   UNK N   1      36.047  13.537  15.580  0.00  0.00    -0.021 A 
HETATM   17  C   UNK N   1      35.306  13.442  16.769  0.00  0.00     0.010 A 
HETATM   18  C   UNK N   1      35.542  14.324  17.828  0.00  0.00     0.001 A 
HETATM   19  C   UNK N   1      36.515  15.317  17.707  0.00  0.00     0.000 A 
HETATM   20  C   UNK N   1      37.260  15.425  16.531  0.00  0.00     0.001 A 
HETATM   21  C   UNK N   1      37.030  14.539  15.474  0.00  0.00     0.010 A 
ENDBRANCH   1  16
TORSDOF 3
ENDMDL
MODEL 3
REMARK VINA RESULT:      -6.0      2.271      4.516
REMARK  3 active torsions:
REMARK  status: ('A' for Active; 'I' for Inactive)
REMARK    1  A    between atoms: C_2  and  N_1 
REMARK    2  A    between atoms: C_4  and  C_2 
REMARK    3  A    between atoms: C_7  and  C_2 
ROOT
HETATM    1  C   UNK N   1      28.814  17.043   6.125  0.00  0.00     0.289 C 
ENDROOT
BRANCH   1   2
HETATM    2  N   UNK N   1      28.618  16.043   5.047  0.00  0.00     0.105 N 
HETATM    3  C   UNK N   1      29.297  14.787   5.394  0.00  0.00     0.304 C 
HETATM    4  C   UNK N   1      29.134  13.787   4.249  0.00  0.00     0.302 C 
HETATM    5  N   UNK N   1      27.716  13.488   4.055  0.00  0.00     0.087 N 
HETATM    6  C   UNK N   1      26.985  14.725   3.786  0.00  0.00     0.302 C 
HETATM    7  C   UNK N   1      27.608  12.658   2.871  0.00  0.00     0.310 C 
HETATM    8  C   UNK N   1      27.192  15.708   4.938  0.00  0.00     0.304 C 
ENDBRANCH   1   2
BRANCH   1   9
HETATM    9  C   UNK N   1      30.269  17.178   6.574  0.00  0.00    -0.021 A 
HETATM   10  C   UNK N   1      31.283  17.284   5.609  0.00  0.00     0.011 A 
HETATM   11  C   UNK N   1      32.616  17.462   5.992  0.00  0.00     0.024 A 
HETATM   12  C   UNK N   1      32.949  17.543   7.345  0.00  0.00     0.034 A 
HETATM   13  C   UNK N   1      31.953  17.431   8.318  0.00  0.00     0.024 A 
HETATM   14 Cl   UNK N   1      34.615  17.797   7.823  0.00  0.00    -0.084 Cl
HETATM   15  C   UNK N   1      30.622  17.246   7.934  0.00  0.00     0.011 A 
ENDBRANCH   1   9
BRANCH   1  16
HETATM   16  C   UNK N   1      28.224  18.411   5.787  0.00  0.00    -0.021 A 
HETATM   17  C   UNK N   1      27.828  19.271   6.824  0.00  0.00     0.010 A 
HETATM   18  C   UNK N   1      27.251  20.512   6.538  0.00  0.00     0.001 A 
HETATM   19  C   UNK N   1      27.055  20.904   5.212  0.00  0.00     0.000 A 
HETATM   20  C   UNK N   1      27.444  20.059   4.171  0.00  0.00     0.001 A 
HETATM   21  C   UNK N   1      28.027  18.821   4.456  0.00  0.00     0.010 A 
ENDBRANCH   1  16
TORSDOF 3
ENDMDL
MODEL 4
REMARK VINA RESULT:      -6.0     12.893     15.111
REMARK  3 active torsions:
REMARK  status: ('A' for Active; 'I' for Inactive)
REMARK    1  A    between atoms: C_2  and  N_1 
REMARK    2  A    between atoms: C_4  and  C_2 
REMARK    3  A    between atoms: C_7  and  C_2 
ROOT
HETATM    1  C   UNK N   1      26.519  25.962  -5.581  0.00  0.00     0.289 C 
ENDROOT
BRANCH   1   2
HETATM    2  N   UNK N   1      26.636  25.621  -7.020  0.00  0.00     0.105 N 
HETATM    3  C   UNK N   1      26.440  24.178  -7.214  0.00  0.00     0.304 C 
HETATM    4  C   UNK N   1      26.620  23.834  -8.694  0.00  0.00     0.302 C 
HETATM    5  N   UNK N   1      25.608  24.531  -9.486  0.00  0.00     0.087 N 
HETATM    6  C   UNK N   1      25.713  25.973  -9.261  0.00  0.00     0.302 C 
HETATM    7  C   UNK N   1      25.915  24.291 -10.884  0.00  0.00     0.310 C 
HETATM    8  C   UNK N   1      25.555  26.274  -7.771  0.00  0.00     0.304 C 
ENDBRANCH   1   2
BRANCH   1   9
HETATM    9  C   UNK N   1      27.416  25.114  -4.679  0.00  0.00    -0.021 A 
HETATM   10  C   UNK N   1      28.807  25.137  -4.870  0.00  0.00     0.011 A 
HETATM   11  C   UNK N   1      29.654  24.412  -4.025  0.00  0.00     0.024 A 
HETATM   12  C   UNK N   1      29.120  23.662  -2.976  0.00  0.00     0.034 A 
HETATM   13  C   UNK N   1      27.738  23.622  -2.778  0.00  0.00     0.024 A 
HETATM   14 Cl   UNK N   1      30.184  22.781  -1.900  0.00  0.00    -0.084 Cl
HETATM   15  C   UNK N   1      26.891  24.341  -3.627  0.00  0.00     0.011 A 
ENDBRANCH   1   9
BRANCH   1  16
HETATM   16  C   UNK N   1      26.723  27.450  -5.300  0.00  0.00    -0.021 A 
HETATM   17  C   UNK N   1      27.606  28.192  -6.100  0.00  0.00     0.010 A 
HETATM   18  C   UNK N   1      27.836  29.546  -5.838  0.00  0.00     0.001 A 
HETATM   19  C   UNK N   1      27.194  30.171  -4.767  0.00  0.00     0.000 A 
HETATM   20  C   UNK N   1      26.314  29.445  -3.963  0.00  0.00     0.001 A 
HETATM   21  C   UNK N   1      26.077  28.093  -4.228  0.00  0.00     0.010 A 
ENDBRANCH   1  16
TORSDOF 3
ENDMDL
MODEL 5
REMARK VINA RESULT:      -5.9      2.527      3.596
REMARK  3 active torsions:
REMARK  status: ('A' for Active; 'I' for Inactive)
REMARK    1  A    between atoms: C_2  and  N_1 
REMARK    2  A    between atoms: C_4  and  C_2 
REMARK    3  A    between atoms: C_7  and  C_2 
ROOT
HETATM    1  C   UNK N   1      29.215  17.676   5.457  0.00  0.00     0.289 C 
ENDROOT
BRANCH   1   2
HETATM    2  N   UNK N   1      29.439  16.302   4.943  0.00  0.00     0.105 N 
HETATM    3  C   UNK N   1      30.036  16.357   3.602  0.00  0.00     0.304 C 
HETATM    4  C   UNK N   1      30.209  14.936   3.064  0.00  0.00     0.302 C 
HETATM    5  N   UNK N   1      31.123  14.191   3.927  0.00  0.00     0.087 N 
HETATM    6  C   UNK N   1      30.608  14.180   5.296  0.00  0.00     0.302 C 
HETATM    7  C   UNK N   1      31.134  12.818   3.461  0.00  0.00     0.310 C 
HETATM    8  C   UNK N   1      30.424  15.615   5.789  0.00  0.00     0.304 C 
ENDBRANCH   1   2
BRANCH   1   9
HETATM    9  C   UNK N   1      28.026  18.384   4.805  0.00  0.00    -0.021 A 
HETATM   10  C   UNK N   1      28.022  19.785   4.713  0.00  0.00     0.011 A 
HETATM   11  C   UNK N   1      26.974  20.454   4.075  0.00  0.00     0.024 A 
HETATM   12  C   UNK N   1      25.920  19.729   3.514  0.00  0.00     0.034 A 
HETATM   13  C   UNK N   1      25.906  18.336   3.604  0.00  0.00     0.024 A 
HETATM   14 Cl   UNK N   1      24.624  20.567   2.687  0.00  0.00    -0.084 Cl
HETATM   15  C   UNK N   1      26.951  17.667   4.249  0.00  0.00     0.011 A 
ENDBRANCH   1   9
BRANCH   1  16
HETATM   16  C   UNK N   1      29.109  17.736   6.980  0.00  0.00    -0.021 A 
HETATM   17  C   UNK N   1      30.177  18.255   7.729  0.00  0.00     0.010 A 
HETATM   18  C   UNK N   1      30.118  18.286   9.126  0.00  0.00     0.001 A 
HETATM   19  C   UNK N   1      28.995  17.788   9.790  0.00  0.00     0.000 A 
HETATM   20  C   UNK N   1      27.926  17.268   9.058  0.00  0.00     0.001 A 
HETATM   21  C   UNK N   1      27.981  17.244   7.661  0.00  0.00     0.010 A 
ENDBRANCH   1  16
TORSDOF 3
ENDMDL
MODEL 6
REMARK VINA RESULT:      -5.8     14.513     16.383
REMARK  3 active torsions:
REMARK  status: ('A' for Active; 'I' for Inactive)
REMARK    1  A    between atoms: C_2  and  N_1 
REMARK    2  A    between atoms: C_4  and  C_2 
REMARK    3  A    between atoms: C_7  and  C_2 
ROOT
HETATM    1  C   UNK N   1      26.174  25.446  -8.064  0.00  0.00     0.289 C 
ENDROOT
BRANCH   1   2
HETATM    2  N   UNK N   1      27.244  24.434  -7.887  0.00  0.00     0.105 N 
HETATM    3  C   UNK N   1      27.185  23.867  -6.533  0.00  0.00     0.304 C 
HETATM    4  C   UNK N   1      28.327  22.868  -6.349  0.00  0.00     0.302 C 
HETATM    5  N   UNK N   1      28.175  21.767  -7.299  0.00  0.00     0.087 N 
HETATM    6  C   UNK N   1      28.147  22.294  -8.663  0.00  0.00     0.302 C 
HETATM    7  C   UNK N   1      29.356  20.933  -7.185  0.00  0.00     0.310 C 
HETATM    8  C   UNK N   1      27.011  23.307  -8.801  0.00  0.00     0.304 C 
ENDBRANCH   1   2
BRANCH   1   9
HETATM    9  C   UNK N   1      26.205  26.555  -7.011  0.00  0.00    -0.021 A 
HETATM   10  C   UNK N   1      25.177  26.631  -6.058  0.00  0.00     0.011 A 
HETATM   11  C   UNK N   1      25.208  27.602  -5.052  0.00  0.00     0.024 A 
HETATM   12  C   UNK N   1      26.272  28.503  -4.983  0.00  0.00     0.034 A 
HETATM   13  C   UNK N   1      27.299  28.445  -5.928  0.00  0.00     0.024 A 
HETATM   14 Cl   UNK N   1      26.327  29.698  -3.704  0.00  0.00    -0.084 Cl
HETATM   15  C   UNK N   1      27.264  27.479  -6.938  0.00  0.00     0.011 A 
ENDBRANCH   1   9
BRANCH   1  16
HETATM   16  C   UNK N   1      26.137  26.039  -9.471  0.00  0.00    -0.021 A 
HETATM   17  C   UNK N   1      24.922  26.083 -10.173  0.00  0.00     0.010 A 
HETATM   18  C   UNK N   1      24.870  26.587 -11.476  0.00  0.00     0.001 A 
HETATM   19  C   UNK N   1      26.035  27.044 -12.096  0.00  0.00     0.000 A 
HETATM   20  C   UNK N   1      27.251  27.006 -11.411  0.00  0.00     0.001 A 
HETATM   21  C   UNK N   1      27.302  26.509 -10.105  0.00  0.00     0.010 A 
ENDBRANCH   1  16
TORSDOF 3
ENDMDL
MODEL 7
REMARK VINA RESULT:      -5.8      7.161      9.254
REMARK  3 active torsions:
REMARK  status: ('A' for Active; 'I' for Inactive)
REMARK    1  A    between atoms: C_2  and  N_1 
REMARK    2  A    between atoms: C_4  and  C_2 
REMARK    3  A    between atoms: C_7  and  C_2 
ROOT
HETATM    1  C   UNK N   1      22.363  16.975   4.284  0.00  0.00     0.289 C 
ENDROOT
BRANCH   1   2
HETATM    2  N   UNK N   1      21.528  16.430   5.383  0.00  0.00     0.105 N 
HETATM    3  C   UNK N   1      22.164  15.236   5.955  0.00  0.00     0.304 C 
HETATM    4  C   UNK N   1      21.265  14.655   7.048  0.00  0.00     0.302 C 
HETATM    5  N   UNK N   1      21.104  15.632   8.123  0.00  0.00     0.087 N 
HETATM    6  C   UNK N   1      20.547  16.872   7.582  0.00  0.00     0.302 C 
HETATM    7  C   UNK N   1      20.130  15.093   9.053  0.00  0.00     0.310 C 
HETATM    8  C   UNK N   1      21.457  17.407   6.477  0.00  0.00     0.304 C 
ENDBRANCH   1   2
BRANCH   1   9
HETATM    9  C   UNK N   1      22.682  15.949   3.195  0.00  0.00    -0.021 A 
HETATM   10  C   UNK N   1      21.653  15.487   2.359  0.00  0.00     0.011 A 
HETATM   11  C   UNK N   1      21.926  14.590   1.322  0.00  0.00     0.024 A 
HETATM   12  C   UNK N   1      23.233  14.150   1.104  0.00  0.00     0.034 A 
HETATM   13  C   UNK N   1      24.266  14.594   1.933  0.00  0.00     0.024 A 
HETATM   14 Cl   UNK N   1      23.579  13.051  -0.214  0.00  0.00    -0.084 Cl
HETATM   15  C   UNK N   1      23.991  15.485   2.974  0.00  0.00     0.011 A 
ENDBRANCH   1   9
BRANCH   1  16
HETATM   16  C   UNK N   1      21.788  18.251   3.671  0.00  0.00    -0.021 A 
HETATM   17  C   UNK N   1      20.423  18.312   3.350  0.00  0.00     0.010 A 
HETATM   18  C   UNK N   1      19.882  19.456   2.755  0.00  0.00     0.001 A 
HETATM   19  C   UNK N   1      20.703  20.548   2.465  0.00  0.00     0.000 A 
HETATM   20  C   UNK N   1      22.063  20.501   2.778  0.00  0.00     0.001 A 
HETATM   21  C   UNK N   1      22.602  19.360   3.380  0.00  0.00     0.010 A 
ENDBRANCH   1  16
TORSDOF 3
ENDMDL
MODEL 8
REMARK VINA RESULT:      -5.8     11.507     13.584
REMARK  3 active torsions:
REMARK  status: ('A' for Active; 'I' for Inactive)
REMARK    1  A    between atoms: C_2  and  N_1 
REMARK    2  A    between atoms: C_4  and  C_2 
REMARK    3  A    between atoms: C_7  and  C_2 
ROOT
HETATM    1  C   UNK N   1      27.266  24.674  -4.483  0.00  0.00     0.289 C 
ENDROOT
BRANCH   1   2
HETATM    2  N   UNK N   1      28.607  24.186  -4.075  0.00  0.00     0.105 N 
HETATM    3  C   UNK N   1      28.530  23.539  -2.759  0.00  0.00     0.304 C 
HETATM    4  C   UNK N   1      29.927  23.093  -2.328  0.00  0.00     0.302 C 
HETATM    5  N   UNK N   1      30.443  22.109  -3.279  0.00  0.00     0.087 N 
HETATM    6  C   UNK N   1      30.462  22.685  -4.623  0.00  0.00     0.302 C 
HETATM    7  C   UNK N   1      31.819  21.834  -2.910  0.00  0.00     0.310 C 
HETATM    8  C   UNK N   1      29.055  23.142  -5.007  0.00  0.00     0.304 C 
ENDBRANCH   1   2
BRANCH   1   9
HETATM    9  C   UNK N   1      27.078  26.178  -4.282  0.00  0.00    -0.021 A 
HETATM   10  C   UNK N   1      25.787  26.726  -4.337  0.00  0.00     0.011 A 
HETATM   11  C   UNK N   1      25.580  28.090  -4.104  0.00  0.00     0.024 A 
HETATM   12  C   UNK N   1      26.663  28.919  -3.806  0.00  0.00     0.034 A 
HETATM   13  C   UNK N   1      27.955  28.391  -3.755  0.00  0.00     0.024 A 
HETATM   14 Cl   UNK N   1      26.399  30.620  -3.483  0.00  0.00    -0.084 Cl
HETATM   15  C   UNK N   1      28.161  27.029  -3.995  0.00  0.00     0.011 A 
ENDBRANCH   1   9
BRANCH   1  16
HETATM   16  C   UNK N   1      26.888  24.268  -5.906  0.00  0.00    -0.021 A 
HETATM   17  C   UNK N   1      27.420  24.979  -6.994  0.00  0.00     0.010 A 
HETATM   18  C   UNK N   1      27.060  24.649  -8.304  0.00  0.00     0.001 A 
HETATM   19  C   UNK N   1      26.156  23.612  -8.541  0.00  0.00     0.000 A 
HETATM   20  C   UNK N   1      25.618  22.897  -7.469  0.00  0.00     0.001 A 
HETATM   21  C   UNK N   1      25.984  23.221  -6.159  0.00  0.00     0.010 A 
ENDBRANCH   1  16
TORSDOF 3
ENDMDL
MODEL 9
REMARK VINA RESULT:      -5.6     12.186     14.409
REMARK  3 active torsions:
REMARK  status: ('A' for Active; 'I' for Inactive)
REMARK    1  A    between atoms: C_2  and  N_1 
REMARK    2  A    between atoms: C_4  and  C_2 
REMARK    3  A    between atoms: C_7  and  C_2 
ROOT
HETATM    1  C   UNK N   1      27.563  24.968  -4.722  0.00  0.00     0.289 C 
ENDROOT
BRANCH   1   2
HETATM    2  N   UNK N   1      28.053  26.272  -5.231  0.00  0.00     0.105 N 
HETATM    3  C   UNK N   1      27.004  26.933  -6.018  0.00  0.00     0.304 C 
HETATM    4  C   UNK N   1      27.543  28.249  -6.582  0.00  0.00     0.302 C 
HETATM    5  N   UNK N   1      27.906  29.142  -5.483  0.00  0.00     0.087 N 
HETATM    6  C   UNK N   1      28.893  28.490  -4.623  0.00  0.00     0.302 C 
HETATM    7  C   UNK N   1      28.546  30.306  -6.067  0.00  0.00     0.310 C 
HETATM    8  C   UNK N   1      28.329  27.169  -4.101  0.00  0.00     0.304 C 
ENDBRANCH   1   2
BRANCH   1   9
HETATM    9  C   UNK N   1      27.095  24.020  -5.827  0.00  0.00    -0.021 A 
HETATM   10  C   UNK N   1      27.991  23.646  -6.841  0.00  0.00     0.011 A 
HETATM   11  C   UNK N   1      27.606  22.739  -7.834  0.00  0.00     0.024 A 
HETATM   12  C   UNK N   1      26.323  22.190  -7.819  0.00  0.00     0.034 A 
HETATM   13  C   UNK N   1      25.417  22.557  -6.821  0.00  0.00     0.024 A 
HETATM   14 Cl   UNK N   1      25.853  21.030  -9.043  0.00  0.00    -0.084 Cl
HETATM   15  C   UNK N   1      25.801  23.470  -5.833  0.00  0.00     0.011 A 
ENDBRANCH   1   9
BRANCH   1  16
HETATM   16  C   UNK N   1      28.562  24.271  -3.799  0.00  0.00    -0.021 A 
HETATM   17  C   UNK N   1      29.929  24.286  -4.120  0.00  0.00     0.010 A 
HETATM   18  C   UNK N   1      30.857  23.623  -3.310  0.00  0.00     0.001 A 
HETATM   19  C   UNK N   1      30.427  22.930  -2.177  0.00  0.00     0.000 A 
HETATM   20  C   UNK N   1      29.071  22.907  -1.846  0.00  0.00     0.001 A 
HETATM   21  C   UNK N   1      28.143  23.575  -2.651  0.00  0.00     0.010 A 
ENDBRANCH   1  16
TORSDOF 3
ENDMDL
