MODEL 1
REMARK VINA RESULT:      -5.2      0.000      0.000
REMARK  6 active torsions:
REMARK  status: ('A' for Active; 'I' for Inactive)
REMARK    1  A    between atoms: C_10  and  C_4 
REMARK    2  A    between atoms: C_10  and  C_7 
REMARK       I    between atoms: C_7  and  N_13 
REMARK    3  A    between atoms: C_9  and  C_11 
REMARK    4  A    between atoms: C_11  and  N_18 
REMARK    5  A    between atoms: N_13  and  C_14 
REMARK    6  A    between atoms: N_13  and  C_15 
ROOT
HETATM    1  C   UNK N   1      26.033  24.356  -4.376  0.00  0.00     0.032 A 
HETATM    2  C   UNK N   1      26.600  24.960  -5.643  0.00  0.00     0.027 A 
HETATM    3  C   UNK N   1      27.164  25.370  -4.271  0.00  0.00     0.073 A 
ENDROOT
BRANCH   3   4
HETATM    4  C   UNK N   1      28.384  24.645  -3.728  0.00  0.00    -0.040 A 
HETATM    5  C   UNK N   1      29.682  24.976  -4.154  0.00  0.00     0.008 A 
HETATM    6  C   UNK N   1      30.790  24.303  -3.629  0.00  0.00     0.001 A 
HETATM    7  C   UNK N   1      30.614  23.298  -2.673  0.00  0.00     0.000 A 
HETATM    8  C   UNK N   1      29.329  22.962  -2.243  0.00  0.00     0.001 A 
HETATM    9  C   UNK N   1      28.223  23.630  -2.768  0.00  0.00     0.008 A 
ENDBRANCH   3   4
BRANCH   3  10
HETATM   10  C   UNK N   1      26.842  26.730  -3.618  0.00  0.00     0.233 C 
HETATM   11  O   UNK N   1      26.051  26.700  -2.681  0.00  0.00    -0.272 OA
HETATM   12  N   UNK N   1      27.319  27.955  -4.025  0.00  0.00    -0.352 N 
BRANCH  12  13
HETATM   13  C   UNK N   1      26.728  29.154  -3.459  0.00  0.00     0.121 C 
HETATM   14  C   UNK N   1      27.659  29.845  -2.484  0.00  0.00     0.026 C 
ENDBRANCH  12  13
BRANCH  12  15
HETATM   15  C   UNK N   1      28.301  28.112  -5.080  0.00  0.00     0.121 C 
HETATM   16  C   UNK N   1      27.759  28.987  -6.202  0.00  0.00     0.026 C 
ENDBRANCH  12  15
ENDBRANCH   3  10
BRANCH   2  17
HETATM   17  C   UNK N   1      25.574  25.928  -6.215  0.00  0.00     0.117 C 
BRANCH  17  18
HETATM   18  N   UNK N   1      25.868  26.196  -7.614  0.00  0.00    -0.430 N 
HETATM   19  H   UNK N   1      25.208  26.200  -8.392  0.00  0.00     0.149 HD
HETATM   20  H   UNK N   1      26.840  26.403  -7.842  0.00  0.00     0.149 HD
ENDBRANCH  17  18
ENDBRANCH   2  17
TORSDOF 6
ENDMDL
MODEL 2
REMARK VINA RESULT:      -5.1     23.099     25.969
REMARK  6 active torsions:
REMARK  status: ('A' for Active; 'I' for Inactive)
REMARK    1  A    between atoms: C_10  and  C_4 
REMARK    2  A    between atoms: C_10  and  C_7 
REMARK       I    between atoms: C_7  and  N_13 
REMARK    3  A    between atoms: C_9  and  C_11 
REMARK    4  A    between atoms: C_11  and  N_18 
REMARK    5  A    between atoms: N_13  and  C_14 
REMARK    6  A    between atoms: N_13  and  C_15 
ROOT
HETATM    1  C   UNK N   1      36.953  13.672  15.099  0.00  0.00     0.032 A 
HETATM    2  C   UNK N   1      35.584  13.573  14.459  0.00  0.00     0.027 A 
HETATM    3  C   UNK N   1      36.119  12.418  15.324  0.00  0.00     0.073 A 
ENDROOT
BRANCH   3   4
HETATM    4  C   UNK N   1      35.752  12.369  16.798  0.00  0.00    -0.040 A 
HETATM    5  C   UNK N   1      35.756  11.158  17.514  0.00  0.00     0.008 A 
HETATM    6  C   UNK N   1      35.427  11.140  18.873  0.00  0.00     0.001 A 
HETATM    7  C   UNK N   1      35.095  12.328  19.531  0.00  0.00     0.000 A 
HETATM    8  C   UNK N   1      35.088  13.536  18.831  0.00  0.00     0.001 A 
HETATM    9  C   UNK N   1      35.414  13.555  17.474  0.00  0.00     0.008 A 
ENDBRANCH   3   4
BRANCH   3  10
HETATM   10  C   UNK N   1      36.637  11.100  14.715  0.00  0.00     0.233 C 
HETATM   11  O   UNK N   1      37.857  10.972  14.673  0.00  0.00    -0.272 OA
HETATM   12  N   UNK N   1      35.861  10.098  14.177  0.00  0.00    -0.352 N 
BRANCH  12  13
HETATM   13  C   UNK N   1      36.514   9.041  13.427  0.00  0.00     0.121 C 
HETATM   14  C   UNK N   1      36.306   7.678  14.058  0.00  0.00     0.026 C 
ENDBRANCH  12  13
BRANCH  12  15
HETATM   15  C   UNK N   1      34.412  10.109  14.220  0.00  0.00     0.121 C 
HETATM   16  C   UNK N   1      33.828  10.273  12.824  0.00  0.00     0.026 C 
ENDBRANCH  12  15
ENDBRANCH   3  10
BRANCH   2  17
HETATM   17  C   UNK N   1      35.767  13.372  12.962  0.00  0.00     0.117 C 
BRANCH  17  18
HETATM   18  N   UNK N   1      36.859  14.203  12.477  0.00  0.00    -0.430 N 
HETATM   19  H   UNK N   1      37.701  13.892  11.993  0.00  0.00     0.149 HD
HETATM   20  H   UNK N   1      36.773  15.206  12.640  0.00  0.00     0.149 HD
ENDBRANCH  17  18
ENDBRANCH   2  17
TORSDOF 6
ENDMDL
MODEL 3
REMARK VINA RESULT:      -5.1      2.445      5.353
REMARK  6 active torsions:
REMARK  status: ('A' for Active; 'I' for Inactive)
REMARK    1  A    between atoms: C_10  and  C_4 
REMARK    2  A    between atoms: C_10  and  C_7 
REMARK       I    between atoms: C_7  and  N_13 
REMARK    3  A    between atoms: C_9  and  C_11 
REMARK    4  A    between atoms: C_11  and  N_18 
REMARK    5  A    between atoms: N_13  and  C_14 
REMARK    6  A    between atoms: N_13  and  C_15 
ROOT
HETATM    1  C   UNK N   1      27.040  26.867  -8.270  0.00  0.00     0.032 A 
HETATM    2  C   UNK N   1      25.913  25.956  -7.830  0.00  0.00     0.027 A 
HETATM    3  C   UNK N   1      27.040  26.323  -6.848  0.00  0.00     0.073 A 
ENDROOT
BRANCH   3   4
HETATM    4  C   UNK N   1      26.844  27.499  -5.905  0.00  0.00    -0.040 A 
HETATM    5  C   UNK N   1      25.907  27.448  -4.857  0.00  0.00     0.008 A 
HETATM    6  C   UNK N   1      25.755  28.538  -3.994  0.00  0.00     0.001 A 
HETATM    7  C   UNK N   1      26.535  29.685  -4.166  0.00  0.00     0.000 A 
HETATM    8  C   UNK N   1      27.468  29.746  -5.203  0.00  0.00     0.001 A 
HETATM    9  C   UNK N   1      27.619  28.660  -6.066  0.00  0.00     0.008 A 
ENDBRANCH   3   4
BRANCH   3  10
HETATM   10  C   UNK N   1      28.159  25.332  -6.465  0.00  0.00     0.233 C 
HETATM   11  O   UNK N   1      29.244  25.515  -7.008  0.00  0.00    -0.272 OA
HETATM   12  N   UNK N   1      28.029  24.252  -5.622  0.00  0.00    -0.352 N 
BRANCH  12  13
HETATM   13  C   UNK N   1      29.108  23.283  -5.563  0.00  0.00     0.121 C 
HETATM   14  C   UNK N   1      28.870  22.104  -6.485  0.00  0.00     0.026 C 
ENDBRANCH  12  13
BRANCH  12  15
HETATM   15  C   UNK N   1      26.816  23.968  -4.881  0.00  0.00     0.121 C 
HETATM   16  C   UNK N   1      27.006  24.252  -3.397  0.00  0.00     0.026 C 
ENDBRANCH  12  15
ENDBRANCH   3  10
BRANCH   2  17
HETATM   17  C   UNK N   1      26.091  24.608  -8.513  0.00  0.00     0.117 C 
BRANCH  17  18
HETATM   18  N   UNK N   1      25.053  23.687  -8.077  0.00  0.00    -0.430 N 
HETATM   19  H   UNK N   1      24.914  22.725  -8.386  0.00  0.00     0.149 HD
HETATM   20  H   UNK N   1      24.391  24.043  -7.388  0.00  0.00     0.149 HD
ENDBRANCH  17  18
ENDBRANCH   2  17
TORSDOF 6
ENDMDL
MODEL 4
REMARK VINA RESULT:      -5.1      2.269      5.032
REMARK  6 active torsions:
REMARK  status: ('A' for Active; 'I' for Inactive)
REMARK    1  A    between atoms: C_10  and  C_4 
REMARK    2  A    between atoms: C_10  and  C_7 
REMARK       I    between atoms: C_7  and  N_13 
REMARK    3  A    between atoms: C_9  and  C_11 
REMARK    4  A    between atoms: C_11  and  N_18 
REMARK    5  A    between atoms: N_13  and  C_14 
REMARK    6  A    between atoms: N_13  and  C_15 
ROOT
HETATM    1  C   UNK N   1      24.730  27.072  -5.724  0.00  0.00     0.032 A 
HETATM    2  C   UNK N   1      25.801  27.977  -5.154  0.00  0.00     0.027 A 
HETATM    3  C   UNK N   1      26.188  26.645  -5.819  0.00  0.00     0.073 A 
ENDROOT
BRANCH   3   4
HETATM    4  C   UNK N   1      26.571  26.638  -7.289  0.00  0.00    -0.040 A 
HETATM    5  C   UNK N   1      27.715  27.312  -7.752  0.00  0.00     0.008 A 
HETATM    6  C   UNK N   1      28.053  27.279  -9.108  0.00  0.00     0.001 A 
HETATM    7  C   UNK N   1      27.258  26.572 -10.014  0.00  0.00     0.000 A 
HETATM    8  C   UNK N   1      26.120  25.899  -9.566  0.00  0.00     0.001 A 
HETATM    9  C   UNK N   1      25.779  25.933  -8.214  0.00  0.00     0.008 A 
ENDBRANCH   3   4
BRANCH   3  10
HETATM   10  C   UNK N   1      26.623  25.409  -5.004  0.00  0.00     0.233 C 
HETATM   11  O   UNK N   1      25.728  24.627  -4.699  0.00  0.00    -0.272 OA
HETATM   12  N   UNK N   1      27.896  25.144  -4.555  0.00  0.00    -0.352 N 
BRANCH  12  13
HETATM   13  C   UNK N   1      28.086  24.070  -3.598  0.00  0.00     0.121 C 
HETATM   14  C   UNK N   1      29.411  23.359  -3.791  0.00  0.00     0.026 C 
ENDBRANCH  12  13
BRANCH  12  15
HETATM   15  C   UNK N   1      29.043  25.962  -4.899  0.00  0.00     0.121 C 
HETATM   16  C   UNK N   1      29.260  27.057  -3.864  0.00  0.00     0.026 C 
ENDBRANCH  12  15
ENDBRANCH   3  10
BRANCH   2  17
HETATM   17  C   UNK N   1      25.720  27.920  -3.635  0.00  0.00     0.117 C 
BRANCH  17  18
HETATM   18  N   UNK N   1      26.348  29.099  -3.058  0.00  0.00    -0.430 N 
HETATM   19  H   UNK N   1      26.976  29.753  -3.526  0.00  0.00     0.149 HD
HETATM   20  H   UNK N   1      26.138  29.291  -2.079  0.00  0.00     0.149 HD
ENDBRANCH  17  18
ENDBRANCH   2  17
TORSDOF 6
ENDMDL
MODEL 5
REMARK VINA RESULT:      -5.0     24.247     26.613
REMARK  6 active torsions:
REMARK  status: ('A' for Active; 'I' for Inactive)
REMARK    1  A    between atoms: C_10  and  C_4 
REMARK    2  A    between atoms: C_10  and  C_7 
REMARK       I    between atoms: C_7  and  N_13 
REMARK    3  A    between atoms: C_9  and  C_11 
REMARK    4  A    between atoms: C_11  and  N_18 
REMARK    5  A    between atoms: N_13  and  C_14 
REMARK    6  A    between atoms: N_13  and  C_15 
ROOT
HETATM    1  C   UNK N   1      34.639  12.196  14.358  0.00  0.00     0.032 A 
HETATM    2  C   UNK N   1      34.152  10.778  14.566  0.00  0.00     0.027 A 
HETATM    3  C   UNK N   1      35.455  11.255  15.233  0.00  0.00     0.073 A 
ENDROOT
BRANCH   3   4
HETATM    4  C   UNK N   1      35.404  11.789  16.655  0.00  0.00    -0.040 A 
HETATM    5  C   UNK N   1      35.216  13.158  16.917  0.00  0.00     0.008 A 
HETATM    6  C   UNK N   1      35.158  13.622  18.235  0.00  0.00     0.001 A 
HETATM    7  C   UNK N   1      35.285  12.727  19.302  0.00  0.00     0.000 A 
HETATM    8  C   UNK N   1      35.472  11.367  19.053  0.00  0.00     0.001 A 
HETATM    9  C   UNK N   1      35.531  10.902  17.739  0.00  0.00     0.008 A 
ENDBRANCH   3   4
BRANCH   3  10
HETATM   10  C   UNK N   1      36.848  10.835  14.721  0.00  0.00     0.233 C 
HETATM   11  O   UNK N   1      37.463  11.684  14.085  0.00  0.00    -0.272 OA
HETATM   12  N   UNK N   1      37.424   9.594  14.872  0.00  0.00    -0.352 N 
BRANCH  12  13
HETATM   13  C   UNK N   1      38.629   9.292  14.121  0.00  0.00     0.121 C 
HETATM   14  C   UNK N   1      39.796   8.950  15.026  0.00  0.00     0.026 C 
ENDBRANCH  12  13
BRANCH  12  15
HETATM   15  C   UNK N   1      36.821   8.530  15.650  0.00  0.00     0.121 C 
HETATM   16  C   UNK N   1      36.384   7.380  14.754  0.00  0.00     0.026 C 
ENDBRANCH  12  15
ENDBRANCH   3  10
BRANCH   2  17
HETATM   17  C   UNK N   1      34.357  10.004  13.272  0.00  0.00     0.117 C 
BRANCH  17  18
HETATM   18  N   UNK N   1      33.724  10.707  12.166  0.00  0.00    -0.430 N 
HETATM   19  H   UNK N   1      34.085  10.814  11.218  0.00  0.00     0.149 HD
HETATM   20  H   UNK N   1      32.822  11.139  12.361  0.00  0.00     0.149 HD
ENDBRANCH  17  18
ENDBRANCH   2  17
TORSDOF 6
ENDMDL
MODEL 6
REMARK VINA RESULT:      -5.0     11.532     14.447
REMARK  6 active torsions:
REMARK  status: ('A' for Active; 'I' for Inactive)
REMARK    1  A    between atoms: C_10  and  C_4 
REMARK    2  A    between atoms: C_10  and  C_7 
REMARK       I    between atoms: C_7  and  N_13 
REMARK    3  A    between atoms: C_9  and  C_11 
REMARK    4  A    between atoms: C_11  and  N_18 
REMARK    5  A    between atoms: N_13  and  C_14 
REMARK    6  A    between atoms: N_13  and  C_15 
ROOT
HETATM    1  C   UNK N   1      28.243  17.562   8.352  0.00  0.00     0.032 A 
HETATM    2  C   UNK N   1      29.664  18.085   8.345  0.00  0.00     0.027 A 
HETATM    3  C   UNK N   1      28.952  17.762   7.020  0.00  0.00     0.073 A 
ENDROOT
BRANCH   3   4
HETATM    4  C   UNK N   1      28.233  18.875   6.278  0.00  0.00    -0.040 A 
HETATM    5  C   UNK N   1      28.180  18.904   4.872  0.00  0.00     0.008 A 
HETATM    6  C   UNK N   1      27.500  19.932   4.212  0.00  0.00     0.001 A 
HETATM    7  C   UNK N   1      26.864  20.938   4.946  0.00  0.00     0.000 A 
HETATM    8  C   UNK N   1      26.910  20.920   6.341  0.00  0.00     0.001 A 
HETATM    9  C   UNK N   1      27.591  19.896   7.001  0.00  0.00     0.008 A 
ENDBRANCH   3   4
BRANCH   3  10
HETATM   10  C   UNK N   1      29.279  16.502   6.192  0.00  0.00     0.233 C 
HETATM   11  O   UNK N   1      28.405  15.641   6.159  0.00  0.00    -0.272 OA
HETATM   12  N   UNK N   1      30.465  16.246   5.543  0.00  0.00    -0.352 N 
BRANCH  12  13
HETATM   13  C   UNK N   1      30.697  14.913   5.018  0.00  0.00     0.121 C 
HETATM   14  C   UNK N   1      31.806  14.191   5.759  0.00  0.00     0.026 C 
ENDBRANCH  12  13
BRANCH  12  15
HETATM   15  C   UNK N   1      31.547  17.208   5.462  0.00  0.00     0.121 C 
HETATM   16  C   UNK N   1      31.849  17.568   4.014  0.00  0.00     0.026 C 
ENDBRANCH  12  15
ENDBRANCH   3  10
BRANCH   2  17
HETATM   17  C   UNK N   1      30.584  16.982   8.849  0.00  0.00     0.117 C 
BRANCH  17  18
HETATM   18  N   UNK N   1      31.924  17.509   9.060  0.00  0.00    -0.430 N 
HETATM   19  H   UNK N   1      32.342  17.788   9.948  0.00  0.00     0.149 HD
HETATM   20  H   UNK N   1      32.507  17.611   8.230  0.00  0.00     0.149 HD
ENDBRANCH  17  18
ENDBRANCH   2  17
TORSDOF 6
ENDMDL
MODEL 7
REMARK VINA RESULT:      -5.0     21.525     24.469
REMARK  6 active torsions:
REMARK  status: ('A' for Active; 'I' for Inactive)
REMARK    1  A    between atoms: C_10  and  C_4 
REMARK    2  A    between atoms: C_10  and  C_7 
REMARK       I    between atoms: C_7  and  N_13 
REMARK    3  A    between atoms: C_9  and  C_11 
REMARK    4  A    between atoms: C_11  and  N_18 
REMARK    5  A    between atoms: N_13  and  C_14 
REMARK    6  A    between atoms: N_13  and  C_15 
ROOT
HETATM    1  C   UNK N   1      36.200  11.069  15.507  0.00  0.00     0.032 A 
HETATM    2  C   UNK N   1      37.436  11.389  14.694  0.00  0.00     0.027 A 
HETATM    3  C   UNK N   1      36.271  12.392  14.756  0.00  0.00     0.073 A 
ENDROOT
BRANCH   3   4
HETATM    4  C   UNK N   1      36.310  13.506  15.789  0.00  0.00    -0.040 A 
HETATM    5  C   UNK N   1      35.516  13.457  16.949  0.00  0.00     0.008 A 
HETATM    6  C   UNK N   1      35.581  14.489  17.892  0.00  0.00     0.001 A 
HETATM    7  C   UNK N   1      36.438  15.574  17.688  0.00  0.00     0.000 A 
HETATM    8  C   UNK N   1      37.230  15.632  16.540  0.00  0.00     0.001 A 
HETATM    9  C   UNK N   1      37.165  14.606  15.598  0.00  0.00     0.008 A 
ENDBRANCH   3   4
BRANCH   3  10
HETATM   10  C   UNK N   1      35.292  12.597  13.582  0.00  0.00     0.233 C 
HETATM   11  O   UNK N   1      34.179  12.098  13.718  0.00  0.00    -0.272 OA
HETATM   12  N   UNK N   1      35.575  13.235  12.396  0.00  0.00    -0.352 N 
BRANCH  12  13
HETATM   13  C   UNK N   1      34.625  13.125  11.304  0.00  0.00     0.121 C 
HETATM   14  C   UNK N   1      34.236  14.480  10.747  0.00  0.00     0.026 C 
ENDBRANCH  12  13
BRANCH  12  15
HETATM   15  C   UNK N   1      36.832  13.911  12.141  0.00  0.00     0.121 C 
HETATM   16  C   UNK N   1      37.646  13.168  11.090  0.00  0.00     0.026 C 
ENDBRANCH  12  15
ENDBRANCH   3  10
BRANCH   2  17
HETATM   17  C   UNK N   1      37.438  10.505  13.454  0.00  0.00     0.117 C 
BRANCH  17  18
HETATM   18  N   UNK N   1      37.667   9.119  13.831  0.00  0.00    -0.430 N 
HETATM   19  H   UNK N   1      37.164   8.298  13.494  0.00  0.00     0.149 HD
HETATM   20  H   UNK N   1      38.411   8.950  14.507  0.00  0.00     0.149 HD
ENDBRANCH  17  18
ENDBRANCH   2  17
TORSDOF 6
ENDMDL
MODEL 8
REMARK VINA RESULT:      -4.9      1.792      4.547
REMARK  6 active torsions:
REMARK  status: ('A' for Active; 'I' for Inactive)
REMARK    1  A    between atoms: C_10  and  C_4 
REMARK    2  A    between atoms: C_10  and  C_7 
REMARK       I    between atoms: C_7  and  N_13 
REMARK    3  A    between atoms: C_9  and  C_11 
REMARK    4  A    between atoms: C_11  and  N_18 
REMARK    5  A    between atoms: N_13  and  C_14 
REMARK    6  A    between atoms: N_13  and  C_15 
ROOT
HETATM    1  C   UNK N   1      27.347  24.915  -6.440  0.00  0.00     0.032 A 
HETATM    2  C   UNK N   1      25.887  24.586  -6.208  0.00  0.00     0.027 A 
HETATM    3  C   UNK N   1      26.735  25.187  -5.073  0.00  0.00     0.073 A 
ENDROOT
BRANCH   3   4
HETATM    4  C   UNK N   1      26.727  26.692  -4.864  0.00  0.00    -0.040 A 
HETATM    5  C   UNK N   1      27.355  27.562  -5.774  0.00  0.00     0.008 A 
HETATM    6  C   UNK N   1      27.322  28.945  -5.566  0.00  0.00     0.001 A 
HETATM    7  C   UNK N   1      26.660  29.473  -4.454  0.00  0.00     0.000 A 
HETATM    8  C   UNK N   1      26.033  28.619  -3.545  0.00  0.00     0.001 A 
HETATM    9  C   UNK N   1      26.067  27.239  -3.749  0.00  0.00     0.008 A 
ENDBRANCH   3   4
BRANCH   3  10
HETATM   10  C   UNK N   1      27.244  24.345  -3.885  0.00  0.00     0.233 C 
HETATM   11  O   UNK N   1      26.381  23.917  -3.125  0.00  0.00    -0.272 OA
HETATM   12  N   UNK N   1      28.561  24.084  -3.584  0.00  0.00    -0.352 N 
BRANCH  12  13
HETATM   13  C   UNK N   1      28.875  23.485  -2.300  0.00  0.00     0.121 C 
HETATM   14  C   UNK N   1      30.202  22.752  -2.320  0.00  0.00     0.026 C 
ENDBRANCH  12  13
BRANCH  12  15
HETATM   15  C   UNK N   1      29.662  24.487  -4.436  0.00  0.00     0.121 C 
HETATM   16  C   UNK N   1      30.198  25.851  -4.025  0.00  0.00     0.026 C 
ENDBRANCH  12  15
ENDBRANCH   3  10
BRANCH   2  17
HETATM   17  C   UNK N   1      25.740  23.072  -6.146  0.00  0.00     0.117 C 
BRANCH  17  18
HETATM   18  N   UNK N   1      24.979  22.598  -7.292  0.00  0.00    -0.430 N 
HETATM   19  H   UNK N   1      24.065  22.929  -7.603  0.00  0.00     0.149 HD
HETATM   20  H   UNK N   1      25.405  21.854  -7.843  0.00  0.00     0.149 HD
ENDBRANCH  17  18
ENDBRANCH   2  17
TORSDOF 6
ENDMDL
MODEL 9
REMARK VINA RESULT:      -4.6     13.908     17.232
REMARK  6 active torsions:
REMARK  status: ('A' for Active; 'I' for Inactive)
REMARK    1  A    between atoms: C_10  and  C_4 
REMARK    2  A    between atoms: C_10  and  C_7 
REMARK       I    between atoms: C_7  and  N_13 
REMARK    3  A    between atoms: C_9  and  C_11 
REMARK    4  A    between atoms: C_11  and  N_18 
REMARK    5  A    between atoms: N_13  and  C_14 
REMARK    6  A    between atoms: N_13  and  C_15 
ROOT
HETATM    1  C   UNK N   1      32.207  16.540   8.830  0.00  0.00     0.032 A 
HETATM    2  C   UNK N   1      33.674  16.914   8.784  0.00  0.00     0.027 A 
HETATM    3  C   UNK N   1      33.073  16.000   7.701  0.00  0.00     0.073 A 
ENDROOT
BRANCH   3   4
HETATM    4  C   UNK N   1      32.577  16.619   6.405  0.00  0.00    -0.040 A 
HETATM    5  C   UNK N   1      33.473  17.075   5.421  0.00  0.00     0.008 A 
HETATM    6  C   UNK N   1      32.992  17.629   4.230  0.00  0.00     0.001 A 
HETATM    7  C   UNK N   1      31.616  17.730   4.008  0.00  0.00     0.000 A 
HETATM    8  C   UNK N   1      30.717  17.280   4.977  0.00  0.00     0.001 A 
HETATM    9  C   UNK N   1      31.195  16.730   6.167  0.00  0.00     0.008 A 
ENDBRANCH   3   4
BRANCH   3  10
HETATM   10  C   UNK N   1      33.330  14.479   7.666  0.00  0.00     0.233 C 
HETATM   11  O   UNK N   1      32.396  13.770   8.024  0.00  0.00    -0.272 OA
HETATM   12  N   UNK N   1      34.514  13.868   7.322  0.00  0.00    -0.352 N 
BRANCH  12  13
HETATM   13  C   UNK N   1      34.662  12.447   7.578  0.00  0.00     0.121 C 
HETATM   14  C   UNK N   1      35.470  12.172   8.830  0.00  0.00     0.026 C 
ENDBRANCH  12  13
BRANCH  12  15
HETATM   15  C   UNK N   1      35.667  14.595   6.829  0.00  0.00     0.121 C 
HETATM   16  C   UNK N   1      35.923  14.278   5.362  0.00  0.00     0.026 C 
ENDBRANCH  12  15
ENDBRANCH   3  10
BRANCH   2  17
HETATM   17  C   UNK N   1      34.394  16.173   9.901  0.00  0.00     0.117 C 
BRANCH  17  18
HETATM   18  N   UNK N   1      35.120  17.116  10.738  0.00  0.00    -0.430 N 
HETATM   19  H   UNK N   1      35.237  17.076  11.750  0.00  0.00     0.149 HD
HETATM   20  H   UNK N   1      35.558  17.902  10.259  0.00  0.00     0.149 HD
ENDBRANCH  17  18
ENDBRANCH   2  17
TORSDOF 6
ENDMDL
