REMARK  4 active torsions:
REMARK  status: ('A' for Active; 'I' for Inactive)
REMARK    1  A    between atoms: C_1  and  C_2 
REMARK    2  A    between atoms: C_2  and  C_5 
REMARK    3  A    between atoms: C_5  and  N_9 
REMARK    4  A    between atoms: C_12  and  C_13 
ROOT
HETATM    1  C   UNK N   1      13.333  -9.551   0.353  0.00  0.00     0.081 C 
HETATM    2  C   UNK N   1      13.261 -11.061   0.553  0.00  0.00     0.032 C 
ENDROOT
BRANCH   1   3
HETATM    3  C   UNK N   1      14.418  -9.178  -0.660  0.00  0.00     0.063 C 
BRANCH   3   4
HETATM    4  C   UNK N   1      15.808  -9.599  -0.283  0.00  0.00    -0.056 A 
HETATM    5  C   UNK N   1      16.153 -10.957  -0.237  0.00  0.00     0.007 A 
HETATM    6  C   UNK N   1      17.461 -11.343   0.065  0.00  0.00     0.001 A 
HETATM    7  C   UNK N   1      18.435 -10.372   0.312  0.00  0.00     0.000 A 
HETATM    8  C   UNK N   1      18.099  -9.016   0.257  0.00  0.00     0.001 A 
HETATM    9  C   UNK N   1      16.788  -8.629  -0.044  0.00  0.00     0.007 A 
ENDBRANCH   3   4
ENDBRANCH   1   3
BRANCH   1  10
HETATM   10  N   UNK N   1      12.063  -9.085  -0.149  0.00  0.00    -0.394 N 
HETATM   11  C   UNK N   1      11.000  -9.147   0.567  0.00  0.00     0.114 C 
ATOM     12  HN  UNK N   1      12.009  -8.699  -1.091  1.00  0.00     0.159 HD
BRANCH  11  13
HETATM   13  C   UNK N   1       9.671  -8.757  -0.002  0.00  0.00     0.220 C 
HETATM   14 Cl   UNK N   1       8.429  -8.912   1.260  0.00  0.00    -0.078 Cl
HETATM   15 Cl   UNK N   1       9.705  -7.073  -0.583  0.00  0.00    -0.078 Cl
HETATM   16 Cl   UNK N   1       9.256  -9.841  -1.353  0.00  0.00    -0.078 Cl
ENDBRANCH  11  13
ENDBRANCH   1  10
TORSDOF 4
