REMARK  7 active torsions:
REMARK  status: ('A' for Active; 'I' for Inactive)
REMARK    1  A    between atoms: C_14  and  C_3 
REMARK    2  A    between atoms: C_3  and  C_18 
REMARK    3  A    between atoms: C_5  and  N_22 
REMARK    4  A    between atoms: C_8  and  C_17 
REMARK    5  A    between atoms: N_22  and  S_23 
REMARK    6  A    between atoms: C_26  and  S_23 
REMARK    7  A    between atoms: C_26  and  C_27 
ROOT
HETATM    1  C   UNK N   1      11.440 -13.215  -0.187  0.00  0.00     0.106 A 
HETATM    2  C   UNK N   1       7.018 -12.398   0.091  0.00  0.00    -0.009 A 
HETATM    3  C   UNK N   1       7.019 -13.803  -0.138  0.00  0.00     0.102 A 
HETATM    4  N   UNK N   1       8.206 -14.487  -0.247  0.00  0.00    -0.351 N 
ATOM      5  HN  UNK N   1       8.213 -15.495  -0.402  1.00  0.00     0.166 HD
HETATM    6  C   UNK N   1       8.241 -11.734   0.210  0.00  0.00     0.030 A 
HETATM    7  N   UNK N   1      10.610 -14.286  -0.302  0.00  0.00    -0.351 N 
HETATM    8  C   UNK N   1      10.699 -12.056   0.071  0.00  0.00     0.044 A 
HETATM    9  C   UNK N   1       9.397 -12.463   0.080  0.00  0.00     0.024 A 
HETATM   10  C   UNK N   1       9.370 -13.795  -0.146  0.00  0.00     0.116 A 
HETATM   11  H   UNK N   1      10.864 -15.223  -0.466  0.00  0.00     0.166 HD
ENDROOT
BRANCH   8  12
HETATM   12  C   UNK N   1      11.108 -10.618   0.190  0.00  0.00     0.200 C 
HETATM   13  O   UNK N   1      10.223  -9.800   0.400  0.00  0.00    -0.286 OA
BRANCH  12  14
HETATM   14  C   UNK N   1      12.487 -10.095  -0.056  0.00  0.00     0.094 A 
HETATM   15  C   UNK N   1      13.649 -10.876   0.139  0.00  0.00     0.160 A 
HETATM   16  C   UNK N   1      14.923 -10.332  -0.135  0.00  0.00     0.082 A 
HETATM   17  F   UNK N   1      13.540 -12.116   0.638  0.00  0.00    -0.203 F 
HETATM   18  C   UNK N   1      15.020  -9.021  -0.599  0.00  0.00     0.036 A 
HETATM   19  C   UNK N   1      13.890  -8.241  -0.783  0.00  0.00     0.046 A 
HETATM   20  C   UNK N   1      12.632  -8.760  -0.508  0.00  0.00     0.133 A 
HETATM   21  F   UNK N   1      11.552  -7.966  -0.722  0.00  0.00    -0.205 F 
BRANCH  16  22
HETATM   22  N   UNK N   1      16.153 -11.037   0.040  0.00  0.00    -0.281 N 
HETATM   23  H   UNK N   1      16.941 -10.453  -0.044  0.00  0.00     0.178 HD
BRANCH  22  24
HETATM   24  S   UNK N   1      16.586 -12.727   0.374  0.00  0.00     0.231 S 
HETATM   25  O   UNK N   1      15.647 -12.915  -0.831  0.00  0.00    -0.206 OA
HETATM   26  O   UNK N   1      15.658 -12.648   1.591  0.00  0.00    -0.206 OA
BRANCH  24  27
HETATM   27  C   UNK N   1      17.901 -11.493   0.536  0.00  0.00     0.163 C 
BRANCH  27  28
HETATM   28  C   UNK N   1      19.139 -11.851  -0.241  0.00  0.00     0.012 C 
HETATM   29  C   UNK N   1      20.105 -10.694  -0.103  0.00  0.00     0.006 C 
ENDBRANCH  27  28
ENDBRANCH  24  27
ENDBRANCH  22  24
ENDBRANCH  16  22
ENDBRANCH  12  14
ENDBRANCH   8  12
BRANCH   2  30
HETATM   30  C   UNK N   1       5.786 -11.587   0.126  0.00  0.00    -0.025 A 
HETATM   31  C   UNK N   1       5.886 -10.197   0.320  0.00  0.00     0.014 A 
HETATM   32  C   UNK N   1       4.754  -9.391   0.297  0.00  0.00     0.024 A 
HETATM   33  C   UNK N   1       3.503  -9.962   0.075  0.00  0.00     0.034 A 
HETATM   34  C   UNK N   1       3.386 -11.344  -0.116  0.00  0.00     0.024 A 
HETATM   35 Cl   UNK N   1       2.087  -8.938   0.026  0.00  0.00    -0.084 Cl
HETATM   36  C   UNK N   1       4.525 -12.157  -0.092  0.00  0.00     0.014 A 
ENDBRANCH   2  30
TORSDOF 7
