REMARK  12 active torsions:
REMARK  status: ('A' for Active; 'I' for Inactive)
REMARK    1  A    between atoms: P_1  and  O_4 
REMARK    2  A    between atoms: P_1  and  O_2 
REMARK    3  A    between atoms: P_1  and  N_34 
REMARK    4  A    between atoms: O_2  and  C_28 
REMARK    5  A    between atoms: O_4  and  C_5 
REMARK    6  A    between atoms: C_7  and  C_5 
REMARK    7  A    between atoms: C_8  and  O_35 
REMARK    8  A    between atoms: C_10  and  N_15 
REMARK    9  A    between atoms: C_20  and  C_21 
REMARK   10  A    between atoms: N_34  and  C_20 
REMARK   11  A    between atoms: C_21  and  O_24 
REMARK   12  A    between atoms: O_24  and  C_25 
ROOT
HETATM    1  O   UNK N   1      -0.399   0.701  -0.976  0.00  0.00    -0.295 OA
ENDROOT
BRANCH   1   2
HETATM    2  P   UNK N   1      -1.617  -0.514  -0.711  0.00  0.00     0.436 P 
HETATM    3  O   UNK N   1      -1.637  -0.195  -2.230  0.00  0.00    -0.234 OA
BRANCH   2   4
HETATM    4  O   UNK N   1      -3.278  -0.470  -1.140  0.00  0.00    -0.256 OA
BRANCH   4   5
HETATM    5  C   UNK N   1      -4.159  -1.424  -0.783  0.00  0.00     0.080 A 
HETATM    6  C   UNK N   1      -5.521  -1.146  -0.899  0.00  0.00     0.037 A 
HETATM    7  C   UNK N   1      -6.469  -2.077  -0.476  0.00  0.00     0.003 A 
HETATM    8  C   UNK N   1      -6.055  -3.301   0.055  0.00  0.00     0.000 A 
HETATM    9  C   UNK N   1      -4.693  -3.596   0.159  0.00  0.00     0.003 A 
HETATM   10  C   UNK N   1      -3.744  -2.657  -0.253  0.00  0.00     0.037 A 
ENDBRANCH   4   5
ENDBRANCH   2   4
BRANCH   2  11
HETATM   11  N   UNK N   1      -2.278   0.920   0.237  0.00  0.00    -0.314 N 
HETATM   12  H   UNK N   1      -2.164   0.964   1.250  0.00  0.00     0.166 HD
BRANCH  11  13
HETATM   13  C   UNK N   1      -2.971   2.002  -0.484  0.00  0.00     0.183 C 
HETATM   14  C   UNK N   1      -1.998   2.920  -1.204  0.00  0.00     0.043 C 
BRANCH  13  15
HETATM   15  C   UNK N   1      -3.742   2.804   0.530  0.00  0.00     0.281 C 
HETATM   16  O   UNK N   1      -3.150   3.300   1.476  0.00  0.00    -0.263 OA
BRANCH  15  17
HETATM   17  O   UNK N   1      -5.080   2.992   0.422  0.00  0.00    -0.315 OA
BRANCH  17  18
HETATM   18  C   UNK N   1      -5.821   2.538  -0.643  0.00  0.00     0.123 C 
HETATM   19  C   UNK N   1      -6.413   3.726  -1.372  0.00  0.00     0.040 C 
HETATM   20  C   UNK N   1      -6.946   1.660  -0.136  0.00  0.00     0.040 C 
ENDBRANCH  17  18
ENDBRANCH  15  17
ENDBRANCH  13  15
ENDBRANCH  11  13
ENDBRANCH   2  11
ENDBRANCH   1   2
BRANCH   1  21
HETATM   21  C   UNK N   1       0.398   0.720   0.176  0.00  0.00     0.214 C 
BRANCH  21  22
HETATM   22  C   UNK N   1       1.606  -0.174   0.043  0.00  0.00     0.180 C 
HETATM   23  O   UNK N   1       2.238  -0.230  -1.201  0.00  0.00    -0.353 OA
HETATM   24  C   UNK N   1       3.455  -0.831  -0.831  0.00  0.00     0.274 C 
HETATM   25  C   UNK N   1       3.039  -1.979   0.136  0.00  0.00     0.172 C 
HETATM   26  F   UNK N   1       2.814  -3.115  -0.628  0.00  0.00    -0.236 F 
HETATM   27  C   UNK N   1       4.032  -2.323   1.231  0.00  0.00     0.059 C 
HETATM   28  C   UNK N   1       1.729  -1.495   0.748  0.00  0.00     0.193 C 
BRANCH  24  29
HETATM   29  N   UNK N   1       4.391   0.185  -0.278  0.00  0.00    -0.279 N 
HETATM   30  C   UNK N   1       3.949   1.462  -0.042  0.00  0.00     0.104 A 
HETATM   31  C   UNK N   1       4.802   2.447   0.433  0.00  0.00     0.092 A 
HETATM   32  C   UNK N   1       6.132   2.127   0.653  0.00  0.00     0.250 A 
HETATM   33  O   UNK N   1       6.902   2.975   1.062  0.00  0.00    -0.268 OA
HETATM   34  N   UNK N   1       6.578   0.858   0.397  0.00  0.00    -0.275 N 
HETATM   35  C   UNK N   1       5.725  -0.107  -0.068  0.00  0.00     0.331 A 
HETATM   36  H   UNK N   1       7.525   0.636   0.550  0.00  0.00     0.173 HD
HETATM   37  O   UNK N   1       6.161  -1.220  -0.318  0.00  0.00    -0.246 OA
ENDBRANCH  24  29
BRANCH  28  38
HETATM   38  O   UNK N   1       0.669  -2.336   0.392  0.00  0.00    -0.389 OA
HETATM   39  H   UNK N   1      -0.203  -1.991   0.146  0.00  0.00     0.210 HD
ENDBRANCH  28  38
ENDBRANCH  21  22
ENDBRANCH   1  21
TORSDOF 12
