MODEL 1
REMARK VINA RESULT:      -6.0      0.000      0.000
REMARK  19 active torsions:
REMARK  status: ('A' for Active; 'I' for Inactive)
REMARK    1  A    between atoms: C_2  and  C_1 
REMARK    2  A    between atoms: C_3  and  C_1 
REMARK    3  A    between atoms: C_4  and  C_2 
REMARK    4  A    between atoms: C_9  and  C_3 
REMARK    5  A    between atoms: C_10  and  C_4 
REMARK    6  A    between atoms: N_23  and  C_9 
REMARK    7  A    between atoms: N_24  and  C_10 
REMARK    8  A    between atoms: C_21  and  C_13 
REMARK    9  A    between atoms: N_23  and  C_13 
REMARK   10  A    between atoms: C_22  and  C_14 
REMARK   11  A    between atoms: N_24  and  C_14 
REMARK   12  A    between atoms: C_21  and  C_15 
REMARK   13  A    between atoms: C_22  and  C_16 
REMARK   14  A    between atoms: O_25  and  C_17 
REMARK   15  A    between atoms: O_26  and  C_18 
REMARK   16  A    between atoms: O_27  and  C_19 
REMARK   17  A    between atoms: O_28  and  C_20 
REMARK   18  A    between atoms: O_29  and  C_21 
REMARK   19  A    between atoms: O_30  and  C_22 
ROOT
HETATM    1  C   UNK N   1      27.838  27.274  -8.250  0.00  0.00     0.002 C 
ENDROOT
BRANCH   1   2
HETATM    2  C   UNK N   1      28.519  27.756  -6.977  0.00  0.00     0.002 C 
BRANCH   2   3
HETATM    3  C   UNK N   1      28.203  29.218  -6.718  0.00  0.00     0.019 C 
BRANCH   3   4
HETATM    4  C   UNK N   1      29.151  29.776  -5.673  0.00  0.00     0.113 C 
BRANCH   4   5
HETATM    5  N   UNK N   1      28.595  29.598  -4.340  0.00  0.00    -0.418 N 
HETATM    6  H   UNK N   1      29.094  29.245  -3.524  0.00  0.00     0.153 HD
BRANCH   5   7
HETATM    7  C   UNK N   1      27.204  30.012  -4.382  0.00  0.00     0.150 C 
BRANCH   7   8
HETATM    8  C   UNK N   1      26.387  29.155  -3.428  0.00  0.00     0.168 C 
BRANCH   8   9
HETATM    9  C   UNK N   1      26.044  27.828  -4.052  0.00  0.00    -0.025 A 
HETATM   10  C   UNK N   1      25.260  27.757  -5.213  0.00  0.00     0.013 A 
HETATM   11  C   UNK N   1      24.958  26.518  -5.785  0.00  0.00     0.040 A 
HETATM   12  C   UNK N   1      25.435  25.342  -5.200  0.00  0.00     0.098 A 
HETATM   13  C   UNK N   1      26.218  25.404  -4.041  0.00  0.00     0.099 A 
HETATM   14  C   UNK N   1      26.524  26.643  -3.477  0.00  0.00     0.049 A 
BRANCH  12  15
HETATM   15  O   UNK N   1      25.138  24.154  -5.756  0.00  0.00    -0.358 OA
HETATM   16  H   UNK N   1      25.818  23.617  -6.112  0.00  0.00     0.217 HD
ENDBRANCH  12  15
BRANCH  13  17
HETATM   17  O   UNK N   1      26.679  24.279  -3.468  0.00  0.00    -0.358 OA
HETATM   18  H   UNK N   1      27.309  23.747  -3.913  0.00  0.00     0.217 HD
ENDBRANCH  13  17
ENDBRANCH   8   9
BRANCH   8  19
HETATM   19  O   UNK N   1      27.095  28.997  -2.235  0.00  0.00    -0.389 OA
HETATM   20  H   UNK N   1      27.611  29.734  -1.870  0.00  0.00     0.210 HD
ENDBRANCH   8  19
ENDBRANCH   7   8
ENDBRANCH   5   7
ENDBRANCH   4   5
ENDBRANCH   3   4
ENDBRANCH   2   3
ENDBRANCH   1   2
BRANCH   1  21
HETATM   21  C   UNK N   1      27.578  25.779  -8.189  0.00  0.00     0.019 C 
BRANCH  21  22
HETATM   22  C   UNK N   1      28.835  25.018  -8.561  0.00  0.00     0.113 C 
BRANCH  22  23
HETATM   23  N   UNK N   1      28.637  23.590  -8.368  0.00  0.00    -0.418 N 
HETATM   24  H   UNK N   1      27.928  23.014  -8.823  0.00  0.00     0.153 HD
BRANCH  23  25
HETATM   25  C   UNK N   1      29.629  23.130  -7.412  0.00  0.00     0.150 C 
BRANCH  25  26
HETATM   26  C   UNK N   1      28.965  22.240  -6.374  0.00  0.00     0.168 C 
BRANCH  26  27
HETATM   27  C   UNK N   1      29.898  21.956  -5.228  0.00  0.00    -0.025 A 
HETATM   28  C   UNK N   1      30.779  20.865  -5.265  0.00  0.00     0.013 A 
HETATM   29  C   UNK N   1      31.644  20.621  -4.195  0.00  0.00     0.040 A 
HETATM   30  C   UNK N   1      31.636  21.463  -3.079  0.00  0.00     0.098 A 
HETATM   31  C   UNK N   1      30.760  22.555  -3.035  0.00  0.00     0.099 A 
HETATM   32  C   UNK N   1      29.901  22.800  -4.108  0.00  0.00     0.049 A 
BRANCH  30  33
HETATM   33  O   UNK N   1      32.470  21.221  -2.054  0.00  0.00    -0.358 OA
HETATM   34  H   UNK N   1      33.397  21.293  -2.173  0.00  0.00     0.217 HD
ENDBRANCH  30  33
BRANCH  31  35
HETATM   35  O   UNK N   1      30.740  23.369  -1.966  0.00  0.00    -0.358 OA
HETATM   36  H   UNK N   1      30.185  23.178  -1.236  0.00  0.00     0.217 HD
ENDBRANCH  31  35
ENDBRANCH  26  27
BRANCH  26  37
HETATM   37  O   UNK N   1      27.784  22.848  -5.941  0.00  0.00    -0.389 OA
HETATM   38  H   UNK N   1      27.781  23.397  -5.142  0.00  0.00     0.210 HD
ENDBRANCH  26  37
ENDBRANCH  25  26
ENDBRANCH  23  25
ENDBRANCH  22  23
ENDBRANCH  21  22
ENDBRANCH   1  21
TORSDOF 19
ENDMDL
MODEL 2
REMARK VINA RESULT:      -5.9      1.671      7.123
REMARK  19 active torsions:
REMARK  status: ('A' for Active; 'I' for Inactive)
REMARK    1  A    between atoms: C_2  and  C_1 
REMARK    2  A    between atoms: C_3  and  C_1 
REMARK    3  A    between atoms: C_4  and  C_2 
REMARK    4  A    between atoms: C_9  and  C_3 
REMARK    5  A    between atoms: C_10  and  C_4 
REMARK    6  A    between atoms: N_23  and  C_9 
REMARK    7  A    between atoms: N_24  and  C_10 
REMARK    8  A    between atoms: C_21  and  C_13 
REMARK    9  A    between atoms: N_23  and  C_13 
REMARK   10  A    between atoms: C_22  and  C_14 
REMARK   11  A    between atoms: N_24  and  C_14 
REMARK   12  A    between atoms: C_21  and  C_15 
REMARK   13  A    between atoms: C_22  and  C_16 
REMARK   14  A    between atoms: O_25  and  C_17 
REMARK   15  A    between atoms: O_26  and  C_18 
REMARK   16  A    between atoms: O_27  and  C_19 
REMARK   17  A    between atoms: O_28  and  C_20 
REMARK   18  A    between atoms: O_29  and  C_21 
REMARK   19  A    between atoms: O_30  and  C_22 
ROOT
HETATM    1  C   UNK N   1      28.779  27.488  -6.412  0.00  0.00     0.002 C 
ENDROOT
BRANCH   1   2
HETATM    2  C   UNK N   1      28.410  26.284  -7.268  0.00  0.00     0.002 C 
BRANCH   2   3
HETATM    3  C   UNK N   1      28.934  25.002  -6.648  0.00  0.00     0.019 C 
BRANCH   3   4
HETATM    4  C   UNK N   1      29.679  25.313  -5.364  0.00  0.00     0.113 C 
BRANCH   4   5
HETATM    5  N   UNK N   1      29.271  24.399  -4.309  0.00  0.00    -0.418 N 
HETATM    6  H   UNK N   1      28.351  23.973  -4.205  0.00  0.00     0.153 HD
BRANCH   5   7
HETATM    7  C   UNK N   1      30.410  24.204  -3.428  0.00  0.00     0.150 C 
BRANCH   7   8
HETATM    8  C   UNK N   1      30.319  22.836  -2.770  0.00  0.00     0.168 C 
BRANCH   8   9
HETATM    9  C   UNK N   1      31.259  21.858  -3.424  0.00  0.00    -0.025 A 
HETATM   10  C   UNK N   1      32.496  21.546  -2.840  0.00  0.00     0.013 A 
HETATM   11  C   UNK N   1      33.354  20.630  -3.456  0.00  0.00     0.040 A 
HETATM   12  C   UNK N   1      32.984  20.021  -4.658  0.00  0.00     0.098 A 
HETATM   13  C   UNK N   1      31.751  20.327  -5.246  0.00  0.00     0.099 A 
HETATM   14  C   UNK N   1      30.893  21.237  -4.626  0.00  0.00     0.049 A 
BRANCH  12  15
HETATM   15  O   UNK N   1      33.816  19.142  -5.243  0.00  0.00    -0.358 OA
HETATM   16  H   UNK N   1      33.514  18.605  -5.949  0.00  0.00     0.217 HD
ENDBRANCH  12  15
BRANCH  13  17
HETATM   17  O   UNK N   1      31.386  19.751  -6.404  0.00  0.00    -0.358 OA
HETATM   18  H   UNK N   1      31.434  20.232  -7.207  0.00  0.00     0.217 HD
ENDBRANCH  13  17
ENDBRANCH   8   9
BRANCH   8  19
HETATM   19  O   UNK N   1      30.578  22.968  -1.405  0.00  0.00    -0.389 OA
HETATM   20  H   UNK N   1      31.313  22.483  -0.997  0.00  0.00     0.210 HD
ENDBRANCH   8  19
ENDBRANCH   7   8
ENDBRANCH   5   7
ENDBRANCH   4   5
ENDBRANCH   3   4
ENDBRANCH   2   3
ENDBRANCH   1   2
BRANCH   1  21
HETATM   21  C   UNK N   1      28.268  28.773  -7.040  0.00  0.00     0.019 C 
BRANCH  21  22
HETATM   22  C   UNK N   1      28.585  29.951  -6.141  0.00  0.00     0.113 C 
BRANCH  22  23
HETATM   23  N   UNK N   1      28.273  29.629  -4.756  0.00  0.00    -0.418 N 
HETATM   24  H   UNK N   1      28.900  29.184  -4.087  0.00  0.00     0.153 HD
BRANCH  23  25
HETATM   25  C   UNK N   1      26.907  30.055  -4.500  0.00  0.00     0.150 C 
BRANCH  25  26
HETATM   26  C   UNK N   1      26.270  29.135  -3.472  0.00  0.00     0.168 C 
BRANCH  26  27
HETATM   27  C   UNK N   1      25.975  27.783  -4.065  0.00  0.00    -0.025 A 
HETATM   28  C   UNK N   1      25.265  27.661  -5.268  0.00  0.00     0.013 A 
HETATM   29  C   UNK N   1      25.006  26.399  -5.810  0.00  0.00     0.040 A 
HETATM   30  C   UNK N   1      25.453  25.248  -5.153  0.00  0.00     0.098 A 
HETATM   31  C   UNK N   1      26.163  25.362  -3.952  0.00  0.00     0.099 A 
HETATM   32  C   UNK N   1      26.426  26.625  -3.416  0.00  0.00     0.049 A 
BRANCH  30  33
HETATM   33  O   UNK N   1      25.199  24.038  -5.679  0.00  0.00    -0.358 OA
HETATM   34  H   UNK N   1      24.936  23.960  -6.575  0.00  0.00     0.217 HD
ENDBRANCH  30  33
BRANCH  31  35
HETATM   35  O   UNK N   1      26.595  24.263  -3.309  0.00  0.00    -0.358 OA
HETATM   36  H   UNK N   1      26.090  23.474  -3.330  0.00  0.00     0.217 HD
ENDBRANCH  31  35
ENDBRANCH  26  27
BRANCH  26  37
HETATM   37  O   UNK N   1      27.113  29.038  -2.362  0.00  0.00    -0.389 OA
HETATM   38  H   UNK N   1      26.902  28.428  -1.639  0.00  0.00     0.210 HD
ENDBRANCH  26  37
ENDBRANCH  25  26
ENDBRANCH  23  25
ENDBRANCH  22  23
ENDBRANCH  21  22
ENDBRANCH   1  21
TORSDOF 19
ENDMDL
MODEL 3
REMARK VINA RESULT:      -5.8     14.718     17.415
REMARK  19 active torsions:
REMARK  status: ('A' for Active; 'I' for Inactive)
REMARK    1  A    between atoms: C_2  and  C_1 
REMARK    2  A    between atoms: C_3  and  C_1 
REMARK    3  A    between atoms: C_4  and  C_2 
REMARK    4  A    between atoms: C_9  and  C_3 
REMARK    5  A    between atoms: C_10  and  C_4 
REMARK    6  A    between atoms: N_23  and  C_9 
REMARK    7  A    between atoms: N_24  and  C_10 
REMARK    8  A    between atoms: C_21  and  C_13 
REMARK    9  A    between atoms: N_23  and  C_13 
REMARK   10  A    between atoms: C_22  and  C_14 
REMARK   11  A    between atoms: N_24  and  C_14 
REMARK   12  A    between atoms: C_21  and  C_15 
REMARK   13  A    between atoms: C_22  and  C_16 
REMARK   14  A    between atoms: O_25  and  C_17 
REMARK   15  A    between atoms: O_26  and  C_18 
REMARK   16  A    between atoms: O_27  and  C_19 
REMARK   17  A    between atoms: O_28  and  C_20 
REMARK   18  A    between atoms: O_29  and  C_21 
REMARK   19  A    between atoms: O_30  and  C_22 
ROOT
HETATM    1  C   UNK N   1      19.072  15.934   5.657  0.00  0.00     0.002 C 
ENDROOT
BRANCH   1   2
HETATM    2  C   UNK N   1      19.902  16.423   6.836  0.00  0.00     0.002 C 
BRANCH   2   3
HETATM    3  C   UNK N   1      21.192  15.631   6.952  0.00  0.00     0.019 C 
BRANCH   3   4
HETATM    4  C   UNK N   1      22.344  16.430   6.375  0.00  0.00     0.113 C 
BRANCH   4   5
HETATM    5  N   UNK N   1      23.458  15.551   6.052  0.00  0.00    -0.418 N 
HETATM    6  H   UNK N   1      24.329  15.827   5.600  0.00  0.00     0.153 HD
BRANCH   5   7
HETATM    7  C   UNK N   1      23.105  14.211   6.487  0.00  0.00     0.150 C 
BRANCH   7   8
HETATM    8  C   UNK N   1      24.241  13.624   7.309  0.00  0.00     0.168 C 
BRANCH   8   9
HETATM    9  C   UNK N   1      23.736  13.083   8.620  0.00  0.00    -0.025 A 
HETATM   10  C   UNK N   1      22.380  12.774   8.800  0.00  0.00     0.013 A 
HETATM   11  C   UNK N   1      21.929  12.264  10.021  0.00  0.00     0.040 A 
HETATM   12  C   UNK N   1      22.829  12.061  11.070  0.00  0.00     0.098 A 
HETATM   13  C   UNK N   1      24.185  12.366  10.899  0.00  0.00     0.099 A 
HETATM   14  C   UNK N   1      24.633  12.869   9.676  0.00  0.00     0.049 A 
BRANCH  12  15
HETATM   15  O   UNK N   1      22.386  11.572  12.242  0.00  0.00    -0.358 OA
HETATM   16  H   UNK N   1      21.746  12.043  12.738  0.00  0.00     0.217 HD
ENDBRANCH  12  15
BRANCH  13  17
HETATM   17  O   UNK N   1      25.058  12.178  11.902  0.00  0.00    -0.358 OA
HETATM   18  H   UNK N   1      24.906  12.569  12.740  0.00  0.00     0.217 HD
ENDBRANCH  13  17
ENDBRANCH   8   9
BRANCH   8  19
HETATM   19  O   UNK N   1      24.887  12.640   6.558  0.00  0.00    -0.389 OA
HETATM   20  H   UNK N   1      24.787  12.616   5.593  0.00  0.00     0.210 HD
ENDBRANCH   8  19
ENDBRANCH   7   8
ENDBRANCH   5   7
ENDBRANCH   4   5
ENDBRANCH   3   4
ENDBRANCH   2   3
ENDBRANCH   1   2
BRANCH   1  21
HETATM   21  C   UNK N   1      19.564  14.580   5.177  0.00  0.00     0.019 C 
BRANCH  21  22
HETATM   22  C   UNK N   1      19.321  14.439   3.688  0.00  0.00     0.113 C 
BRANCH  22  23
HETATM   23  N   UNK N   1      20.569  14.150   2.997  0.00  0.00    -0.418 N 
HETATM   24  H   UNK N   1      20.947  13.223   2.801  0.00  0.00     0.153 HD
BRANCH  23  25
HETATM   25  C   UNK N   1      21.180  15.419   2.638  0.00  0.00     0.150 C 
BRANCH  25  26
HETATM   26  C   UNK N   1      20.139  16.326   2.003  0.00  0.00     0.168 C 
BRANCH  26  27
HETATM   27  C   UNK N   1      20.509  17.775   2.172  0.00  0.00    -0.025 A 
HETATM   28  C   UNK N   1      20.892  18.282   3.422  0.00  0.00     0.013 A 
HETATM   29  C   UNK N   1      21.240  19.629   3.560  0.00  0.00     0.040 A 
HETATM   30  C   UNK N   1      21.206  20.480   2.451  0.00  0.00     0.098 A 
HETATM   31  C   UNK N   1      20.825  19.980   1.200  0.00  0.00     0.099 A 
HETATM   32  C   UNK N   1      20.484  18.633   1.063  0.00  0.00     0.049 A 
BRANCH  30  33
HETATM   33  O   UNK N   1      21.541  21.773   2.592  0.00  0.00    -0.358 OA
HETATM   34  H   UNK N   1      21.370  22.219   3.398  0.00  0.00     0.217 HD
ENDBRANCH  30  33
BRANCH  31  35
HETATM   35  O   UNK N   1      20.786  20.789   0.126  0.00  0.00    -0.358 OA
HETATM   36  H   UNK N   1      20.359  21.622   0.178  0.00  0.00     0.217 HD
ENDBRANCH  31  35
ENDBRANCH  26  27
BRANCH  26  37
HETATM   37  O   UNK N   1      19.995  15.983   0.656  0.00  0.00    -0.389 OA
HETATM   38  H   UNK N   1      20.593  16.355  -0.009  0.00  0.00     0.210 HD
ENDBRANCH  26  37
ENDBRANCH  25  26
ENDBRANCH  23  25
ENDBRANCH  22  23
ENDBRANCH  21  22
ENDBRANCH   1  21
TORSDOF 19
ENDMDL
MODEL 4
REMARK VINA RESULT:      -5.7     17.573     21.111
REMARK  19 active torsions:
REMARK  status: ('A' for Active; 'I' for Inactive)
REMARK    1  A    between atoms: C_2  and  C_1 
REMARK    2  A    between atoms: C_3  and  C_1 
REMARK    3  A    between atoms: C_4  and  C_2 
REMARK    4  A    between atoms: C_9  and  C_3 
REMARK    5  A    between atoms: C_10  and  C_4 
REMARK    6  A    between atoms: N_23  and  C_9 
REMARK    7  A    between atoms: N_24  and  C_10 
REMARK    8  A    between atoms: C_21  and  C_13 
REMARK    9  A    between atoms: N_23  and  C_13 
REMARK   10  A    between atoms: C_22  and  C_14 
REMARK   11  A    between atoms: N_24  and  C_14 
REMARK   12  A    between atoms: C_21  and  C_15 
REMARK   13  A    between atoms: C_22  and  C_16 
REMARK   14  A    between atoms: O_25  and  C_17 
REMARK   15  A    between atoms: O_26  and  C_18 
REMARK   16  A    between atoms: O_27  and  C_19 
REMARK   17  A    between atoms: O_28  and  C_20 
REMARK   18  A    between atoms: O_29  and  C_21 
REMARK   19  A    between atoms: O_30  and  C_22 
ROOT
HETATM    1  C   UNK N   1      35.375  13.397  10.026  0.00  0.00     0.002 C 
ENDROOT
BRANCH   1   2
HETATM    2  C   UNK N   1      35.610  14.873   9.732  0.00  0.00     0.002 C 
BRANCH   2   3
HETATM    3  C   UNK N   1      34.300  15.575   9.426  0.00  0.00     0.019 C 
BRANCH   3   4
HETATM    4  C   UNK N   1      34.572  16.968   8.890  0.00  0.00     0.113 C 
BRANCH   4   5
HETATM    5  N   UNK N   1      34.422  16.991   7.443  0.00  0.00    -0.418 N 
HETATM    6  H   UNK N   1      34.997  16.484   6.771  0.00  0.00     0.153 HD
BRANCH   5   7
HETATM    7  C   UNK N   1      33.309  17.869   7.128  0.00  0.00     0.150 C 
BRANCH   7   8
HETATM    8  C   UNK N   1      32.140  17.045   6.610  0.00  0.00     0.168 C 
BRANCH   8   9
HETATM    9  C   UNK N   1      30.877  17.365   7.364  0.00  0.00    -0.025 A 
HETATM   10  C   UNK N   1      30.897  17.570   8.752  0.00  0.00     0.013 A 
HETATM   11  C   UNK N   1      29.717  17.875   9.437  0.00  0.00     0.040 A 
HETATM   12  C   UNK N   1      28.509  17.975   8.741  0.00  0.00     0.098 A 
HETATM   13  C   UNK N   1      28.480  17.772   7.356  0.00  0.00     0.099 A 
HETATM   14  C   UNK N   1      29.662  17.474   6.674  0.00  0.00     0.049 A 
BRANCH  12  15
HETATM   15  O   UNK N   1      27.378  18.266   9.408  0.00  0.00    -0.358 OA
HETATM   16  H   UNK N   1      27.387  18.340  10.342  0.00  0.00     0.217 HD
ENDBRANCH  12  15
BRANCH  13  17
HETATM   17  O   UNK N   1      27.324  17.861   6.677  0.00  0.00    -0.358 OA
HETATM   18  H   UNK N   1      26.973  17.109   6.242  0.00  0.00     0.217 HD
ENDBRANCH  13  17
ENDBRANCH   8   9
BRANCH   8  19
HETATM   19  O   UNK N   1      31.994  17.271   5.240  0.00  0.00    -0.389 OA
HETATM   20  H   UNK N   1      32.768  17.478   4.692  0.00  0.00     0.210 HD
ENDBRANCH   8  19
ENDBRANCH   7   8
ENDBRANCH   5   7
ENDBRANCH   4   5
ENDBRANCH   3   4
ENDBRANCH   2   3
ENDBRANCH   1   2
BRANCH   1  21
HETATM   21  C   UNK N   1      35.393  13.136  11.522  0.00  0.00     0.019 C 
BRANCH  21  22
HETATM   22  C   UNK N   1      36.808  13.251  12.051  0.00  0.00     0.113 C 
BRANCH  22  23
HETATM   23  N   UNK N   1      36.807  13.879  13.364  0.00  0.00    -0.418 N 
HETATM   24  H   UNK N   1      37.498  14.543  13.713  0.00  0.00     0.153 HD
BRANCH  23  25
HETATM   25  C   UNK N   1      35.646  13.390  14.088  0.00  0.00     0.150 C 
BRANCH  25  26
HETATM   26  C   UNK N   1      36.044  12.202  14.948  0.00  0.00     0.168 C 
BRANCH  26  27
HETATM   27  C   UNK N   1      35.729  12.454  16.398  0.00  0.00    -0.025 A 
HETATM   28  C   UNK N   1      35.579  11.390  17.300  0.00  0.00     0.013 A 
HETATM   29  C   UNK N   1      35.294  11.642  18.646  0.00  0.00     0.040 A 
HETATM   30  C   UNK N   1      35.155  12.957  19.100  0.00  0.00     0.098 A 
HETATM   31  C   UNK N   1      35.305  14.024  18.205  0.00  0.00     0.099 A 
HETATM   32  C   UNK N   1      35.595  13.770  16.863  0.00  0.00     0.049 A 
BRANCH  30  33
HETATM   33  O   UNK N   1      34.880  13.191  20.394  0.00  0.00    -0.358 OA
HETATM   34  H   UNK N   1      33.996  13.336  20.669  0.00  0.00     0.217 HD
ENDBRANCH  30  33
BRANCH  31  35
HETATM   35  O   UNK N   1      35.170  15.292  18.628  0.00  0.00    -0.358 OA
HETATM   36  H   UNK N   1      34.599  15.883  18.178  0.00  0.00     0.217 HD
ENDBRANCH  31  35
ENDBRANCH  26  27
BRANCH  26  37
HETATM   37  O   UNK N   1      35.401  11.058  14.471  0.00  0.00    -0.389 OA
HETATM   38  H   UNK N   1      35.422  10.842  13.526  0.00  0.00     0.210 HD
ENDBRANCH  26  37
ENDBRANCH  25  26
ENDBRANCH  23  25
ENDBRANCH  22  23
ENDBRANCH  21  22
ENDBRANCH   1  21
TORSDOF 19
ENDMDL
MODEL 5
REMARK VINA RESULT:      -5.7     18.620     22.290
REMARK  19 active torsions:
REMARK  status: ('A' for Active; 'I' for Inactive)
REMARK    1  A    between atoms: C_2  and  C_1 
REMARK    2  A    between atoms: C_3  and  C_1 
REMARK    3  A    between atoms: C_4  and  C_2 
REMARK    4  A    between atoms: C_9  and  C_3 
REMARK    5  A    between atoms: C_10  and  C_4 
REMARK    6  A    between atoms: N_23  and  C_9 
REMARK    7  A    between atoms: N_24  and  C_10 
REMARK    8  A    between atoms: C_21  and  C_13 
REMARK    9  A    between atoms: N_23  and  C_13 
REMARK   10  A    between atoms: C_22  and  C_14 
REMARK   11  A    between atoms: N_24  and  C_14 
REMARK   12  A    between atoms: C_21  and  C_15 
REMARK   13  A    between atoms: C_22  and  C_16 
REMARK   14  A    between atoms: O_25  and  C_17 
REMARK   15  A    between atoms: O_26  and  C_18 
REMARK   16  A    between atoms: O_27  and  C_19 
REMARK   17  A    between atoms: O_28  and  C_20 
REMARK   18  A    between atoms: O_29  and  C_21 
REMARK   19  A    between atoms: O_30  and  C_22 
ROOT
HETATM    1  C   UNK N   1      37.179  13.171  11.299  0.00  0.00     0.002 C 
ENDROOT
BRANCH   1   2
HETATM    2  C   UNK N   1      35.788  13.750  11.519  0.00  0.00     0.002 C 
BRANCH   2   3
HETATM    3  C   UNK N   1      35.824  15.267  11.478  0.00  0.00     0.019 C 
BRANCH   3   4
HETATM    4  C   UNK N   1      34.578  15.797  10.794  0.00  0.00     0.113 C 
BRANCH   4   5
HETATM    5  N   UNK N   1      34.877  17.026  10.078  0.00  0.00    -0.418 N 
HETATM    6  H   UNK N   1      34.990  17.951  10.493  0.00  0.00     0.153 HD
BRANCH   5   7
HETATM    7  C   UNK N   1      34.985  16.702   8.667  0.00  0.00     0.150 C 
BRANCH   7   8
HETATM    8  C   UNK N   1      34.383  17.825   7.837  0.00  0.00     0.168 C 
BRANCH   8   9
HETATM    9  C   UNK N   1      32.887  17.680   7.736  0.00  0.00    -0.025 A 
HETATM   10  C   UNK N   1      32.300  16.949   6.693  0.00  0.00     0.013 A 
HETATM   11  C   UNK N   1      30.911  16.818   6.619  0.00  0.00     0.040 A 
HETATM   12  C   UNK N   1      30.098  17.417   7.585  0.00  0.00     0.098 A 
HETATM   13  C   UNK N   1      30.676  18.149   8.630  0.00  0.00     0.099 A 
HETATM   14  C   UNK N   1      32.064  18.272   8.704  0.00  0.00     0.049 A 
BRANCH  12  15
HETATM   15  O   UNK N   1      28.762  17.287   7.505  0.00  0.00    -0.358 OA
HETATM   16  H   UNK N   1      28.240  17.985   7.160  0.00  0.00     0.217 HD
ENDBRANCH  12  15
BRANCH  13  17
HETATM   17  O   UNK N   1      29.904  18.733   9.561  0.00  0.00    -0.358 OA
HETATM   18  H   UNK N   1      30.106  19.595   9.869  0.00  0.00     0.217 HD
ENDBRANCH  13  17
ENDBRANCH   8   9
BRANCH   8  19
HETATM   19  O   UNK N   1      34.746  19.051   8.395  0.00  0.00    -0.389 OA
HETATM   20  H   UNK N   1      34.069  19.646   8.755  0.00  0.00     0.210 HD
ENDBRANCH   8  19
ENDBRANCH   7   8
ENDBRANCH   5   7
ENDBRANCH   4   5
ENDBRANCH   3   4
ENDBRANCH   2   3
ENDBRANCH   1   2
BRANCH   1  21
HETATM   21  C   UNK N   1      37.491  12.108  12.337  0.00  0.00     0.019 C 
BRANCH  21  22
HETATM   22  C   UNK N   1      36.668  12.347  13.587  0.00  0.00     0.113 C 
BRANCH  22  23
HETATM   23  N   UNK N   1      37.390  13.208  14.511  0.00  0.00    -0.418 N 
HETATM   24  H   UNK N   1      38.385  13.429  14.475  0.00  0.00     0.153 HD
BRANCH  23  25
HETATM   25  C   UNK N   1      36.439  13.697  15.496  0.00  0.00     0.150 C 
BRANCH  25  26
HETATM   26  C   UNK N   1      35.385  12.634  15.759  0.00  0.00     0.168 C 
BRANCH  26  27
HETATM   27  C   UNK N   1      35.466  12.132  17.176  0.00  0.00    -0.025 A 
HETATM   28  C   UNK N   1      35.878  10.821  17.456  0.00  0.00     0.013 A 
HETATM   29  C   UNK N   1      35.955  10.373  18.778  0.00  0.00     0.040 A 
HETATM   30  C   UNK N   1      35.618  11.231  19.830  0.00  0.00     0.098 A 
HETATM   31  C   UNK N   1      35.206  12.541  19.558  0.00  0.00     0.099 A 
HETATM   32  C   UNK N   1      35.136  12.987  18.236  0.00  0.00     0.049 A 
BRANCH  30  33
HETATM   33  O   UNK N   1      35.693  10.792  21.098  0.00  0.00    -0.358 OA
HETATM   34  H   UNK N   1      35.376   9.939  21.321  0.00  0.00     0.217 HD
ENDBRANCH  30  33
BRANCH  31  35
HETATM   35  O   UNK N   1      34.876  13.373  20.560  0.00  0.00    -0.358 OA
HETATM   36  H   UNK N   1      34.159  13.969  20.464  0.00  0.00     0.217 HD
ENDBRANCH  31  35
ENDBRANCH  26  27
BRANCH  26  37
HETATM   37  O   UNK N   1      34.124  13.159  15.468  0.00  0.00    -0.389 OA
HETATM   38  H   UNK N   1      33.639  12.861  14.684  0.00  0.00     0.210 HD
ENDBRANCH  26  37
ENDBRANCH  25  26
ENDBRANCH  23  25
ENDBRANCH  22  23
ENDBRANCH  21  22
ENDBRANCH   1  21
TORSDOF 19
ENDMDL
MODEL 6
REMARK VINA RESULT:      -5.6     17.218     21.601
REMARK  19 active torsions:
REMARK  status: ('A' for Active; 'I' for Inactive)
REMARK    1  A    between atoms: C_2  and  C_1 
REMARK    2  A    between atoms: C_3  and  C_1 
REMARK    3  A    between atoms: C_4  and  C_2 
REMARK    4  A    between atoms: C_9  and  C_3 
REMARK    5  A    between atoms: C_10  and  C_4 
REMARK    6  A    between atoms: N_23  and  C_9 
REMARK    7  A    between atoms: N_24  and  C_10 
REMARK    8  A    between atoms: C_21  and  C_13 
REMARK    9  A    between atoms: N_23  and  C_13 
REMARK   10  A    between atoms: C_22  and  C_14 
REMARK   11  A    between atoms: N_24  and  C_14 
REMARK   12  A    between atoms: C_21  and  C_15 
REMARK   13  A    between atoms: C_22  and  C_16 
REMARK   14  A    between atoms: O_25  and  C_17 
REMARK   15  A    between atoms: O_26  and  C_18 
REMARK   16  A    between atoms: O_27  and  C_19 
REMARK   17  A    between atoms: O_28  and  C_20 
REMARK   18  A    between atoms: O_29  and  C_21 
REMARK   19  A    between atoms: O_30  and  C_22 
ROOT
HETATM    1  C   UNK N   1      34.850  14.840   9.703  0.00  0.00     0.002 C 
ENDROOT
BRANCH   1   2
HETATM    2  C   UNK N   1      34.852  15.691  10.966  0.00  0.00     0.002 C 
BRANCH   2   3
HETATM    3  C   UNK N   1      36.093  15.421  11.796  0.00  0.00     0.019 C 
BRANCH   3   4
HETATM    4  C   UNK N   1      36.409  13.938  11.789  0.00  0.00     0.113 C 
BRANCH   4   5
HETATM    5  N   UNK N   1      37.041  13.549  13.039  0.00  0.00    -0.418 N 
HETATM    6  H   UNK N   1      37.969  13.138  13.141  0.00  0.00     0.153 HD
BRANCH   5   7
HETATM    7  C   UNK N   1      36.114  13.848  14.116  0.00  0.00     0.150 C 
BRANCH   7   8
HETATM    8  C   UNK N   1      35.558  12.552  14.686  0.00  0.00     0.168 C 
BRANCH   8   9
HETATM    9  C   UNK N   1      35.460  12.620  16.187  0.00  0.00    -0.025 A 
HETATM   10  C   UNK N   1      35.488  11.455  16.967  0.00  0.00     0.013 A 
HETATM   11  C   UNK N   1      35.405  11.536  18.360  0.00  0.00     0.040 A 
HETATM   12  C   UNK N   1      35.291  12.781  18.983  0.00  0.00     0.098 A 
HETATM   13  C   UNK N   1      35.262  13.950  18.212  0.00  0.00     0.099 A 
HETATM   14  C   UNK N   1      35.353  13.866  16.822  0.00  0.00     0.049 A 
BRANCH  12  15
HETATM   15  O   UNK N   1      35.209  12.850  20.324  0.00  0.00    -0.358 OA
HETATM   16  H   UNK N   1      35.083  12.071  20.829  0.00  0.00     0.217 HD
ENDBRANCH  12  15
BRANCH  13  17
HETATM   17  O   UNK N   1      35.149  15.152  18.801  0.00  0.00    -0.358 OA
HETATM   18  H   UNK N   1      34.304  15.492  19.023  0.00  0.00     0.217 HD
ENDBRANCH  13  17
ENDBRANCH   8   9
BRANCH   8  19
HETATM   19  O   UNK N   1      34.318  12.289  14.100  0.00  0.00    -0.389 OA
HETATM   20  H   UNK N   1      33.748  11.588  14.454  0.00  0.00     0.210 HD
ENDBRANCH   8  19
ENDBRANCH   7   8
ENDBRANCH   5   7
ENDBRANCH   4   5
ENDBRANCH   3   4
ENDBRANCH   2   3
ENDBRANCH   1   2
BRANCH   1  21
HETATM   21  C   UNK N   1      34.388  15.653   8.506  0.00  0.00     0.019 C 
BRANCH  21  22
HETATM   22  C   UNK N   1      34.294  17.118   8.879  0.00  0.00     0.113 C 
BRANCH  22  23
HETATM   23  N   UNK N   1      33.370  17.808   7.992  0.00  0.00    -0.418 N 
HETATM   24  H   UNK N   1      33.610  18.546   7.330  0.00  0.00     0.153 HD
BRANCH  23  25
HETATM   25  C   UNK N   1      32.044  17.258   8.219  0.00  0.00     0.150 C 
BRANCH  25  26
HETATM   26  C   UNK N   1      31.434  16.834   6.893  0.00  0.00     0.168 C 
BRANCH  26  27
HETATM   27  C   UNK N   1      30.099  17.495   6.677  0.00  0.00    -0.025 A 
HETATM   28  C   UNK N   1      29.560  17.632   5.389  0.00  0.00     0.013 A 
HETATM   29  C   UNK N   1      28.315  18.241   5.206  0.00  0.00     0.040 A 
HETATM   30  C   UNK N   1      27.600  18.720   6.308  0.00  0.00     0.098 A 
HETATM   31  C   UNK N   1      28.131  18.587   7.596  0.00  0.00     0.099 A 
HETATM   32  C   UNK N   1      29.372  17.972   7.777  0.00  0.00     0.049 A 
BRANCH  30  33
HETATM   33  O   UNK N   1      26.405  19.306   6.124  0.00  0.00    -0.358 OA
HETATM   34  H   UNK N   1      26.324  20.041   5.548  0.00  0.00     0.217 HD
ENDBRANCH  30  33
BRANCH  31  35
HETATM   35  O   UNK N   1      27.455  19.047   8.663  0.00  0.00    -0.358 OA
HETATM   36  H   UNK N   1      27.302  19.966   8.766  0.00  0.00     0.217 HD
ENDBRANCH  31  35
ENDBRANCH  26  27
BRANCH  26  37
HETATM   37  O   UNK N   1      32.329  17.131   5.863  0.00  0.00    -0.389 OA
HETATM   38  H   UNK N   1      32.218  17.935   5.334  0.00  0.00     0.210 HD
ENDBRANCH  26  37
ENDBRANCH  25  26
ENDBRANCH  23  25
ENDBRANCH  22  23
ENDBRANCH  21  22
ENDBRANCH   1  21
TORSDOF 19
ENDMDL
MODEL 7
REMARK VINA RESULT:      -5.6     14.592     17.453
REMARK  19 active torsions:
REMARK  status: ('A' for Active; 'I' for Inactive)
REMARK    1  A    between atoms: C_2  and  C_1 
REMARK    2  A    between atoms: C_3  and  C_1 
REMARK    3  A    between atoms: C_4  and  C_2 
REMARK    4  A    between atoms: C_9  and  C_3 
REMARK    5  A    between atoms: C_10  and  C_4 
REMARK    6  A    between atoms: N_23  and  C_9 
REMARK    7  A    between atoms: N_24  and  C_10 
REMARK    8  A    between atoms: C_21  and  C_13 
REMARK    9  A    between atoms: N_23  and  C_13 
REMARK   10  A    between atoms: C_22  and  C_14 
REMARK   11  A    between atoms: N_24  and  C_14 
REMARK   12  A    between atoms: C_21  and  C_15 
REMARK   13  A    between atoms: C_22  and  C_16 
REMARK   14  A    between atoms: O_25  and  C_17 
REMARK   15  A    between atoms: O_26  and  C_18 
REMARK   16  A    between atoms: O_27  and  C_19 
REMARK   17  A    between atoms: O_28  and  C_20 
REMARK   18  A    between atoms: O_29  and  C_21 
REMARK   19  A    between atoms: O_30  and  C_22 
ROOT
HETATM    1  C   UNK N   1      26.167  16.494   5.499  0.00  0.00     0.002 C 
ENDROOT
BRANCH   1   2
HETATM    2  C   UNK N   1      25.195  15.488   6.099  0.00  0.00     0.002 C 
BRANCH   2   3
HETATM    3  C   UNK N   1      23.855  15.543   5.389  0.00  0.00     0.019 C 
BRANCH   3   4
HETATM    4  C   UNK N   1      22.774  15.987   6.355  0.00  0.00     0.113 C 
BRANCH   4   5
HETATM    5  N   UNK N   1      21.552  15.230   6.132  0.00  0.00    -0.418 N 
HETATM    6  H   UNK N   1      21.019  15.192   5.263  0.00  0.00     0.153 HD
BRANCH   5   7
HETATM    7  C   UNK N   1      21.228  14.539   7.368  0.00  0.00     0.150 C 
BRANCH   7   8
HETATM    8  C   UNK N   1      21.808  13.134   7.336  0.00  0.00     0.168 C 
BRANCH   8   9
HETATM    9  C   UNK N   1      22.655  12.872   8.553  0.00  0.00    -0.025 A 
HETATM   10  C   UNK N   1      24.032  13.139   8.546  0.00  0.00     0.013 A 
HETATM   11  C   UNK N   1      24.803  12.898   9.687  0.00  0.00     0.040 A 
HETATM   12  C   UNK N   1      24.204  12.386  10.842  0.00  0.00     0.098 A 
HETATM   13  C   UNK N   1      22.830  12.117  10.857  0.00  0.00     0.099 A 
HETATM   14  C   UNK N   1      22.062  12.365   9.718  0.00  0.00     0.049 A 
BRANCH  12  15
HETATM   15  O   UNK N   1      24.953  12.155  11.934  0.00  0.00    -0.358 OA
HETATM   16  H   UNK N   1      25.164  11.277  12.184  0.00  0.00     0.217 HD
ENDBRANCH  12  15
BRANCH  13  17
HETATM   17  O   UNK N   1      22.245  11.621  11.960  0.00  0.00    -0.358 OA
HETATM   18  H   UNK N   1      22.390  12.025  12.793  0.00  0.00     0.217 HD
ENDBRANCH  13  17
ENDBRANCH   8   9
BRANCH   8  19
HETATM   19  O   UNK N   1      20.767  12.212   7.223  0.00  0.00    -0.389 OA
HETATM   20  H   UNK N   1      19.848  12.517   7.149  0.00  0.00     0.210 HD
ENDBRANCH   8  19
ENDBRANCH   7   8
ENDBRANCH   5   7
ENDBRANCH   4   5
ENDBRANCH   3   4
ENDBRANCH   2   3
ENDBRANCH   1   2
BRANCH   1  21
HETATM   21  C   UNK N   1      27.344  16.728   6.430  0.00  0.00     0.019 C 
BRANCH  21  22
HETATM   22  C   UNK N   1      27.554  18.214   6.637  0.00  0.00     0.113 C 
BRANCH  22  23
HETATM   23  N   UNK N   1      27.977  18.480   8.004  0.00  0.00    -0.418 N 
HETATM   24  H   UNK N   1      27.835  19.349   8.519  0.00  0.00     0.153 HD
BRANCH  23  25
HETATM   25  C   UNK N   1      28.638  17.286   8.502  0.00  0.00     0.150 C 
BRANCH  25  26
HETATM   26  C   UNK N   1      29.910  17.676   9.238  0.00  0.00     0.168 C 
BRANCH  26  27
HETATM   27  C   UNK N   1      31.105  17.610   8.324  0.00  0.00    -0.025 A 
HETATM   28  C   UNK N   1      31.039  16.935   7.097  0.00  0.00     0.013 A 
HETATM   29  C   UNK N   1      32.156  16.890   6.257  0.00  0.00     0.040 A 
HETATM   30  C   UNK N   1      33.346  17.517   6.637  0.00  0.00     0.098 A 
HETATM   31  C   UNK N   1      33.418  18.194   7.861  0.00  0.00     0.099 A 
HETATM   32  C   UNK N   1      32.300  18.242   8.695  0.00  0.00     0.049 A 
BRANCH  30  33
HETATM   33  O   UNK N   1      34.415  17.468   5.824  0.00  0.00    -0.358 OA
HETATM   34  H   UNK N   1      35.060  18.148   5.852  0.00  0.00     0.217 HD
ENDBRANCH  30  33
BRANCH  31  35
HETATM   35  O   UNK N   1      34.558  18.797   8.239  0.00  0.00    -0.358 OA
HETATM   36  H   UNK N   1      34.645  19.728   8.173  0.00  0.00     0.217 HD
ENDBRANCH  31  35
ENDBRANCH  26  27
BRANCH  26  37
HETATM   37  O   UNK N   1      29.748  18.951   9.784  0.00  0.00    -0.389 OA
HETATM   38  H   UNK N   1      30.331  19.677   9.514  0.00  0.00     0.210 HD
ENDBRANCH  26  37
ENDBRANCH  25  26
ENDBRANCH  23  25
ENDBRANCH  22  23
ENDBRANCH  21  22
ENDBRANCH   1  21
TORSDOF 19
ENDMDL
MODEL 8
REMARK VINA RESULT:      -5.5     11.120     13.451
REMARK  19 active torsions:
REMARK  status: ('A' for Active; 'I' for Inactive)
REMARK    1  A    between atoms: C_2  and  C_1 
REMARK    2  A    between atoms: C_3  and  C_1 
REMARK    3  A    between atoms: C_4  and  C_2 
REMARK    4  A    between atoms: C_9  and  C_3 
REMARK    5  A    between atoms: C_10  and  C_4 
REMARK    6  A    between atoms: N_23  and  C_9 
REMARK    7  A    between atoms: N_24  and  C_10 
REMARK    8  A    between atoms: C_21  and  C_13 
REMARK    9  A    between atoms: N_23  and  C_13 
REMARK   10  A    between atoms: C_22  and  C_14 
REMARK   11  A    between atoms: N_24  and  C_14 
REMARK   12  A    between atoms: C_21  and  C_15 
REMARK   13  A    between atoms: C_22  and  C_16 
REMARK   14  A    between atoms: O_25  and  C_17 
REMARK   15  A    between atoms: O_26  and  C_18 
REMARK   16  A    between atoms: O_27  and  C_19 
REMARK   17  A    between atoms: O_28  and  C_20 
REMARK   18  A    between atoms: O_29  and  C_21 
REMARK   19  A    between atoms: O_30  and  C_22 
ROOT
HETATM    1  C   UNK N   1      29.504  17.555   6.518  0.00  0.00     0.002 C 
ENDROOT
BRANCH   1   2
HETATM    2  C   UNK N   1      28.144  18.147   6.173  0.00  0.00     0.002 C 
BRANCH   2   3
HETATM    3  C   UNK N   1      28.139  18.696   4.757  0.00  0.00     0.019 C 
BRANCH   3   4
HETATM    4  C   UNK N   1      27.327  19.975   4.700  0.00  0.00     0.113 C 
BRANCH   4   5
HETATM    5  N   UNK N   1      26.544  20.024   3.476  0.00  0.00    -0.418 N 
HETATM    6  H   UNK N   1      26.594  20.747   2.759  0.00  0.00     0.153 HD
BRANCH   5   7
HETATM    7  C   UNK N   1      25.677  18.858   3.458  0.00  0.00     0.150 C 
BRANCH   7   8
HETATM    8  C   UNK N   1      24.567  19.032   4.483  0.00  0.00     0.168 C 
BRANCH   8   9
HETATM    9  C   UNK N   1      23.221  19.115   3.812  0.00  0.00    -0.025 A 
HETATM   10  C   UNK N   1      22.319  18.042   3.866  0.00  0.00     0.013 A 
HETATM   11  C   UNK N   1      21.071  18.139   3.245  0.00  0.00     0.040 A 
HETATM   12  C   UNK N   1      20.715  19.307   2.565  0.00  0.00     0.098 A 
HETATM   13  C   UNK N   1      21.609  20.383   2.506  0.00  0.00     0.099 A 
HETATM   14  C   UNK N   1      22.853  20.285   3.133  0.00  0.00     0.049 A 
BRANCH  12  15
HETATM   15  O   UNK N   1      19.513  19.390   1.969  0.00  0.00    -0.358 OA
HETATM   16  H   UNK N   1      19.449  19.406   1.034  0.00  0.00     0.217 HD
ENDBRANCH  12  15
BRANCH  13  17
HETATM   17  O   UNK N   1      21.280  21.508   1.852  0.00  0.00    -0.358 OA
HETATM   18  H   UNK N   1      21.019  21.473   0.952  0.00  0.00     0.217 HD
ENDBRANCH  13  17
ENDBRANCH   8   9
BRANCH   8  19
HETATM   19  O   UNK N   1      24.622  17.980   5.399  0.00  0.00    -0.389 OA
HETATM   20  H   UNK N   1      24.882  18.147   6.320  0.00  0.00     0.210 HD
ENDBRANCH   8  19
ENDBRANCH   7   8
ENDBRANCH   5   7
ENDBRANCH   4   5
ENDBRANCH   3   4
ENDBRANCH   2   3
ENDBRANCH   1   2
BRANCH   1  21
HETATM   21  C   UNK N   1      29.877  17.866   7.957  0.00  0.00     0.019 C 
BRANCH  21  22
HETATM   22  C   UNK N   1      30.928  16.888   8.442  0.00  0.00     0.113 C 
BRANCH  22  23
HETATM   23  N   UNK N   1      32.130  17.599   8.852  0.00  0.00    -0.418 N 
HETATM   24  H   UNK N   1      32.174  18.562   9.184  0.00  0.00     0.153 HD
BRANCH  23  25
HETATM   25  C   UNK N   1      33.254  16.691   8.701  0.00  0.00     0.150 C 
BRANCH  25  26
HETATM   26  C   UNK N   1      34.249  17.270   7.709  0.00  0.00     0.168 C 
BRANCH  26  27
HETATM   27  C   UNK N   1      33.975  16.772   6.315  0.00  0.00    -0.025 A 
HETATM   28  C   UNK N   1      34.562  15.589   5.842  0.00  0.00     0.013 A 
HETATM   29  C   UNK N   1      34.291  15.135   4.548  0.00  0.00     0.040 A 
HETATM   30  C   UNK N   1      33.434  15.861   3.715  0.00  0.00     0.098 A 
HETATM   31  C   UNK N   1      32.844  17.043   4.180  0.00  0.00     0.099 A 
HETATM   32  C   UNK N   1      33.111  17.490   5.476  0.00  0.00     0.049 A 
BRANCH  30  33
HETATM   33  O   UNK N   1      33.180  15.419   2.472  0.00  0.00    -0.358 OA
HETATM   34  H   UNK N   1      33.492  15.898   1.729  0.00  0.00     0.217 HD
ENDBRANCH  30  33
BRANCH  31  35
HETATM   35  O   UNK N   1      32.021  17.751   3.388  0.00  0.00    -0.358 OA
HETATM   36  H   UNK N   1      31.225  17.371   3.073  0.00  0.00     0.217 HD
ENDBRANCH  31  35
ENDBRANCH  26  27
BRANCH  26  37
HETATM   37  O   UNK N   1      34.201  18.665   7.777  0.00  0.00    -0.389 OA
HETATM   38  H   UNK N   1      34.099  19.191   6.969  0.00  0.00     0.210 HD
ENDBRANCH  26  37
ENDBRANCH  25  26
ENDBRANCH  23  25
ENDBRANCH  22  23
ENDBRANCH  21  22
ENDBRANCH   1  21
TORSDOF 19
ENDMDL
MODEL 9
REMARK VINA RESULT:      -5.5     11.799     15.026
REMARK  19 active torsions:
REMARK  status: ('A' for Active; 'I' for Inactive)
REMARK    1  A    between atoms: C_2  and  C_1 
REMARK    2  A    between atoms: C_3  and  C_1 
REMARK    3  A    between atoms: C_4  and  C_2 
REMARK    4  A    between atoms: C_9  and  C_3 
REMARK    5  A    between atoms: C_10  and  C_4 
REMARK    6  A    between atoms: N_23  and  C_9 
REMARK    7  A    between atoms: N_24  and  C_10 
REMARK    8  A    between atoms: C_21  and  C_13 
REMARK    9  A    between atoms: N_23  and  C_13 
REMARK   10  A    between atoms: C_22  and  C_14 
REMARK   11  A    between atoms: N_24  and  C_14 
REMARK   12  A    between atoms: C_21  and  C_15 
REMARK   13  A    between atoms: C_22  and  C_16 
REMARK   14  A    between atoms: O_25  and  C_17 
REMARK   15  A    between atoms: O_26  and  C_18 
REMARK   16  A    between atoms: O_27  and  C_19 
REMARK   17  A    between atoms: O_28  and  C_20 
REMARK   18  A    between atoms: O_29  and  C_21 
REMARK   19  A    between atoms: O_30  and  C_22 
ROOT
HETATM    1  C   UNK N   1      32.087  17.171   5.875  0.00  0.00     0.002 C 
ENDROOT
BRANCH   1   2
HETATM    2  C   UNK N   1      33.237  17.798   6.651  0.00  0.00     0.002 C 
BRANCH   2   3
HETATM    3  C   UNK N   1      32.989  17.708   8.146  0.00  0.00     0.019 C 
BRANCH   3   4
HETATM    4  C   UNK N   1      31.765  16.855   8.418  0.00  0.00     0.113 C 
BRANCH   4   5
HETATM    5  N   UNK N   1      30.753  17.631   9.118  0.00  0.00    -0.418 N 
HETATM    6  H   UNK N   1      30.916  18.264   9.900  0.00  0.00     0.153 HD
BRANCH   5   7
HETATM    7  C   UNK N   1      29.469  17.339   8.504  0.00  0.00     0.150 C 
BRANCH   7   8
HETATM    8  C   UNK N   1      28.580  18.571   8.571  0.00  0.00     0.168 C 
BRANCH   8   9
HETATM    9  C   UNK N   1      28.187  19.029   7.191  0.00  0.00    -0.025 A 
HETATM   10  C   UNK N   1      27.430  20.196   7.006  0.00  0.00     0.013 A 
HETATM   11  C   UNK N   1      27.081  20.612   5.718  0.00  0.00     0.040 A 
HETATM   12  C   UNK N   1      27.484  19.866   4.607  0.00  0.00     0.098 A 
HETATM   13  C   UNK N   1      28.240  18.700   4.784  0.00  0.00     0.099 A 
HETATM   14  C   UNK N   1      28.593  18.291   6.071  0.00  0.00     0.049 A 
BRANCH  12  15
HETATM   15  O   UNK N   1      27.142  20.272   3.372  0.00  0.00    -0.358 OA
HETATM   16  H   UNK N   1      27.242  21.171   3.127  0.00  0.00     0.217 HD
ENDBRANCH  12  15
BRANCH  13  17
HETATM   17  O   UNK N   1      28.630  17.973   3.723  0.00  0.00    -0.358 OA
HETATM   18  H   UNK N   1      29.285  18.303   3.140  0.00  0.00     0.217 HD
ENDBRANCH  13  17
ENDBRANCH   8   9
BRANCH   8  19
HETATM   19  O   UNK N   1      27.462  18.285   9.357  0.00  0.00    -0.389 OA
HETATM   20  H   UNK N   1      27.386  18.653  10.252  0.00  0.00     0.210 HD
ENDBRANCH   8  19
ENDBRANCH   7   8
ENDBRANCH   5   7
ENDBRANCH   4   5
ENDBRANCH   3   4
ENDBRANCH   2   3
ENDBRANCH   1   2
BRANCH   1  21
HETATM   21  C   UNK N   1      32.197  17.494   4.395  0.00  0.00     0.019 C 
BRANCH  21  22
HETATM   22  C   UNK N   1      33.169  16.541   3.727  0.00  0.00     0.113 C 
BRANCH  22  23
HETATM   23  N   UNK N   1      32.461  15.382   3.205  0.00  0.00    -0.418 N 
HETATM   24  H   UNK N   1      31.764  15.388   2.460  0.00  0.00     0.153 HD
BRANCH  23  25
HETATM   25  C   UNK N   1      32.926  14.214   3.934  0.00  0.00     0.150 C 
BRANCH  25  26
HETATM   26  C   UNK N   1      34.341  14.454   4.434  0.00  0.00     0.168 C 
BRANCH  26  27
HETATM   27  C   UNK N   1      34.412  14.336   5.933  0.00  0.00    -0.025 A 
HETATM   28  C   UNK N   1      35.537  14.785   6.640  0.00  0.00     0.013 A 
HETATM   29  C   UNK N   1      35.584  14.675   8.033  0.00  0.00     0.040 A 
HETATM   30  C   UNK N   1      34.509  14.115   8.730  0.00  0.00     0.098 A 
HETATM   31  C   UNK N   1      33.382  13.665   8.030  0.00  0.00     0.099 A 
HETATM   32  C   UNK N   1      33.335  13.782   6.639  0.00  0.00     0.049 A 
BRANCH  30  33
HETATM   33  O   UNK N   1      34.562  14.012  10.069  0.00  0.00    -0.358 OA
HETATM   34  H   UNK N   1      34.306  14.734  10.608  0.00  0.00     0.217 HD
ENDBRANCH  30  33
BRANCH  31  35
HETATM   35  O   UNK N   1      32.344  13.121   8.688  0.00  0.00    -0.358 OA
HETATM   36  H   UNK N   1      31.890  13.613   9.344  0.00  0.00     0.217 HD
ENDBRANCH  31  35
ENDBRANCH  26  27
BRANCH  26  37
HETATM   37  O   UNK N   1      35.205  13.555   3.804  0.00  0.00    -0.389 OA
HETATM   38  H   UNK N   1      36.165  13.652   3.898  0.00  0.00     0.210 HD
ENDBRANCH  26  37
ENDBRANCH  25  26
ENDBRANCH  23  25
ENDBRANCH  22  23
ENDBRANCH  21  22
ENDBRANCH   1  21
TORSDOF 19
ENDMDL
