MODEL 1
REMARK VINA RESULT:      -7.5      0.000      0.000
REMARK  22 active torsions:
REMARK  status: ('A' for Active; 'I' for Inactive)
REMARK    1  A    between atoms: C_1  and  O_37 
REMARK    2  A    between atoms: C_3  and  O_8 
REMARK    3  A    between atoms: C_4  and  O_7 
REMARK    4  A    between atoms: C_5  and  O_6 
REMARK    5  A    between atoms: O_8  and  C_9 
REMARK    6  A    between atoms: C_9  and  C_11 
REMARK    7  A    between atoms: C_19  and  C_41 
REMARK    8  A    between atoms: C_23  and  C_44 
REMARK    9  A    between atoms: C_25  and  O_37 
REMARK   10  A    between atoms: C_27  and  O_35 
REMARK   11  A    between atoms: C_32  and  C_36 
REMARK   12  A    between atoms: C_36  and  O_46 
REMARK   13  A    between atoms: C_41  and  O_42 
REMARK   14  A    between atoms: C_47  and  O_46 
REMARK   15  A    between atoms: C_48  and  O_54 
REMARK   16  A    between atoms: C_49  and  O_56 
REMARK   17  A    between atoms: C_50  and  O_57 
REMARK   18  A    between atoms: O_57  and  C_58 
REMARK   19  A    between atoms: C_58  and  C_59 
REMARK   20  A    between atoms: C_61  and  C_70 
REMARK   21  A    between atoms: C_63  and  O_67 
REMARK   22  A    between atoms: C_65  and  O_69 
ROOT
HETATM    1  C   UNK N   1      27.651  15.540   3.013  0.00  0.00    -0.065 C 
HETATM    2  C   UNK N   1      27.934  15.312   1.563  0.00  0.00     0.048 C 
HETATM    3  C   UNK N   1      27.499  16.795   3.437  0.00  0.00    -0.018 C 
HETATM    4  O   UNK N   1      25.271  16.305   5.957  0.00  0.00    -0.309 OA
HETATM    5  C   UNK N   1      27.228  17.103   4.876  0.00  0.00     0.063 C 
HETATM    6  C   UNK N   1      25.741  17.233   5.049  0.00  0.00     0.164 C 
HETATM    7  C   UNK N   1      28.081  13.222   3.885  0.00  0.00    -0.054 C 
HETATM    8  C   UNK N   1      27.789  12.198   4.934  0.00  0.00     0.046 C 
HETATM    9  C   UNK N   1      27.489  14.410   3.967  0.00  0.00     0.011 C 
HETATM   10  C   UNK N   1      28.890  11.782   1.895  0.00  0.00     0.041 C 
HETATM   11  C   UNK N   1      27.471  11.209   1.942  0.00  0.00    -0.014 C 
HETATM   12  C   UNK N   1      29.152  12.975   2.869  0.00  0.00     0.161 C 
HETATM   13  C   UNK N   1      26.981  10.196   1.193  0.00  0.00    -0.058 C 
HETATM   14  C   UNK N   1      25.543   9.740   1.378  0.00  0.00     0.150 C 
HETATM   15  C   UNK N   1      24.505  10.829   1.122  0.00  0.00     0.063 C 
HETATM   16  C   UNK N   1      24.249  11.486   2.428  0.00  0.00    -0.024 C 
HETATM   17  C   UNK N   1      24.354  12.795   2.573  0.00  0.00    -0.003 C 
HETATM   18  C   UNK N   1      24.359  13.341   3.935  0.00  0.00     0.015 C 
HETATM   19  C   UNK N   1      24.549  14.641   4.190  0.00  0.00     0.041 C 
HETATM   20  C   UNK N   1      24.760  15.079   5.616  0.00  0.00     0.291 C 
HETATM   21  O   UNK N   1      24.518  14.287   6.514  0.00  0.00    -0.260 OA
HETATM   22  C   UNK N   1      27.860   9.461   0.226  0.00  0.00     0.046 C 
ENDROOT
BRANCH  19  23
HETATM   23  C   UNK N   1      24.650  15.622   3.044  0.00  0.00     0.216 C 
BRANCH  23  24
HETATM   24  O   UNK N   1      23.551  16.499   2.982  0.00  0.00    -0.354 OA
BRANCH  24  25
HETATM   25  C   UNK N   1      22.329  15.794   3.127  0.00  0.00     0.292 C 
HETATM   26  C   UNK N   1      21.332  16.531   4.058  0.00  0.00     0.207 C 
HETATM   27  C   UNK N   1      19.868  16.153   3.832  0.00  0.00     0.184 C 
HETATM   28  C   UNK N   1      19.738  14.848   3.079  0.00  0.00     0.192 C 
HETATM   29  C   UNK N   1      20.447  15.170   1.779  0.00  0.00     0.152 C 
HETATM   30  O   UNK N   1      21.853  15.143   1.941  0.00  0.00    -0.351 OA
HETATM   31  C   UNK N   1      20.001  14.211   0.687  0.00  0.00     0.042 C 
BRANCH  26  32
HETATM   32  O   UNK N   1      21.485  17.918   3.998  0.00  0.00    -0.383 OA
HETATM   33  C   UNK N   1      21.646  18.313   5.326  0.00  0.00     0.202 C 
ENDBRANCH  26  32
BRANCH  27  34
HETATM   34  O   UNK N   1      19.158  16.142   5.030  0.00  0.00    -0.390 OA
HETATM   35  H   UNK N   1      18.443  15.500   5.164  0.00  0.00     0.210 HD
ENDBRANCH  27  34
BRANCH  28  36
HETATM   36  O   UNK N   1      20.362  13.823   3.788  0.00  0.00    -0.307 OA
BRANCH  36  37
HETATM   37  C   UNK N   1      19.826  13.226   4.880  0.00  0.00     0.297 C 
HETATM   38  O   UNK N   1      18.613  13.057   4.938  0.00  0.00    -0.259 OA
BRANCH  37  39
HETATM   39  C   UNK N   1      20.680  12.803   6.017  0.00  0.00     0.082 A 
HETATM   40  C   UNK N   1      21.507  11.647   5.926  0.00  0.00    -0.015 A 
HETATM   41  C   UNK N   1      22.333  11.300   7.008  0.00  0.00     0.076 A 
HETATM   42  C   UNK N   1      22.343  12.078   8.170  0.00  0.00     0.112 A 
HETATM   43 Cl   UNK N   1      23.364   9.870   6.918  0.00  0.00    -0.081 Cl
HETATM   44  C   UNK N   1      21.527  13.208   8.269  0.00  0.00     0.103 A 
HETATM   45  C   UNK N   1      20.700  13.570   7.206  0.00  0.00     0.107 A 
HETATM   46 Cl   UNK N   1      21.555  14.187   9.732  0.00  0.00    -0.078 Cl
BRANCH  40  47
HETATM   47  C   UNK N   1      21.516  10.765   4.706  0.00  0.00     0.037 C 
HETATM   48  C   UNK N   1      20.474   9.662   4.823  0.00  0.00     0.010 C 
ENDBRANCH  40  47
BRANCH  42  49
HETATM   49  O   UNK N   1      23.140  11.737   9.198  0.00  0.00    -0.357 OA
HETATM   50  H   UNK N   1      24.024  11.469   9.040  0.00  0.00     0.217 HD
ENDBRANCH  42  49
BRANCH  45  51
HETATM   51  O   UNK N   1      19.937  14.678   7.324  0.00  0.00    -0.358 OA
HETATM   52  H   UNK N   1      19.757  15.055   8.163  0.00  0.00     0.217 HD
ENDBRANCH  45  51
ENDBRANCH  37  39
ENDBRANCH  36  37
ENDBRANCH  28  36
ENDBRANCH  24  25
ENDBRANCH  23  24
ENDBRANCH  19  23
BRANCH   6  53
HETATM   53  C   UNK N   1      25.309  18.665   5.346  0.00  0.00     0.144 C 
HETATM   54  C   UNK N   1      25.003  19.404   4.054  0.00  0.00     0.042 C 
BRANCH  53  55
HETATM   55  O   UNK N   1      26.293  19.348   6.062  0.00  0.00    -0.393 OA
HETATM   56  H   UNK N   1      27.257  19.339   5.952  0.00  0.00     0.210 HD
ENDBRANCH  53  55
ENDBRANCH   6  53
BRANCH  14  57
HETATM   57  O   UNK N   1      25.246   8.633   0.581  0.00  0.00    -0.391 OA
HETATM   58  H   UNK N   1      25.162   7.748   0.971  0.00  0.00     0.210 HD
ENDBRANCH  14  57
BRANCH  10  59
HETATM   59  C   UNK N   1      30.024  10.756   1.839  0.00  0.00     0.007 C 
HETATM   60  C   UNK N   1      30.985  11.024   0.698  0.00  0.00     0.006 C 
ENDBRANCH  10  59
BRANCH  12  61
HETATM   61  O   UNK N   1      30.394  12.947   3.541  0.00  0.00    -0.348 OA
BRANCH  61  62
HETATM   62  C   UNK N   1      31.146  14.083   3.149  0.00  0.00     0.293 C 
HETATM   63  O   UNK N   1      30.651  15.286   3.765  0.00  0.00    -0.346 OA
HETATM   64  C   UNK N   1      31.644  16.187   4.234  0.00  0.00     0.086 C 
HETATM   65  C   UNK N   1      32.523  15.459   5.261  0.00  0.00     0.197 C 
HETATM   66  C   UNK N   1      32.412  16.785   3.061  0.00  0.00     0.048 C 
HETATM   67  C   UNK N   1      30.976  17.349   4.938  0.00  0.00     0.048 C 
HETATM   68  C   UNK N   1      33.128  14.127   4.805  0.00  0.00     0.184 C 
HETATM   69  C   UNK N   1      32.657  13.829   3.374  0.00  0.00     0.204 C 
BRANCH  65  70
HETATM   70  O   UNK N   1      33.228  16.236   6.174  0.00  0.00    -0.310 OA
BRANCH  70  71
HETATM   71  C   UNK N   1      33.184  16.090   7.527  0.00  0.00     0.262 C 
HETATM   72  O   UNK N   1      33.207  14.982   8.039  0.00  0.00    -0.265 OA
BRANCH  71  73
HETATM   73  C   UNK N   1      33.160  17.300   8.408  0.00  0.00     0.077 C 
HETATM   74  C   UNK N   1      31.786  17.937   8.419  0.00  0.00     0.020 C 
HETATM   75  C   UNK N   1      34.189  18.313   7.938  0.00  0.00     0.020 C 
ENDBRANCH  71  73
ENDBRANCH  70  71
ENDBRANCH  65  70
BRANCH  68  76
HETATM   76  O   UNK N   1      34.521  14.183   4.829  0.00  0.00    -0.390 OA
HETATM   77  H   UNK N   1      34.969  14.943   5.233  0.00  0.00     0.210 HD
ENDBRANCH  68  76
BRANCH  69  78
HETATM   78  O   UNK N   1      33.027  12.548   2.965  0.00  0.00    -0.388 OA
HETATM   79  H   UNK N   1      33.494  12.402   2.127  0.00  0.00     0.210 HD
ENDBRANCH  69  78
ENDBRANCH  61  62
ENDBRANCH  12  61
TORSDOF 22
ENDMDL
MODEL 2
REMARK VINA RESULT:      -7.5      2.870      6.946
REMARK  22 active torsions:
REMARK  status: ('A' for Active; 'I' for Inactive)
REMARK    1  A    between atoms: C_1  and  O_37 
REMARK    2  A    between atoms: C_3  and  O_8 
REMARK    3  A    between atoms: C_4  and  O_7 
REMARK    4  A    between atoms: C_5  and  O_6 
REMARK    5  A    between atoms: O_8  and  C_9 
REMARK    6  A    between atoms: C_9  and  C_11 
REMARK    7  A    between atoms: C_19  and  C_41 
REMARK    8  A    between atoms: C_23  and  C_44 
REMARK    9  A    between atoms: C_25  and  O_37 
REMARK   10  A    between atoms: C_27  and  O_35 
REMARK   11  A    between atoms: C_32  and  C_36 
REMARK   12  A    between atoms: C_36  and  O_46 
REMARK   13  A    between atoms: C_41  and  O_42 
REMARK   14  A    between atoms: C_47  and  O_46 
REMARK   15  A    between atoms: C_48  and  O_54 
REMARK   16  A    between atoms: C_49  and  O_56 
REMARK   17  A    between atoms: C_50  and  O_57 
REMARK   18  A    between atoms: O_57  and  C_58 
REMARK   19  A    between atoms: C_58  and  C_59 
REMARK   20  A    between atoms: C_61  and  C_70 
REMARK   21  A    between atoms: C_63  and  O_67 
REMARK   22  A    between atoms: C_65  and  O_69 
ROOT
HETATM    1  C   UNK N   1      27.861  13.347   3.827  0.00  0.00    -0.065 C 
HETATM    2  C   UNK N   1      28.496  12.583   4.943  0.00  0.00     0.048 C 
HETATM    3  C   UNK N   1      26.826  12.795   3.192  0.00  0.00    -0.018 C 
HETATM    4  O   UNK N   1      25.077  15.589   2.363  0.00  0.00    -0.309 OA
HETATM    5  C   UNK N   1      26.148  13.493   2.055  0.00  0.00     0.063 C 
HETATM    6  C   UNK N   1      24.965  14.235   2.609  0.00  0.00     0.164 C 
HETATM    7  C   UNK N   1      29.559  15.183   3.566  0.00  0.00    -0.054 C 
HETATM    8  C   UNK N   1      29.836  16.589   3.144  0.00  0.00     0.046 C 
HETATM    9  C   UNK N   1      28.321  14.711   3.449  0.00  0.00     0.011 C 
HETATM   10  C   UNK N   1      31.489  14.694   5.216  0.00  0.00     0.041 C 
HETATM   11  C   UNK N   1      30.852  15.815   6.042  0.00  0.00    -0.014 C 
HETATM   12  C   UNK N   1      30.686  14.274   3.943  0.00  0.00     0.161 C 
HETATM   13  C   UNK N   1      31.328  16.346   7.190  0.00  0.00    -0.058 C 
HETATM   14  C   UNK N   1      30.571  17.470   7.879  0.00  0.00     0.150 C 
HETATM   15  C   UNK N   1      29.147  17.105   8.287  0.00  0.00     0.063 C 
HETATM   16  C   UNK N   1      28.269  17.486   7.152  0.00  0.00    -0.024 C 
HETATM   17  C   UNK N   1      27.436  16.619   6.603  0.00  0.00    -0.003 C 
HETATM   18  C   UNK N   1      26.810  16.976   5.326  0.00  0.00     0.015 C 
HETATM   19  C   UNK N   1      26.022  16.133   4.648  0.00  0.00     0.041 C 
HETATM   20  C   UNK N   1      25.603  16.496   3.247  0.00  0.00     0.291 C 
HETATM   21  O   UNK N   1      25.789  17.639   2.858  0.00  0.00    -0.260 OA
HETATM   22  C   UNK N   1      32.636  15.891   7.762  0.00  0.00     0.046 C 
ENDROOT
BRANCH  19  23
HETATM   23  C   UNK N   1      25.655  14.798   5.257  0.00  0.00     0.216 C 
BRANCH  23  24
HETATM   24  O   UNK N   1      24.995  14.928   6.493  0.00  0.00    -0.354 OA
BRANCH  24  25
HETATM   25  C   UNK N   1      23.594  14.778   6.339  0.00  0.00     0.292 C 
HETATM   26  C   UNK N   1      23.180  13.300   6.118  0.00  0.00     0.207 C 
HETATM   27  C   UNK N   1      21.730  12.993   6.489  0.00  0.00     0.184 C 
HETATM   28  C   UNK N   1      20.895  14.251   6.568  0.00  0.00     0.192 C 
HETATM   29  C   UNK N   1      21.608  15.026   7.659  0.00  0.00     0.152 C 
HETATM   30  O   UNK N   1      22.792  15.628   7.172  0.00  0.00    -0.351 OA
HETATM   31  C   UNK N   1      20.673  16.062   8.264  0.00  0.00     0.042 C 
BRANCH  26  32
HETATM   32  O   UNK N   1      24.041  12.412   6.766  0.00  0.00    -0.383 OA
HETATM   33  C   UNK N   1      24.421  11.504   5.777  0.00  0.00     0.202 C 
ENDBRANCH  26  32
BRANCH  27  34
HETATM   34  O   UNK N   1      21.176  12.049   5.627  0.00  0.00    -0.390 OA
HETATM   35  H   UNK N   1      21.178  12.207   4.670  0.00  0.00     0.210 HD
ENDBRANCH  27  34
BRANCH  28  36
HETATM   36  O   UNK N   1      20.913  14.916   5.344  0.00  0.00    -0.307 OA
BRANCH  36  37
HETATM   37  C   UNK N   1      19.853  15.590   4.835  0.00  0.00     0.297 C 
HETATM   38  O   UNK N   1      18.756  15.474   5.368  0.00  0.00    -0.259 OA
BRANCH  37  39
HETATM   39  C   UNK N   1      19.994  16.440   3.627  0.00  0.00     0.082 A 
HETATM   40  C   UNK N   1      20.597  17.729   3.701  0.00  0.00    -0.015 A 
HETATM   41  C   UNK N   1      20.750  18.489   2.529  0.00  0.00     0.076 A 
HETATM   42  C   UNK N   1      20.313  17.990   1.298  0.00  0.00     0.112 A 
HETATM   43 Cl   UNK N   1      21.492  20.089   2.597  0.00  0.00    -0.081 Cl
HETATM   44  C   UNK N   1      19.713  16.730   1.221  0.00  0.00     0.103 A 
HETATM   45  C   UNK N   1      19.551  15.959   2.372  0.00  0.00     0.107 A 
HETATM   46 Cl   UNK N   1      19.175  16.105  -0.335  0.00  0.00    -0.078 Cl
BRANCH  40  47
HETATM   47  C   UNK N   1      21.064  18.319   5.004  0.00  0.00     0.037 C 
HETATM   48  C   UNK N   1      22.570  18.170   5.161  0.00  0.00     0.010 C 
ENDBRANCH  40  47
BRANCH  42  49
HETATM   49  O   UNK N   1      20.468  18.725   0.183  0.00  0.00    -0.357 OA
HETATM   50  H   UNK N   1      19.726  18.943  -0.345  0.00  0.00     0.217 HD
ENDBRANCH  42  49
BRANCH  45  51
HETATM   51  O   UNK N   1      18.985  14.738   2.263  0.00  0.00    -0.358 OA
HETATM   52  H   UNK N   1      19.509  13.969   2.154  0.00  0.00     0.217 HD
ENDBRANCH  45  51
ENDBRANCH  37  39
ENDBRANCH  36  37
ENDBRANCH  28  36
ENDBRANCH  24  25
ENDBRANCH  23  24
ENDBRANCH  19  23
BRANCH   6  53
HETATM   53  C   UNK N   1      23.636  13.633   2.166  0.00  0.00     0.144 C 
HETATM   54  C   UNK N   1      23.451  13.805   0.668  0.00  0.00     0.042 C 
BRANCH  53  55
HETATM   55  O   UNK N   1      22.567  14.216   2.847  0.00  0.00    -0.393 OA
HETATM   56  H   UNK N   1      22.272  15.140   2.859  0.00  0.00     0.210 HD
ENDBRANCH  53  55
ENDBRANCH   6  53
BRANCH  14  57
HETATM   57  O   UNK N   1      31.257  17.944   8.998  0.00  0.00    -0.391 OA
HETATM   58  H   UNK N   1      32.144  18.330   8.911  0.00  0.00     0.210 HD
ENDBRANCH  14  57
BRANCH  10  59
HETATM   59  C   UNK N   1      33.001  14.800   4.999  0.00  0.00     0.007 C 
HETATM   60  C   UNK N   1      33.384  16.054   4.238  0.00  0.00     0.006 C 
ENDBRANCH  10  59
BRANCH  12  61
HETATM   61  O   UNK N   1      31.463  14.037   2.787  0.00  0.00    -0.348 OA
BRANCH  61  62
HETATM   62  C   UNK N   1      31.250  12.701   2.366  0.00  0.00     0.293 C 
HETATM   63  O   UNK N   1      30.480  12.641   1.152  0.00  0.00    -0.346 OA
HETATM   64  C   UNK N   1      30.918  11.687   0.196  0.00  0.00     0.086 C 
HETATM   65  C   UNK N   1      32.372  12.001  -0.183  0.00  0.00     0.197 C 
HETATM   66  C   UNK N   1      30.696  10.273   0.720  0.00  0.00     0.048 C 
HETATM   67  C   UNK N   1      30.077  11.809  -1.057  0.00  0.00     0.048 C 
HETATM   68  C   UNK N   1      33.357  12.136   0.983  0.00  0.00     0.184 C 
HETATM   69  C   UNK N   1      32.598  11.939   2.302  0.00  0.00     0.204 C 
BRANCH  65  70
HETATM   70  O   UNK N   1      32.840  11.521  -1.402  0.00  0.00    -0.310 OA
BRANCH  70  71
HETATM   71  C   UNK N   1      33.308  12.294  -2.421  0.00  0.00     0.262 C 
HETATM   72  O   UNK N   1      32.756  12.299  -3.510  0.00  0.00    -0.265 OA
BRANCH  71  73
HETATM   73  C   UNK N   1      34.486  13.191  -2.197  0.00  0.00     0.077 C 
HETATM   74  C   UNK N   1      34.593  14.232  -3.292  0.00  0.00     0.020 C 
HETATM   75  C   UNK N   1      35.765  12.374  -2.141  0.00  0.00     0.020 C 
ENDBRANCH  71  73
ENDBRANCH  70  71
ENDBRANCH  65  70
BRANCH  68  76
HETATM   76  O   UNK N   1      34.370  11.181   0.886  0.00  0.00    -0.390 OA
HETATM   77  H   UNK N   1      35.199  11.398   0.432  0.00  0.00     0.210 HD
ENDBRANCH  68  76
BRANCH  69  78
HETATM   78  O   UNK N   1      33.400  12.225   3.407  0.00  0.00    -0.388 OA
HETATM   79  H   UNK N   1      34.043  11.581   3.742  0.00  0.00     0.210 HD
ENDBRANCH  69  78
ENDBRANCH  61  62
ENDBRANCH  12  61
TORSDOF 22
ENDMDL
MODEL 3
REMARK VINA RESULT:      -7.4      2.464      4.636
REMARK  22 active torsions:
REMARK  status: ('A' for Active; 'I' for Inactive)
REMARK    1  A    between atoms: C_1  and  O_37 
REMARK    2  A    between atoms: C_3  and  O_8 
REMARK    3  A    between atoms: C_4  and  O_7 
REMARK    4  A    between atoms: C_5  and  O_6 
REMARK    5  A    between atoms: O_8  and  C_9 
REMARK    6  A    between atoms: C_9  and  C_11 
REMARK    7  A    between atoms: C_19  and  C_41 
REMARK    8  A    between atoms: C_23  and  C_44 
REMARK    9  A    between atoms: C_25  and  O_37 
REMARK   10  A    between atoms: C_27  and  O_35 
REMARK   11  A    between atoms: C_32  and  C_36 
REMARK   12  A    between atoms: C_36  and  O_46 
REMARK   13  A    between atoms: C_41  and  O_42 
REMARK   14  A    between atoms: C_47  and  O_46 
REMARK   15  A    between atoms: C_48  and  O_54 
REMARK   16  A    between atoms: C_49  and  O_56 
REMARK   17  A    between atoms: C_50  and  O_57 
REMARK   18  A    between atoms: O_57  and  C_58 
REMARK   19  A    between atoms: C_58  and  C_59 
REMARK   20  A    between atoms: C_61  and  C_70 
REMARK   21  A    between atoms: C_63  and  O_67 
REMARK   22  A    between atoms: C_65  and  O_69 
ROOT
HETATM    1  C   UNK N   1      26.182  13.812   3.864  0.00  0.00    -0.065 C 
HETATM    2  C   UNK N   1      26.383  14.362   2.489  0.00  0.00     0.048 C 
HETATM    3  C   UNK N   1      25.312  14.424   4.668  0.00  0.00    -0.018 C 
HETATM    4  O   UNK N   1      24.203  11.768   6.476  0.00  0.00    -0.309 OA
HETATM    5  C   UNK N   1      25.068  13.940   6.062  0.00  0.00     0.063 C 
HETATM    6  C   UNK N   1      23.870  13.033   6.033  0.00  0.00     0.164 C 
HETATM    7  C   UNK N   1      28.085  12.169   3.933  0.00  0.00    -0.054 C 
HETATM    8  C   UNK N   1      28.629  10.899   4.500  0.00  0.00     0.046 C 
HETATM    9  C   UNK N   1      26.884  12.584   4.327  0.00  0.00     0.011 C 
HETATM   10  C   UNK N   1      29.401  12.414   1.720  0.00  0.00     0.041 C 
HETATM   11  C   UNK N   1      28.690  11.112   1.341  0.00  0.00    -0.014 C 
HETATM   12  C   UNK N   1      28.947  13.043   3.076  0.00  0.00     0.161 C 
HETATM   13  C   UNK N   1      28.880  10.382   0.219  0.00  0.00    -0.058 C 
HETATM   14  C   UNK N   1      28.094   9.098   0.005  0.00  0.00     0.150 C 
HETATM   15  C   UNK N   1      26.581   9.289  -0.017  0.00  0.00     0.063 C 
HETATM   16  C   UNK N   1      26.110   9.102   1.378  0.00  0.00    -0.024 C 
HETATM   17  C   UNK N   1      25.371  10.016   1.984  0.00  0.00    -0.003 C 
HETATM   18  C   UNK N   1      25.177   9.897   3.433  0.00  0.00     0.015 C 
HETATM   19  C   UNK N   1      24.520  10.817   4.151  0.00  0.00     0.041 C 
HETATM   20  C   UNK N   1      24.559  10.729   5.655  0.00  0.00     0.291 C 
HETATM   21  O   UNK N   1      24.977   9.704   6.172  0.00  0.00    -0.260 OA
HETATM   22  C   UNK N   1      29.912  10.782  -0.791  0.00  0.00     0.046 C 
ENDROOT
BRANCH  19  23
HETATM   23  C   UNK N   1      23.845  11.973   3.448  0.00  0.00     0.216 C 
BRANCH  23  24
HETATM   24  O   UNK N   1      22.640  11.600   2.825  0.00  0.00    -0.354 OA
BRANCH  24  25
HETATM   25  C   UNK N   1      21.717  12.677   2.817  0.00  0.00     0.292 C 
HETATM   26  C   UNK N   1      21.722  13.445   1.469  0.00  0.00     0.207 C 
HETATM   27  C   UNK N   1      20.434  14.217   1.184  0.00  0.00     0.184 C 
HETATM   28  C   UNK N   1      19.621  14.431   2.441  0.00  0.00     0.192 C 
HETATM   29  C   UNK N   1      19.343  13.006   2.875  0.00  0.00     0.152 C 
HETATM   30  O   UNK N   1      20.477  12.427   3.492  0.00  0.00    -0.351 OA
HETATM   31  C   UNK N   1      18.134  12.963   3.796  0.00  0.00     0.042 C 
BRANCH  26  32
HETATM   32  O   UNK N   1      22.032  12.613   0.392  0.00  0.00    -0.383 OA
HETATM   33  C   UNK N   1      23.261  13.082  -0.073  0.00  0.00     0.202 C 
ENDBRANCH  26  32
BRANCH  27  34
HETATM   34  O   UNK N   1      20.697  15.413   0.519  0.00  0.00    -0.390 OA
HETATM   35  H   UNK N   1      20.093  16.165   0.617  0.00  0.00     0.210 HD
ENDBRANCH  27  34
BRANCH  28  36
HETATM   36  O   UNK N   1      20.369  15.138   3.381  0.00  0.00    -0.307 OA
BRANCH  36  37
HETATM   37  C   UNK N   1      19.999  16.338   3.892  0.00  0.00     0.297 C 
HETATM   38  O   UNK N   1      18.978  16.414   4.565  0.00  0.00    -0.259 OA
BRANCH  37  39
HETATM   39  C   UNK N   1      20.793  17.562   3.623  0.00  0.00     0.082 A 
HETATM   40  C   UNK N   1      22.045  17.782   4.265  0.00  0.00    -0.015 A 
HETATM   41  C   UNK N   1      22.788  18.933   3.955  0.00  0.00     0.076 A 
HETATM   42  C   UNK N   1      22.305  19.861   3.027  0.00  0.00     0.112 A 
HETATM   43 Cl   UNK N   1      24.341  19.228   4.740  0.00  0.00    -0.081 Cl
HETATM   44  C   UNK N   1      21.073  19.654   2.400  0.00  0.00     0.103 A 
HETATM   45  C   UNK N   1      20.319  18.518   2.693  0.00  0.00     0.107 A 
HETATM   46 Cl   UNK N   1      20.477  20.823   1.225  0.00  0.00    -0.078 Cl
BRANCH  40  47
HETATM   47  C   UNK N   1      22.599  16.825   5.287  0.00  0.00     0.037 C 
HETATM   48  C   UNK N   1      21.889  16.985   6.623  0.00  0.00     0.010 C 
ENDBRANCH  40  47
BRANCH  42  49
HETATM   49  O   UNK N   1      23.027  20.957   2.736  0.00  0.00    -0.357 OA
HETATM   50  H   UNK N   1      23.064  21.277   1.855  0.00  0.00     0.217 HD
ENDBRANCH  42  49
BRANCH  45  51
HETATM   51  O   UNK N   1      19.142  18.337   2.058  0.00  0.00    -0.358 OA
HETATM   52  H   UNK N   1      19.108  17.980   1.192  0.00  0.00     0.217 HD
ENDBRANCH  45  51
ENDBRANCH  37  39
ENDBRANCH  36  37
ENDBRANCH  28  36
ENDBRANCH  24  25
ENDBRANCH  23  24
ENDBRANCH  19  23
BRANCH   6  53
HETATM   53  C   UNK N   1      22.660  13.638   6.737  0.00  0.00     0.144 C 
HETATM   54  C   UNK N   1      22.790  13.479   8.243  0.00  0.00     0.042 C 
BRANCH  53  55
HETATM   55  O   UNK N   1      21.475  13.047   6.298  0.00  0.00    -0.393 OA
HETATM   56  H   UNK N   1      20.937  13.248   5.515  0.00  0.00     0.210 HD
ENDBRANCH  53  55
ENDBRANCH   6  53
BRANCH  14  57
HETATM   57  O   UNK N   1      28.487   8.442  -1.163  0.00  0.00    -0.391 OA
HETATM   58  H   UNK N   1      28.312   7.495  -1.283  0.00  0.00     0.210 HD
ENDBRANCH  14  57
BRANCH  10  59
HETATM   59  C   UNK N   1      30.913  12.441   1.490  0.00  0.00     0.007 C 
HETATM   60  C   UNK N   1      31.638  11.397   2.315  0.00  0.00     0.006 C 
ENDBRANCH  10  59
BRANCH  12  61
HETATM   61  O   UNK N   1      29.985  13.558   3.883  0.00  0.00    -0.348 OA
BRANCH  61  62
HETATM   62  C   UNK N   1      29.872  14.970   3.918  0.00  0.00     0.293 C 
HETATM   63  O   UNK N   1      29.112  15.415   5.056  0.00  0.00    -0.346 OA
HETATM   64  C   UNK N   1      29.621  16.562   5.722  0.00  0.00     0.086 C 
HETATM   65  C   UNK N   1      31.050  16.262   6.197  0.00  0.00     0.197 C 
HETATM   66  C   UNK N   1      29.501  17.790   4.827  0.00  0.00     0.048 C 
HETATM   67  C   UNK N   1      28.778  16.848   6.946  0.00  0.00     0.048 C 
HETATM   68  C   UNK N   1      32.019  15.742   5.129  0.00  0.00     0.184 C 
HETATM   69  C   UNK N   1      31.271  15.623   3.794  0.00  0.00     0.204 C 
BRANCH  65  70
HETATM   70  O   UNK N   1      31.556  17.023   7.245  0.00  0.00    -0.310 OA
BRANCH  70  71
HETATM   71  C   UNK N   1      32.221  16.528   8.324  0.00  0.00     0.262 C 
HETATM   72  O   UNK N   1      31.905  15.457   8.819  0.00  0.00    -0.265 OA
BRANCH  71  73
HETATM   73  C   UNK N   1      33.391  17.273   8.887  0.00  0.00     0.077 C 
HETATM   74  C   UNK N   1      34.006  18.186   7.847  0.00  0.00     0.020 C 
HETATM   75  C   UNK N   1      34.440  16.298   9.394  0.00  0.00     0.020 C 
ENDBRANCH  71  73
ENDBRANCH  70  71
ENDBRANCH  65  70
BRANCH  68  76
HETATM   76  O   UNK N   1      33.098  16.613   4.977  0.00  0.00    -0.390 OA
HETATM   77  H   UNK N   1      33.202  17.368   5.578  0.00  0.00     0.210 HD
ENDBRANCH  68  76
BRANCH  69  78
HETATM   78  O   UNK N   1      32.047  14.989   2.823  0.00  0.00    -0.388 OA
HETATM   79  H   UNK N   1      32.617  14.237   3.045  0.00  0.00     0.210 HD
ENDBRANCH  69  78
ENDBRANCH  61  62
ENDBRANCH  12  61
TORSDOF 22
ENDMDL
MODEL 4
REMARK VINA RESULT:      -7.3      1.250      2.032
REMARK  22 active torsions:
REMARK  status: ('A' for Active; 'I' for Inactive)
REMARK    1  A    between atoms: C_1  and  O_37 
REMARK    2  A    between atoms: C_3  and  O_8 
REMARK    3  A    between atoms: C_4  and  O_7 
REMARK    4  A    between atoms: C_5  and  O_6 
REMARK    5  A    between atoms: O_8  and  C_9 
REMARK    6  A    between atoms: C_9  and  C_11 
REMARK    7  A    between atoms: C_19  and  C_41 
REMARK    8  A    between atoms: C_23  and  C_44 
REMARK    9  A    between atoms: C_25  and  O_37 
REMARK   10  A    between atoms: C_27  and  O_35 
REMARK   11  A    between atoms: C_32  and  C_36 
REMARK   12  A    between atoms: C_36  and  O_46 
REMARK   13  A    between atoms: C_41  and  O_42 
REMARK   14  A    between atoms: C_47  and  O_46 
REMARK   15  A    between atoms: C_48  and  O_54 
REMARK   16  A    between atoms: C_49  and  O_56 
REMARK   17  A    between atoms: C_50  and  O_57 
REMARK   18  A    between atoms: O_57  and  C_58 
REMARK   19  A    between atoms: C_58  and  C_59 
REMARK   20  A    between atoms: C_61  and  C_70 
REMARK   21  A    between atoms: C_63  and  O_67 
REMARK   22  A    between atoms: C_65  and  O_69 
ROOT
HETATM    1  C   UNK N   1      28.354  15.799   3.310  0.00  0.00    -0.065 C 
HETATM    2  C   UNK N   1      28.678  15.593   1.865  0.00  0.00     0.048 C 
HETATM    3  C   UNK N   1      28.366  17.043   3.790  0.00  0.00    -0.018 C 
HETATM    4  O   UNK N   1      25.956  16.786   6.173  0.00  0.00    -0.309 OA
HETATM    5  C   UNK N   1      28.066  17.326   5.227  0.00  0.00     0.063 C 
HETATM    6  C   UNK N   1      26.607  17.671   5.336  0.00  0.00     0.164 C 
HETATM    7  C   UNK N   1      28.388  13.406   4.084  0.00  0.00    -0.054 C 
HETATM    8  C   UNK N   1      27.891  12.395   5.065  0.00  0.00     0.046 C 
HETATM    9  C   UNK N   1      27.974  14.666   4.197  0.00  0.00     0.011 C 
HETATM   10  C   UNK N   1      29.082  11.948   2.064  0.00  0.00     0.041 C 
HETATM   11  C   UNK N   1      27.594  11.593   2.016  0.00  0.00    -0.014 C 
HETATM   12  C   UNK N   1      29.465  13.045   3.109  0.00  0.00     0.161 C 
HETATM   13  C   UNK N   1      27.001  10.698   1.194  0.00  0.00    -0.058 C 
HETATM   14  C   UNK N   1      25.503  10.456   1.286  0.00  0.00     0.150 C 
HETATM   15  C   UNK N   1      24.653  11.698   1.037  0.00  0.00     0.063 C 
HETATM   16  C   UNK N   1      24.426  12.330   2.361  0.00  0.00    -0.024 C 
HETATM   17  C   UNK N   1      24.716  13.602   2.577  0.00  0.00    -0.003 C 
HETATM   18  C   UNK N   1      24.728  14.081   3.963  0.00  0.00     0.015 C 
HETATM   19  C   UNK N   1      25.094  15.326   4.292  0.00  0.00     0.041 C 
HETATM   20  C   UNK N   1      25.289  15.666   5.747  0.00  0.00     0.291 C 
HETATM   21  O   UNK N   1      24.884  14.882   6.591  0.00  0.00    -0.260 OA
HETATM   22  C   UNK N   1      27.813   9.882   0.234  0.00  0.00     0.046 C 
ENDROOT
BRANCH  19  23
HETATM   23  C   UNK N   1      25.401  16.329   3.203  0.00  0.00     0.216 C 
BRANCH  23  24
HETATM   24  O   UNK N   1      24.395  17.303   3.063  0.00  0.00    -0.354 OA
BRANCH  24  25
HETATM   25  C   UNK N   1      23.257  16.975   3.844  0.00  0.00     0.292 C 
HETATM   26  C   UNK N   1      22.844  18.130   4.793  0.00  0.00     0.207 C 
HETATM   27  C   UNK N   1      21.380  18.085   5.233  0.00  0.00     0.184 C 
HETATM   28  C   UNK N   1      20.774  16.716   5.018  0.00  0.00     0.192 C 
HETATM   29  C   UNK N   1      20.921  16.546   3.519  0.00  0.00     0.152 C 
HETATM   30  O   UNK N   1      22.250  16.209   3.168  0.00  0.00    -0.351 OA
HETATM   31  C   UNK N   1      19.938  15.504   3.010  0.00  0.00     0.042 C 
BRANCH  26  32
HETATM   32  O   UNK N   1      23.147  19.383   4.258  0.00  0.00    -0.383 OA
HETATM   33  C   UNK N   1      22.060  19.688   3.438  0.00  0.00     0.202 C 
ENDBRANCH  26  32
BRANCH  27  34
HETATM   34  O   UNK N   1      21.233  18.524   6.547  0.00  0.00    -0.390 OA
HETATM   35  H   UNK N   1      20.965  17.900   7.239  0.00  0.00     0.210 HD
ENDBRANCH  27  34
BRANCH  28  36
HETATM   36  O   UNK N   1      21.488  15.758   5.736  0.00  0.00    -0.307 OA
BRANCH  36  37
HETATM   37  C   UNK N   1      20.908  14.744   6.423  0.00  0.00     0.297 C 
HETATM   38  O   UNK N   1      19.747  14.859   6.797  0.00  0.00    -0.259 OA
BRANCH  37  39
HETATM   39  C   UNK N   1      21.667  13.512   6.754  0.00  0.00     0.082 A 
HETATM   40  C   UNK N   1      22.065  13.232   8.092  0.00  0.00    -0.015 A 
HETATM   41  C   UNK N   1      22.747  12.036   8.375  0.00  0.00     0.076 A 
HETATM   42  C   UNK N   1      23.038  11.127   7.353  0.00  0.00     0.112 A 
HETATM   43 Cl   UNK N   1      23.253  11.669  10.025  0.00  0.00    -0.081 Cl
HETATM   44  C   UNK N   1      22.656  11.401   6.036  0.00  0.00     0.103 A 
HETATM   45  C   UNK N   1      21.979  12.582   5.734  0.00  0.00     0.107 A 
HETATM   46 Cl   UNK N   1      23.018  10.246   4.757  0.00  0.00    -0.078 Cl
BRANCH  40  47
HETATM   47  C   UNK N   1      21.795  14.187   9.224  0.00  0.00     0.037 C 
HETATM   48  C   UNK N   1      20.518  13.813   9.960  0.00  0.00     0.010 C 
ENDBRANCH  40  47
BRANCH  42  49
HETATM   49  O   UNK N   1      23.687   9.985   7.636  0.00  0.00    -0.357 OA
HETATM   50  H   UNK N   1      24.159   9.898   8.441  0.00  0.00     0.217 HD
ENDBRANCH  42  49
BRANCH  45  51
HETATM   51  O   UNK N   1      21.608  12.810   4.456  0.00  0.00    -0.358 OA
HETATM   52  H   UNK N   1      20.747  13.117   4.249  0.00  0.00     0.217 HD
ENDBRANCH  45  51
ENDBRANCH  37  39
ENDBRANCH  36  37
ENDBRANCH  28  36
ENDBRANCH  24  25
ENDBRANCH  23  24
ENDBRANCH  19  23
BRANCH   6  53
HETATM   53  C   UNK N   1      26.377  19.137   5.684  0.00  0.00     0.144 C 
HETATM   54  C   UNK N   1      26.754  20.025   4.510  0.00  0.00     0.042 C 
BRANCH  53  55
HETATM   55  O   UNK N   1      27.107  19.507   6.813  0.00  0.00    -0.393 OA
HETATM   56  H   UNK N   1      27.254  20.387   7.194  0.00  0.00     0.210 HD
ENDBRANCH  53  55
ENDBRANCH   6  53
BRANCH  14  57
HETATM   57  O   UNK N   1      25.090   9.441   0.422  0.00  0.00    -0.391 OA
HETATM   58  H   UNK N   1      25.736   8.849   0.006  0.00  0.00     0.210 HD
ENDBRANCH  14  57
BRANCH  10  59
HETATM   59  C   UNK N   1      30.054  10.766   2.010  0.00  0.00     0.007 C 
HETATM   60  C   UNK N   1      31.117  10.946   0.946  0.00  0.00     0.006 C 
ENDBRANCH  10  59
BRANCH  12  61
HETATM   61  O   UNK N   1      30.651  12.802   3.837  0.00  0.00    -0.348 OA
BRANCH  61  62
HETATM   62  C   UNK N   1      31.651  13.698   3.383  0.00  0.00     0.293 C 
HETATM   63  O   UNK N   1      31.350  15.058   3.744  0.00  0.00    -0.346 OA
HETATM   64  C   UNK N   1      32.452  15.828   4.201  0.00  0.00     0.086 C 
HETATM   65  C   UNK N   1      33.060  15.137   5.430  0.00  0.00     0.197 C 
HETATM   66  C   UNK N   1      33.438  16.068   3.063  0.00  0.00     0.048 C 
HETATM   67  C   UNK N   1      31.966  17.195   4.632  0.00  0.00     0.048 C 
HETATM   68  C   UNK N   1      33.426  13.660   5.259  0.00  0.00     0.184 C 
HETATM   69  C   UNK N   1      33.049  13.214   3.839  0.00  0.00     0.204 C 
BRANCH  65  70
HETATM   70  O   UNK N   1      33.813  15.917   6.303  0.00  0.00    -0.310 OA
BRANCH  70  71
HETATM   71  C   UNK N   1      33.744  15.861   7.661  0.00  0.00     0.262 C 
HETATM   72  O   UNK N   1      34.120  14.871   8.269  0.00  0.00    -0.265 OA
BRANCH  71  73
HETATM   73  C   UNK N   1      33.249  17.045   8.433  0.00  0.00     0.077 C 
HETATM   74  C   UNK N   1      31.746  17.186   8.309  0.00  0.00     0.020 C 
HETATM   75  C   UNK N   1      33.924  18.313   7.938  0.00  0.00     0.020 C 
ENDBRANCH  71  73
ENDBRANCH  70  71
ENDBRANCH  65  70
BRANCH  68  76
HETATM   76  O   UNK N   1      34.793  13.463   5.457  0.00  0.00    -0.390 OA
HETATM   77  H   UNK N   1      35.434  14.060   5.039  0.00  0.00     0.210 HD
ENDBRANCH  68  76
BRANCH  69  78
HETATM   78  O   UNK N   1      33.193  11.836   3.675  0.00  0.00    -0.388 OA
HETATM   79  H   UNK N   1      32.802  11.211   4.305  0.00  0.00     0.210 HD
ENDBRANCH  69  78
ENDBRANCH  61  62
ENDBRANCH  12  61
TORSDOF 22
ENDMDL
MODEL 5
REMARK VINA RESULT:      -7.2      3.267      8.938
REMARK  22 active torsions:
REMARK  status: ('A' for Active; 'I' for Inactive)
REMARK    1  A    between atoms: C_1  and  O_37 
REMARK    2  A    between atoms: C_3  and  O_8 
REMARK    3  A    between atoms: C_4  and  O_7 
REMARK    4  A    between atoms: C_5  and  O_6 
REMARK    5  A    between atoms: O_8  and  C_9 
REMARK    6  A    between atoms: C_9  and  C_11 
REMARK    7  A    between atoms: C_19  and  C_41 
REMARK    8  A    between atoms: C_23  and  C_44 
REMARK    9  A    between atoms: C_25  and  O_37 
REMARK   10  A    between atoms: C_27  and  O_35 
REMARK   11  A    between atoms: C_32  and  C_36 
REMARK   12  A    between atoms: C_36  and  O_46 
REMARK   13  A    between atoms: C_41  and  O_42 
REMARK   14  A    between atoms: C_47  and  O_46 
REMARK   15  A    between atoms: C_48  and  O_54 
REMARK   16  A    between atoms: C_49  and  O_56 
REMARK   17  A    between atoms: C_50  and  O_57 
REMARK   18  A    between atoms: O_57  and  C_58 
REMARK   19  A    between atoms: C_58  and  C_59 
REMARK   20  A    between atoms: C_61  and  C_70 
REMARK   21  A    between atoms: C_63  and  O_67 
REMARK   22  A    between atoms: C_65  and  O_69 
ROOT
HETATM    1  C   UNK N   1      23.430  11.231   5.880  0.00  0.00    -0.065 C 
HETATM    2  C   UNK N   1      24.084  11.419   4.549  0.00  0.00     0.048 C 
HETATM    3  C   UNK N   1      24.210  11.058   6.948  0.00  0.00    -0.018 C 
HETATM    4  O   UNK N   1      22.277  12.510   9.337  0.00  0.00    -0.309 OA
HETATM    5  C   UNK N   1      23.628  10.850   8.310  0.00  0.00     0.063 C 
HETATM    6  C   UNK N   1      23.576  12.185   8.999  0.00  0.00     0.164 C 
HETATM    7  C   UNK N   1      21.049  10.932   5.130  0.00  0.00    -0.054 C 
HETATM    8  C   UNK N   1      19.599  11.064   5.465  0.00  0.00     0.046 C 
HETATM    9  C   UNK N   1      21.952  11.284   6.041  0.00  0.00     0.011 C 
HETATM   10  C   UNK N   1      21.040  10.966   2.544  0.00  0.00     0.041 C 
HETATM   11  C   UNK N   1      20.486  12.382   2.726  0.00  0.00    -0.014 C 
HETATM   12  C   UNK N   1      21.471  10.252   3.865  0.00  0.00     0.161 C 
HETATM   13  C   UNK N   1      20.064  13.218   1.751  0.00  0.00    -0.058 C 
HETATM   14  C   UNK N   1      19.527  14.594   2.109  0.00  0.00     0.150 C 
HETATM   15  C   UNK N   1      20.523  15.480   2.851  0.00  0.00     0.063 C 
HETATM   16  C   UNK N   1      20.304  15.243   4.300  0.00  0.00    -0.024 C 
HETATM   17  C   UNK N   1      21.299  14.898   5.100  0.00  0.00    -0.003 C 
HETATM   18  C   UNK N   1      20.967  14.415   6.445  0.00  0.00     0.015 C 
HETATM   19  C   UNK N   1      21.894  13.960   7.296  0.00  0.00     0.041 C 
HETATM   20  C   UNK N   1      21.446  13.281   8.565  0.00  0.00     0.291 C 
HETATM   21  O   UNK N   1      20.274  13.374   8.896  0.00  0.00    -0.260 OA
HETATM   22  C   UNK N   1      20.051  12.781   0.317  0.00  0.00     0.046 C 
ENDROOT
BRANCH  19  23
HETATM   23  C   UNK N   1      23.358  14.045   6.926  0.00  0.00     0.216 C 
BRANCH  23  24
HETATM   24  O   UNK N   1      23.820  15.371   6.837  0.00  0.00    -0.354 OA
BRANCH  24  25
HETATM   25  C   UNK N   1      24.901  15.473   5.925  0.00  0.00     0.292 C 
HETATM   26  C   UNK N   1      24.575  16.407   4.730  0.00  0.00     0.207 C 
HETATM   27  C   UNK N   1      25.807  16.991   4.038  0.00  0.00     0.184 C 
HETATM   28  C   UNK N   1      27.057  16.207   4.368  0.00  0.00     0.192 C 
HETATM   29  C   UNK N   1      27.128  16.358   5.874  0.00  0.00     0.152 C 
HETATM   30  O   UNK N   1      26.205  15.502   6.521  0.00  0.00    -0.351 OA
HETATM   31  C   UNK N   1      28.546  16.105   6.361  0.00  0.00     0.042 C 
BRANCH  26  32
HETATM   32  O   UNK N   1      23.695  17.430   5.089  0.00  0.00    -0.383 OA
HETATM   33  C   UNK N   1      24.439  18.602   4.944  0.00  0.00     0.202 C 
ENDBRANCH  26  32
BRANCH  27  34
HETATM   34  O   UNK N   1      25.607  17.108   2.665  0.00  0.00    -0.390 OA
HETATM   35  H   UNK N   1      25.905  16.402   2.070  0.00  0.00     0.210 HD
ENDBRANCH  27  34
BRANCH  28  36
HETATM   36  O   UNK N   1      26.907  14.878   3.972  0.00  0.00    -0.307 OA
BRANCH  36  37
HETATM   37  C   UNK N   1      27.245  14.414   2.744  0.00  0.00     0.297 C 
HETATM   38  O   UNK N   1      27.919  15.118   2.001  0.00  0.00    -0.259 OA
BRANCH  37  39
HETATM   39  C   UNK N   1      26.787  13.083   2.277  0.00  0.00     0.082 A 
HETATM   40  C   UNK N   1      25.598  12.944   1.506  0.00  0.00    -0.015 A 
HETATM   41  C   UNK N   1      25.216  11.673   1.046  0.00  0.00     0.076 A 
HETATM   42  C   UNK N   1      25.993  10.548   1.344  0.00  0.00     0.112 A 
HETATM   43 Cl   UNK N   1      23.745  11.476   0.090  0.00  0.00    -0.081 Cl
HETATM   44  C   UNK N   1      27.156  10.677   2.108  0.00  0.00     0.103 A 
HETATM   45  C   UNK N   1      27.552  11.930   2.574  0.00  0.00     0.107 A 
HETATM   46 Cl   UNK N   1      28.133   9.258   2.470  0.00  0.00    -0.078 Cl
BRANCH  40  47
HETATM   47  C   UNK N   1      24.716  14.119   1.176  0.00  0.00     0.037 C 
HETATM   48  C   UNK N   1      23.587  14.253   2.187  0.00  0.00     0.010 C 
ENDBRANCH  40  47
BRANCH  42  49
HETATM   49  O   UNK N   1      25.619   9.337   0.895  0.00  0.00    -0.357 OA
HETATM   50  H   UNK N   1      24.965   8.846   1.353  0.00  0.00     0.217 HD
ENDBRANCH  42  49
BRANCH  45  51
HETATM   51  O   UNK N   1      28.691  12.026   3.293  0.00  0.00    -0.358 OA
HETATM   52  H   UNK N   1      29.523  12.120   2.873  0.00  0.00     0.217 HD
ENDBRANCH  45  51
ENDBRANCH  37  39
ENDBRANCH  36  37
ENDBRANCH  28  36
ENDBRANCH  24  25
ENDBRANCH  23  24
ENDBRANCH  19  23
BRANCH   6  53
HETATM   53  C   UNK N   1      24.562  12.285  10.158  0.00  0.00     0.144 C 
HETATM   54  C   UNK N   1      23.857  12.015  11.476  0.00  0.00     0.042 C 
BRANCH  53  55
HETATM   55  O   UNK N   1      25.171  13.540  10.192  0.00  0.00    -0.393 OA
HETATM   56  H   UNK N   1      25.366  14.112  10.951  0.00  0.00     0.210 HD
ENDBRANCH  53  55
ENDBRANCH   6  53
BRANCH  14  57
HETATM   57  O   UNK N   1      19.063  15.276   0.983  0.00  0.00    -0.391 OA
HETATM   58  H   UNK N   1      18.491  16.054   1.074  0.00  0.00     0.210 HD
ENDBRANCH  14  57
BRANCH  10  59
HETATM   59  C   UNK N   1      20.277  10.070   1.565  0.00  0.00     0.007 C 
HETATM   60  C   UNK N   1      18.846   9.830   2.003  0.00  0.00     0.006 C 
ENDBRANCH  10  59
BRANCH  12  61
HETATM   61  O   UNK N   1      21.114   8.889   3.961  0.00  0.00    -0.348 OA
BRANCH  61  62
HETATM   62  C   UNK N   1      22.186   8.105   3.464  0.00  0.00     0.293 C 
HETATM   63  O   UNK N   1      23.454   8.548   3.980  0.00  0.00    -0.346 OA
HETATM   64  C   UNK N   1      24.354   7.517   4.357  0.00  0.00     0.086 C 
HETATM   65  C   UNK N   1      23.685   6.646   5.430  0.00  0.00     0.197 C 
HETATM   66  C   UNK N   1      24.823   6.748   3.127  0.00  0.00     0.048 C 
HETATM   67  C   UNK N   1      25.595   8.132   4.968  0.00  0.00     0.048 C 
HETATM   68  C   UNK N   1      22.299   6.096   5.082  0.00  0.00     0.184 C 
HETATM   69  C   UNK N   1      21.897   6.600   3.689  0.00  0.00     0.204 C 
BRANCH  65  70
HETATM   70  O   UNK N   1      24.512   5.899   6.264  0.00  0.00    -0.310 OA
BRANCH  70  71
HETATM   71  C   UNK N   1      24.561   6.007   7.620  0.00  0.00     0.262 C 
HETATM   72  O   UNK N   1      23.539   6.133   8.277  0.00  0.00    -0.265 OA
BRANCH  71  73
HETATM   73  C   UNK N   1      25.876   5.919   8.329  0.00  0.00     0.077 C 
HETATM   74  C   UNK N   1      27.013   5.734   7.346  0.00  0.00     0.020 C 
HETATM   75  C   UNK N   1      25.863   4.765   9.318  0.00  0.00     0.020 C 
ENDBRANCH  71  73
ENDBRANCH  70  71
ENDBRANCH  65  70
BRANCH  68  76
HETATM   76  O   UNK N   1      22.307   4.701   5.083  0.00  0.00    -0.390 OA
HETATM   77  H   UNK N   1      22.162   4.214   4.256  0.00  0.00     0.210 HD
ENDBRANCH  68  76
BRANCH  69  78
HETATM   78  O   UNK N   1      20.574   6.281   3.386  0.00  0.00    -0.388 OA
HETATM   79  H   UNK N   1      20.352   5.724   2.624  0.00  0.00     0.210 HD
ENDBRANCH  69  78
ENDBRANCH  61  62
ENDBRANCH  12  61
TORSDOF 22
ENDMDL
MODEL 6
REMARK VINA RESULT:      -7.0      6.354     11.652
REMARK  22 active torsions:
REMARK  status: ('A' for Active; 'I' for Inactive)
REMARK    1  A    between atoms: C_1  and  O_37 
REMARK    2  A    between atoms: C_3  and  O_8 
REMARK    3  A    between atoms: C_4  and  O_7 
REMARK    4  A    between atoms: C_5  and  O_6 
REMARK    5  A    between atoms: O_8  and  C_9 
REMARK    6  A    between atoms: C_9  and  C_11 
REMARK    7  A    between atoms: C_19  and  C_41 
REMARK    8  A    between atoms: C_23  and  C_44 
REMARK    9  A    between atoms: C_25  and  O_37 
REMARK   10  A    between atoms: C_27  and  O_35 
REMARK   11  A    between atoms: C_32  and  C_36 
REMARK   12  A    between atoms: C_36  and  O_46 
REMARK   13  A    between atoms: C_41  and  O_42 
REMARK   14  A    between atoms: C_47  and  O_46 
REMARK   15  A    between atoms: C_48  and  O_54 
REMARK   16  A    between atoms: C_49  and  O_56 
REMARK   17  A    between atoms: C_50  and  O_57 
REMARK   18  A    between atoms: O_57  and  C_58 
REMARK   19  A    between atoms: C_58  and  C_59 
REMARK   20  A    between atoms: C_61  and  C_70 
REMARK   21  A    between atoms: C_63  and  O_67 
REMARK   22  A    between atoms: C_65  and  O_69 
ROOT
HETATM    1  C   UNK N   1      33.454  10.479   9.317  0.00  0.00    -0.065 C 
HETATM    2  C   UNK N   1      33.325  11.917   8.931  0.00  0.00     0.048 C 
HETATM    3  C   UNK N   1      32.371   9.846   9.769  0.00  0.00    -0.018 C 
HETATM    4  O   UNK N   1      33.008   6.701   8.648  0.00  0.00    -0.309 OA
HETATM    5  C   UNK N   1      32.426   8.411  10.189  0.00  0.00     0.063 C 
HETATM    6  C   UNK N   1      32.001   7.571   9.017  0.00  0.00     0.164 C 
HETATM    7  C   UNK N   1      35.958  10.257   9.244  0.00  0.00    -0.054 C 
HETATM    8  C   UNK N   1      37.135   9.359   9.049  0.00  0.00     0.046 C 
HETATM    9  C   UNK N   1      34.735   9.738   9.163  0.00  0.00     0.011 C 
HETATM   10  C   UNK N   1      36.927  12.592   8.698  0.00  0.00     0.041 C 
HETATM   11  C   UNK N   1      37.137  11.999   7.301  0.00  0.00    -0.014 C 
HETATM   12  C   UNK N   1      36.155  11.671   9.695  0.00  0.00     0.161 C 
HETATM   13  C   UNK N   1      37.752  12.593   6.254  0.00  0.00    -0.058 C 
HETATM   14  C   UNK N   1      37.887  11.854   4.932  0.00  0.00     0.150 C 
HETATM   15  C   UNK N   1      36.556  11.447   4.306  0.00  0.00     0.063 C 
HETATM   16  C   UNK N   1      36.253  10.082   4.804  0.00  0.00    -0.024 C 
HETATM   17  C   UNK N   1      35.101   9.802   5.390  0.00  0.00    -0.003 C 
HETATM   18  C   UNK N   1      34.979   8.523   6.097  0.00  0.00     0.015 C 
HETATM   19  C   UNK N   1      33.887   8.186   6.794  0.00  0.00     0.041 C 
HETATM   20  C   UNK N   1      33.931   6.958   7.667  0.00  0.00     0.291 C 
HETATM   21  O   UNK N   1      34.863   6.179   7.535  0.00  0.00    -0.260 OA
HETATM   22  C   UNK N   1      38.371  13.951   6.395  0.00  0.00     0.046 C 
ENDROOT
BRANCH  19  23
HETATM   23  C   UNK N   1      32.675   9.090   6.772  0.00  0.00     0.216 C 
BRANCH  23  24
HETATM   24  O   UNK N   1      31.872   8.895   5.633  0.00  0.00    -0.354 OA
BRANCH  24  25
HETATM   25  C   UNK N   1      31.428  10.133   5.105  0.00  0.00     0.292 C 
HETATM   26  C   UNK N   1      32.022  10.421   3.701  0.00  0.00     0.207 C 
HETATM   27  C   UNK N   1      31.202  11.402   2.864  0.00  0.00     0.184 C 
HETATM   28  C   UNK N   1      30.253  12.210   3.720  0.00  0.00     0.192 C 
HETATM   29  C   UNK N   1      29.388  11.124   4.329  0.00  0.00     0.152 C 
HETATM   30  O   UNK N   1      30.060  10.464   5.384  0.00  0.00    -0.351 OA
HETATM   31  C   UNK N   1      28.066  11.710   4.801  0.00  0.00     0.042 C 
BRANCH  26  32
HETATM   32  O   UNK N   1      32.253   9.248   2.979  0.00  0.00    -0.383 OA
HETATM   33  C   UNK N   1      33.474   9.462   2.340  0.00  0.00     0.202 C 
ENDBRANCH  26  32
BRANCH  27  34
HETATM   34  O   UNK N   1      32.025  12.212   2.084  0.00  0.00    -0.390 OA
HETATM   35  H   UNK N   1      32.588  12.879   2.506  0.00  0.00     0.210 HD
ENDBRANCH  27  34
BRANCH  28  36
HETATM   36  O   UNK N   1      30.965  12.926   4.680  0.00  0.00    -0.307 OA
BRANCH  36  37
HETATM   37  C   UNK N   1      31.180  14.263   4.619  0.00  0.00     0.297 C 
HETATM   38  O   UNK N   1      31.061  14.841   3.545  0.00  0.00    -0.259 OA
BRANCH  37  39
HETATM   39  C   UNK N   1      31.585  15.029   5.823  0.00  0.00     0.082 A 
HETATM   40  C   UNK N   1      32.886  14.881   6.384  0.00  0.00    -0.015 A 
HETATM   41  C   UNK N   1      33.249  15.653   7.501  0.00  0.00     0.076 A 
HETATM   42  C   UNK N   1      32.342  16.557   8.063  0.00  0.00     0.112 A 
HETATM   43 Cl   UNK N   1      34.855  15.485   8.215  0.00  0.00    -0.081 Cl
HETATM   44  C   UNK N   1      31.061  16.699   7.522  0.00  0.00     0.103 A 
HETATM   45  C   UNK N   1      30.681  15.943   6.414  0.00  0.00     0.107 A 
HETATM   46 Cl   UNK N   1      29.929  17.847   8.230  0.00  0.00    -0.078 Cl
BRANCH  40  47
HETATM   47  C   UNK N   1      33.891  13.907   5.830  0.00  0.00     0.037 C 
HETATM   48  C   UNK N   1      34.796  14.580   4.808  0.00  0.00     0.010 C 
ENDBRANCH  40  47
BRANCH  42  49
HETATM   49  O   UNK N   1      32.702  17.292   9.130  0.00  0.00    -0.357 OA
HETATM   50  H   UNK N   1      32.103  17.912   9.498  0.00  0.00     0.217 HD
ENDBRANCH  42  49
BRANCH  45  51
HETATM   51  O   UNK N   1      29.444  16.116   5.902  0.00  0.00    -0.358 OA
HETATM   52  H   UNK N   1      28.699  15.693   6.282  0.00  0.00     0.217 HD
ENDBRANCH  45  51
ENDBRANCH  37  39
ENDBRANCH  36  37
ENDBRANCH  28  36
ENDBRANCH  24  25
ENDBRANCH  23  24
ENDBRANCH  19  23
BRANCH   6  53
HETATM   53  C   UNK N   1      30.651   6.898   9.239  0.00  0.00     0.144 C 
HETATM   54  C   UNK N   1      30.130   6.315   7.936  0.00  0.00     0.042 C 
BRANCH  53  55
HETATM   55  O   UNK N   1      29.721   7.797   9.763  0.00  0.00    -0.393 OA
HETATM   56  H   UNK N   1      28.920   7.625  10.283  0.00  0.00     0.210 HD
ENDBRANCH  53  55
ENDBRANCH   6  53
BRANCH  14  57
HETATM   57  O   UNK N   1      38.621  12.590   4.002  0.00  0.00    -0.391 OA
HETATM   58  H   UNK N   1      39.498  12.291   3.712  0.00  0.00     0.210 HD
ENDBRANCH  14  57
BRANCH  10  59
HETATM   59  C   UNK N   1      38.134  13.307   9.309  0.00  0.00     0.007 C 
HETATM   60  C   UNK N   1      39.333  12.391   9.450  0.00  0.00     0.006 C 
ENDBRANCH  10  59
BRANCH  12  61
HETATM   61  O   UNK N   1      36.664  11.642  11.012  0.00  0.00    -0.348 OA
BRANCH  61  62
HETATM   62  C   UNK N   1      35.575  11.656  11.919  0.00  0.00     0.293 C 
HETATM   63  O   UNK N   1      35.546  10.472  12.736  0.00  0.00    -0.346 OA
HETATM   64  C   UNK N   1      35.234  10.681  14.105  0.00  0.00     0.086 C 
HETATM   65  C   UNK N   1      36.268  11.643  14.706  0.00  0.00     0.197 C 
HETATM   66  C   UNK N   1      33.788  11.140  14.254  0.00  0.00     0.048 C 
HETATM   67  C   UNK N   1      35.337   9.367  14.850  0.00  0.00     0.048 C 
HETATM   68  C   UNK N   1      36.472  12.965  13.957  0.00  0.00     0.184 C 
HETATM   69  C   UNK N   1      35.564  12.982  12.720  0.00  0.00     0.204 C 
BRANCH  65  70
HETATM   70  O   UNK N   1      36.447  11.621  16.085  0.00  0.00    -0.310 OA
BRANCH  70  71
HETATM   71  C   UNK N   1      35.506  11.973  17.003  0.00  0.00     0.262 C 
HETATM   72  O   UNK N   1      34.779  12.936  16.819  0.00  0.00    -0.265 OA
BRANCH  71  73
HETATM   73  C   UNK N   1      35.316  11.142  18.234  0.00  0.00     0.077 C 
HETATM   74  C   UNK N   1      35.327  12.003  19.479  0.00  0.00     0.020 C 
HETATM   75  C   UNK N   1      36.408  10.090  18.331  0.00  0.00     0.020 C 
ENDBRANCH  71  73
ENDBRANCH  70  71
ENDBRANCH  65  70
BRANCH  68  76
HETATM   76  O   UNK N   1      36.157  14.049  14.776  0.00  0.00    -0.390 OA
HETATM   77  H   UNK N   1      36.811  14.385  15.410  0.00  0.00     0.210 HD
ENDBRANCH  68  76
BRANCH  69  78
HETATM   78  O   UNK N   1      35.829  14.079  11.899  0.00  0.00    -0.388 OA
HETATM   79  H   UNK N   1      35.622  14.982  12.184  0.00  0.00     0.210 HD
ENDBRANCH  69  78
ENDBRANCH  61  62
ENDBRANCH  12  61
TORSDOF 22
ENDMDL
MODEL 7
REMARK VINA RESULT:      -6.9     13.239     15.649
REMARK  22 active torsions:
REMARK  status: ('A' for Active; 'I' for Inactive)
REMARK    1  A    between atoms: C_1  and  O_37 
REMARK    2  A    between atoms: C_3  and  O_8 
REMARK    3  A    between atoms: C_4  and  O_7 
REMARK    4  A    between atoms: C_5  and  O_6 
REMARK    5  A    between atoms: O_8  and  C_9 
REMARK    6  A    between atoms: C_9  and  C_11 
REMARK    7  A    between atoms: C_19  and  C_41 
REMARK    8  A    between atoms: C_23  and  C_44 
REMARK    9  A    between atoms: C_25  and  O_37 
REMARK   10  A    between atoms: C_27  and  O_35 
REMARK   11  A    between atoms: C_32  and  C_36 
REMARK   12  A    between atoms: C_36  and  O_46 
REMARK   13  A    between atoms: C_41  and  O_42 
REMARK   14  A    between atoms: C_47  and  O_46 
REMARK   15  A    between atoms: C_48  and  O_54 
REMARK   16  A    between atoms: C_49  and  O_56 
REMARK   17  A    between atoms: C_50  and  O_57 
REMARK   18  A    between atoms: O_57  and  C_58 
REMARK   19  A    between atoms: C_58  and  C_59 
REMARK   20  A    between atoms: C_61  and  C_70 
REMARK   21  A    between atoms: C_63  and  O_67 
REMARK   22  A    between atoms: C_65  and  O_69 
ROOT
HETATM    1  C   UNK N   1      33.187  23.144  -6.388  0.00  0.00    -0.065 C 
HETATM    2  C   UNK N   1      33.596  23.202  -7.824  0.00  0.00     0.048 C 
HETATM    3  C   UNK N   1      32.852  24.282  -5.779  0.00  0.00    -0.018 C 
HETATM    4  O   UNK N   1      30.533  23.122  -3.582  0.00  0.00    -0.309 OA
HETATM    5  C   UNK N   1      32.447  24.305  -4.339  0.00  0.00     0.063 C 
HETATM    6  C   UNK N   1      30.947  24.239  -4.280  0.00  0.00     0.164 C 
HETATM    7  C   UNK N   1      33.839  20.771  -5.871  0.00  0.00    -0.054 C 
HETATM    8  C   UNK N   1      33.603  19.556  -5.034  0.00  0.00     0.046 C 
HETATM    9  C   UNK N   1      33.100  21.855  -5.649  0.00  0.00     0.011 C 
HETATM   10  C   UNK N   1      34.955  19.795  -7.990  0.00  0.00     0.041 C 
HETATM   11  C   UNK N   1      33.618  19.069  -8.164  0.00  0.00    -0.014 C 
HETATM   12  C   UNK N   1      35.000  20.823  -6.814  0.00  0.00     0.161 C 
HETATM   13  C   UNK N   1      33.309  18.154  -9.109  0.00  0.00    -0.058 C 
HETATM   14  C   UNK N   1      31.929  17.518  -9.131  0.00  0.00     0.150 C 
HETATM   15  C   UNK N   1      30.785  18.513  -9.296  0.00  0.00     0.063 C 
HETATM   16  C   UNK N   1      30.360  18.902  -7.929  0.00  0.00    -0.024 C 
HETATM   17  C   UNK N   1      30.293  20.171  -7.562  0.00  0.00    -0.003 C 
HETATM   18  C   UNK N   1      30.136  20.470  -6.135  0.00  0.00     0.015 C 
HETATM   19  C   UNK N   1      30.146  21.719  -5.654  0.00  0.00     0.041 C 
HETATM   20  C   UNK N   1      30.203  21.924  -4.163  0.00  0.00     0.291 C 
HETATM   21  O   UNK N   1      29.998  20.967  -3.431  0.00  0.00    -0.260 OA
HETATM   22  C   UNK N   1      34.337  17.698 -10.101  0.00  0.00     0.046 C 
ENDROOT
BRANCH  19  23
HETATM   23  C   UNK N   1      30.204  22.889  -6.611  0.00  0.00     0.216 C 
BRANCH  23  24
HETATM   24  O   UNK N   1      29.253  22.794  -7.643  0.00  0.00    -0.354 OA
BRANCH  24  25
HETATM   25  C   UNK N   1      28.029  23.400  -7.265  0.00  0.00     0.292 C 
HETATM   26  C   UNK N   1      26.813  22.783  -8.004  0.00  0.00     0.207 C 
HETATM   27  C   UNK N   1      25.479  22.973  -7.283  0.00  0.00     0.184 C 
HETATM   28  C   UNK N   1      25.553  24.079  -6.254  0.00  0.00     0.192 C 
HETATM   29  C   UNK N   1      26.632  23.562  -5.323  0.00  0.00     0.152 C 
HETATM   30  O   UNK N   1      27.920  23.748  -5.877  0.00  0.00    -0.351 OA
HETATM   31  C   UNK N   1      26.517  24.233  -3.963  0.00  0.00     0.042 C 
BRANCH  26  32
HETATM   32  O   UNK N   1      27.010  21.433  -8.301  0.00  0.00    -0.383 OA
HETATM   33  C   UNK N   1      26.933  21.364  -9.693  0.00  0.00     0.202 C 
ENDBRANCH  26  32
BRANCH  27  34
HETATM   34  O   UNK N   1      24.438  23.166  -8.188  0.00  0.00    -0.390 OA
HETATM   35  H   UNK N   1      24.535  22.875  -9.108  0.00  0.00     0.210 HD
ENDBRANCH  27  34
BRANCH  28  36
HETATM   36  O   UNK N   1      25.907  25.280  -6.866  0.00  0.00    -0.307 OA
BRANCH  36  37
HETATM   37  C   UNK N   1      25.600  26.501  -6.365  0.00  0.00     0.297 C 
HETATM   38  O   UNK N   1      24.470  26.708  -5.937  0.00  0.00    -0.259 OA
BRANCH  37  39
HETATM   39  C   UNK N   1      26.599  27.598  -6.356  0.00  0.00     0.082 A 
HETATM   40  C   UNK N   1      26.688  28.503  -5.260  0.00  0.00    -0.015 A 
HETATM   41  C   UNK N   1      27.673  29.504  -5.268  0.00  0.00     0.076 A 
HETATM   42  C   UNK N   1      28.560  29.618  -6.343  0.00  0.00     0.112 A 
HETATM   43 Cl   UNK N   1      27.801  30.638  -3.921  0.00  0.00    -0.081 Cl
HETATM   44  C   UNK N   1      28.472  28.739  -7.426  0.00  0.00     0.103 A 
HETATM   45  C   UNK N   1      27.501  27.738  -7.438  0.00  0.00     0.107 A 
HETATM   46 Cl   UNK N   1      29.598  28.884  -8.772  0.00  0.00    -0.078 Cl
BRANCH  40  47
HETATM   47  C   UNK N   1      25.744  28.435  -4.089  0.00  0.00     0.037 C 
HETATM   48  C   UNK N   1      26.343  27.618  -2.954  0.00  0.00     0.010 C 
ENDBRANCH  40  47
BRANCH  42  49
HETATM   49  O   UNK N   1      29.501  30.578  -6.338  0.00  0.00    -0.357 OA
HETATM   50  H   UNK N   1      30.408  30.349  -6.278  0.00  0.00     0.217 HD
ENDBRANCH  42  49
BRANCH  45  51
HETATM   51  O   UNK N   1      27.452  26.892  -8.489  0.00  0.00    -0.358 OA
HETATM   52  H   UNK N   1      27.252  25.984  -8.372  0.00  0.00     0.217 HD
ENDBRANCH  45  51
ENDBRANCH  37  39
ENDBRANCH  36  37
ENDBRANCH  28  36
ENDBRANCH  24  25
ENDBRANCH  23  24
ENDBRANCH  19  23
BRANCH   6  53
HETATM   53  C   UNK N   1      30.322  25.542  -3.793  0.00  0.00     0.144 C 
HETATM   54  C   UNK N   1      29.956  26.426  -4.973  0.00  0.00     0.042 C 
BRANCH  53  55
HETATM   55  O   UNK N   1      31.188  26.225  -2.938  0.00  0.00    -0.393 OA
HETATM   56  H   UNK N   1      32.150  26.335  -2.990  0.00  0.00     0.210 HD
ENDBRANCH  53  55
ENDBRANCH   6  53
BRANCH  14  57
HETATM   57  O   UNK N   1      31.827  16.539 -10.121  0.00  0.00    -0.391 OA
HETATM   58  H   UNK N   1      32.367  16.588 -10.925  0.00  0.00     0.210 HD
ENDBRANCH  14  57
BRANCH  10  59
HETATM   59  C   UNK N   1      36.208  18.924  -8.112  0.00  0.00     0.007 C 
HETATM   60  C   UNK N   1      36.242  17.819  -7.076  0.00  0.00     0.006 C 
ENDBRANCH  10  59
BRANCH  12  61
HETATM   61  O   UNK N   1      36.187  20.816  -6.048  0.00  0.00    -0.348 OA
BRANCH  61  62
HETATM   62  C   UNK N   1      36.961  21.947  -6.405  0.00  0.00     0.293 C 
HETATM   63  O   UNK N   1      36.380  23.168  -5.912  0.00  0.00    -0.346 OA
HETATM   64  C   UNK N   1      37.297  24.109  -5.375  0.00  0.00     0.086 C 
HETATM   65  C   UNK N   1      38.060  23.449  -4.218  0.00  0.00     0.197 C 
HETATM   66  C   UNK N   1      38.189  24.668  -6.479  0.00  0.00     0.048 C 
HETATM   67  C   UNK N   1      36.535  25.289  -4.812  0.00  0.00     0.048 C 
HETATM   68  C   UNK N   1      38.734  22.110  -4.534  0.00  0.00     0.184 C 
HETATM   69  C   UNK N   1      38.439  21.735  -5.993  0.00  0.00     0.204 C 
BRANCH  65  70
HETATM   70  O   UNK N   1      38.642  24.283  -3.269  0.00  0.00    -0.310 OA
BRANCH  70  71
HETATM   71  C   UNK N   1      38.468  24.179  -1.922  0.00  0.00     0.262 C 
HETATM   72  O   UNK N   1      38.336  23.089  -1.389  0.00  0.00    -0.265 OA
BRANCH  71  73
HETATM   73  C   UNK N   1      38.489  25.409  -1.069  0.00  0.00     0.077 C 
HETATM   74  C   UNK N   1      38.272  26.654  -1.904  0.00  0.00     0.020 C 
HETATM   75  C   UNK N   1      39.813  25.514  -0.331  0.00  0.00     0.020 C 
ENDBRANCH  71  73
ENDBRANCH  70  71
ENDBRANCH  65  70
BRANCH  68  76
HETATM   76  O   UNK N   1      40.115  22.196  -4.350  0.00  0.00    -0.390 OA
HETATM   77  H   UNK N   1      40.681  21.436  -4.559  0.00  0.00     0.210 HD
ENDBRANCH  68  76
BRANCH  69  78
HETATM   78  O   UNK N   1      38.874  20.444  -6.293  0.00  0.00    -0.388 OA
HETATM   79  H   UNK N   1      39.273  19.876  -5.615  0.00  0.00     0.210 HD
ENDBRANCH  69  78
ENDBRANCH  61  62
ENDBRANCH  12  61
TORSDOF 22
ENDMDL
MODEL 8
REMARK VINA RESULT:      -6.8     13.007     18.105
REMARK  22 active torsions:
REMARK  status: ('A' for Active; 'I' for Inactive)
REMARK    1  A    between atoms: C_1  and  O_37 
REMARK    2  A    between atoms: C_3  and  O_8 
REMARK    3  A    between atoms: C_4  and  O_7 
REMARK    4  A    between atoms: C_5  and  O_6 
REMARK    5  A    between atoms: O_8  and  C_9 
REMARK    6  A    between atoms: C_9  and  C_11 
REMARK    7  A    between atoms: C_19  and  C_41 
REMARK    8  A    between atoms: C_23  and  C_44 
REMARK    9  A    between atoms: C_25  and  O_37 
REMARK   10  A    between atoms: C_27  and  O_35 
REMARK   11  A    between atoms: C_32  and  C_36 
REMARK   12  A    between atoms: C_36  and  O_46 
REMARK   13  A    between atoms: C_41  and  O_42 
REMARK   14  A    between atoms: C_47  and  O_46 
REMARK   15  A    between atoms: C_48  and  O_54 
REMARK   16  A    between atoms: C_49  and  O_56 
REMARK   17  A    between atoms: C_50  and  O_57 
REMARK   18  A    between atoms: O_57  and  C_58 
REMARK   19  A    between atoms: C_58  and  C_59 
REMARK   20  A    between atoms: C_61  and  C_70 
REMARK   21  A    between atoms: C_63  and  O_67 
REMARK   22  A    between atoms: C_65  and  O_69 
ROOT
HETATM    1  C   UNK N   1      29.887  22.872  -6.621  0.00  0.00    -0.065 C 
HETATM    2  C   UNK N   1      29.988  23.845  -7.752  0.00  0.00     0.048 C 
HETATM    3  C   UNK N   1      30.510  21.698  -6.739  0.00  0.00    -0.018 C 
HETATM    4  O   UNK N   1      31.295  21.110  -3.485  0.00  0.00    -0.309 OA
HETATM    5  C   UNK N   1      30.442  20.669  -5.657  0.00  0.00     0.063 C 
HETATM    6  C   UNK N   1      31.658  20.832  -4.788  0.00  0.00     0.164 C 
HETATM    7  C   UNK N   1      28.109  24.011  -5.256  0.00  0.00    -0.054 C 
HETATM    8  C   UNK N   1      27.511  24.235  -3.905  0.00  0.00     0.046 C 
HETATM    9  C   UNK N   1      29.159  23.202  -5.366  0.00  0.00     0.011 C 
HETATM   10  C   UNK N   1      27.342  26.101  -6.571  0.00  0.00     0.041 C 
HETATM   11  C   UNK N   1      28.188  26.859  -5.544  0.00  0.00    -0.014 C 
HETATM   12  C   UNK N   1      27.430  24.544  -6.479  0.00  0.00     0.161 C 
HETATM   13  C   UNK N   1      28.306  28.200  -5.423  0.00  0.00    -0.058 C 
HETATM   14  C   UNK N   1      29.184  28.790  -4.332  0.00  0.00     0.150 C 
HETATM   15  C   UNK N   1      30.648  28.369  -4.413  0.00  0.00     0.063 C 
HETATM   16  C   UNK N   1      30.785  27.149  -3.578  0.00  0.00    -0.024 C 
HETATM   17  C   UNK N   1      31.312  26.038  -4.063  0.00  0.00    -0.003 C 
HETATM   18  C   UNK N   1      31.165  24.805  -3.282  0.00  0.00     0.015 C 
HETATM   19  C   UNK N   1      31.585  23.615  -3.726  0.00  0.00     0.041 C 
HETATM   20  C   UNK N   1      31.197  22.375  -2.963  0.00  0.00     0.291 C 
HETATM   21  O   UNK N   1      30.721  22.500  -1.845  0.00  0.00    -0.260 OA
HETATM   22  C   UNK N   1      27.522  29.123  -6.306  0.00  0.00     0.046 C 
ENDROOT
BRANCH  19  23
HETATM   23  C   UNK N   1      32.347  23.528  -5.030  0.00  0.00     0.216 C 
BRANCH  23  24
HETATM   24  O   UNK N   1      33.740  23.606  -4.850  0.00  0.00    -0.354 OA
BRANCH  24  25
HETATM   25  C   UNK N   1      34.426  22.936  -5.895  0.00  0.00     0.292 C 
HETATM   26  C   UNK N   1      34.831  23.897  -7.043  0.00  0.00     0.207 C 
HETATM   27  C   UNK N   1      36.002  23.400  -7.892  0.00  0.00     0.184 C 
HETATM   28  C   UNK N   1      36.223  21.914  -7.722  0.00  0.00     0.192 C 
HETATM   29  C   UNK N   1      36.516  21.814  -6.239  0.00  0.00     0.152 C 
HETATM   30  O   UNK N   1      35.330  21.905  -5.473  0.00  0.00    -0.351 OA
HETATM   31  C   UNK N   1      37.266  20.526  -5.938  0.00  0.00     0.042 C 
BRANCH  26  32
HETATM   32  O   UNK N   1      35.088  25.189  -6.579  0.00  0.00    -0.383 OA
HETATM   33  C   UNK N   1      34.158  25.992  -7.241  0.00  0.00     0.202 C 
ENDBRANCH  26  32
BRANCH  27  34
HETATM   34  O   UNK N   1      35.845  23.759  -9.229  0.00  0.00    -0.390 OA
HETATM   35  H   UNK N   1      34.965  23.984  -9.570  0.00  0.00     0.210 HD
ENDBRANCH  27  34
BRANCH  28  36
HETATM   36  O   UNK N   1      35.075  21.214  -8.087  0.00  0.00    -0.307 OA
BRANCH  36  37
HETATM   37  C   UNK N   1      34.964  20.489  -9.227  0.00  0.00     0.297 C 
HETATM   38  O   UNK N   1      35.273  21.001 -10.297  0.00  0.00    -0.259 OA
BRANCH  37  39
HETATM   39  C   UNK N   1      34.445  19.099  -9.203  0.00  0.00     0.082 A 
HETATM   40  C   UNK N   1      35.302  18.000  -8.911  0.00  0.00    -0.015 A 
HETATM   41  C   UNK N   1      34.768  16.701  -8.856  0.00  0.00     0.076 A 
HETATM   42  C   UNK N   1      33.406  16.485  -9.090  0.00  0.00     0.112 A 
HETATM   43 Cl   UNK N   1      35.812  15.323  -8.499  0.00  0.00    -0.081 Cl
HETATM   44  C   UNK N   1      32.562  17.559  -9.386  0.00  0.00     0.103 A 
HETATM   45  C   UNK N   1      33.073  18.855  -9.445  0.00  0.00     0.107 A 
HETATM   46 Cl   UNK N   1      30.847  17.278  -9.669  0.00  0.00    -0.078 Cl
BRANCH  40  47
HETATM   47  C   UNK N   1      36.778  18.177  -8.673  0.00  0.00     0.037 C 
HETATM   48  C   UNK N   1      37.557  18.068  -9.975  0.00  0.00     0.010 C 
ENDBRANCH  40  47
BRANCH  42  49
HETATM   49  O   UNK N   1      32.906  15.238  -9.032  0.00  0.00    -0.357 OA
HETATM   50  H   UNK N   1      32.054  15.089  -8.670  0.00  0.00     0.217 HD
ENDBRANCH  42  49
BRANCH  45  51
HETATM   51  O   UNK N   1      32.229  19.874  -9.714  0.00  0.00    -0.358 OA
HETATM   52  H   UNK N   1      31.850  19.978 -10.565  0.00  0.00     0.217 HD
ENDBRANCH  45  51
ENDBRANCH  37  39
ENDBRANCH  36  37
ENDBRANCH  28  36
ENDBRANCH  24  25
ENDBRANCH  23  24
ENDBRANCH  19  23
BRANCH   6  53
HETATM   53  C   UNK N   1      32.635  19.669  -4.924  0.00  0.00     0.144 C 
HETATM   54  C   UNK N   1      33.617  19.664  -3.765  0.00  0.00     0.042 C 
BRANCH  53  55
HETATM   55  O   UNK N   1      33.327  19.733  -6.134  0.00  0.00    -0.393 OA
HETATM   56  H   UNK N   1      32.990  19.876  -7.032  0.00  0.00     0.210 HD
ENDBRANCH  53  55
ENDBRANCH   6  53
BRANCH  14  57
HETATM   57  O   UNK N   1      29.113  30.184  -4.310  0.00  0.00    -0.391 OA
HETATM   58  H   UNK N   1      28.309  30.645  -4.599  0.00  0.00     0.210 HD
ENDBRANCH  14  57
BRANCH  10  59
HETATM   59  C   UNK N   1      25.927  26.638  -6.798  0.00  0.00     0.007 C 
HETATM   60  C   UNK N   1      25.108  26.654  -5.523  0.00  0.00     0.006 C 
ENDBRANCH  10  59
BRANCH  12  61
HETATM   61  O   UNK N   1      26.205  23.858  -6.633  0.00  0.00    -0.348 OA
BRANCH  61  62
HETATM   62  C   UNK N   1      25.813  23.933  -7.993  0.00  0.00     0.293 C 
HETATM   63  O   UNK N   1      26.910  24.313  -8.843  0.00  0.00    -0.346 OA
HETATM   64  C   UNK N   1      27.003  23.611 -10.074  0.00  0.00     0.086 C 
HETATM   65  C   UNK N   1      27.134  22.111  -9.777  0.00  0.00     0.197 C 
HETATM   66  C   UNK N   1      25.830  23.973 -10.978  0.00  0.00     0.048 C 
HETATM   67  C   UNK N   1      28.252  24.048 -10.809  0.00  0.00     0.048 C 
HETATM   68  C   UNK N   1      26.067  21.512  -8.855  0.00  0.00     0.184 C 
HETATM   69  C   UNK N   1      25.103  22.624  -8.419  0.00  0.00     0.204 C 
BRANCH  65  70
HETATM   70  O   UNK N   1      27.698  21.304 -10.760  0.00  0.00    -0.310 OA
BRANCH  70  71
HETATM   71  C   UNK N   1      28.781  20.498 -10.586  0.00  0.00     0.262 C 
HETATM   72  O   UNK N   1      29.242  20.298  -9.474  0.00  0.00    -0.265 OA
BRANCH  71  73
HETATM   73  C   UNK N   1      29.389  19.800 -11.763  0.00  0.00     0.077 C 
HETATM   74  C   UNK N   1      30.225  20.755 -12.589  0.00  0.00     0.020 C 
HETATM   75  C   UNK N   1      28.301  19.191 -12.632  0.00  0.00     0.020 C 
ENDBRANCH  71  73
ENDBRANCH  70  71
ENDBRANCH  65  70
BRANCH  68  76
HETATM   76  O   UNK N   1      25.349  20.513  -9.514  0.00  0.00    -0.390 OA
HETATM   77  H   UNK N   1      24.660  20.018  -9.042  0.00  0.00     0.210 HD
ENDBRANCH  68  76
BRANCH  69  78
HETATM   78  O   UNK N   1      24.213  22.182  -7.439  0.00  0.00    -0.388 OA
HETATM   79  H   UNK N   1      23.378  21.751  -7.675  0.00  0.00     0.210 HD
ENDBRANCH  69  78
ENDBRANCH  61  62
ENDBRANCH  12  61
TORSDOF 22
ENDMDL
MODEL 9
REMARK VINA RESULT:      -6.7      1.932      2.850
REMARK  22 active torsions:
REMARK  status: ('A' for Active; 'I' for Inactive)
REMARK    1  A    between atoms: C_1  and  O_37 
REMARK    2  A    between atoms: C_3  and  O_8 
REMARK    3  A    between atoms: C_4  and  O_7 
REMARK    4  A    between atoms: C_5  and  O_6 
REMARK    5  A    between atoms: O_8  and  C_9 
REMARK    6  A    between atoms: C_9  and  C_11 
REMARK    7  A    between atoms: C_19  and  C_41 
REMARK    8  A    between atoms: C_23  and  C_44 
REMARK    9  A    between atoms: C_25  and  O_37 
REMARK   10  A    between atoms: C_27  and  O_35 
REMARK   11  A    between atoms: C_32  and  C_36 
REMARK   12  A    between atoms: C_36  and  O_46 
REMARK   13  A    between atoms: C_41  and  O_42 
REMARK   14  A    between atoms: C_47  and  O_46 
REMARK   15  A    between atoms: C_48  and  O_54 
REMARK   16  A    between atoms: C_49  and  O_56 
REMARK   17  A    between atoms: C_50  and  O_57 
REMARK   18  A    between atoms: O_57  and  C_58 
REMARK   19  A    between atoms: C_58  and  C_59 
REMARK   20  A    between atoms: C_61  and  C_70 
REMARK   21  A    between atoms: C_63  and  O_67 
REMARK   22  A    between atoms: C_65  and  O_69 
ROOT
HETATM    1  C   UNK N   1      25.788  15.921   3.047  0.00  0.00    -0.065 C 
HETATM    2  C   UNK N   1      26.298  15.780   1.648  0.00  0.00     0.048 C 
HETATM    3  C   UNK N   1      25.177  17.057   3.386  0.00  0.00    -0.018 C 
HETATM    4  O   UNK N   1      22.965  15.881   5.682  0.00  0.00    -0.309 OA
HETATM    5  C   UNK N   1      24.655  17.277   4.770  0.00  0.00     0.063 C 
HETATM    6  C   UNK N   1      23.200  16.899   4.779  0.00  0.00     0.164 C 
HETATM    7  C   UNK N   1      26.864  13.898   4.082  0.00  0.00    -0.054 C 
HETATM    8  C   UNK N   1      26.811  12.852   5.147  0.00  0.00     0.046 C 
HETATM    9  C   UNK N   1      25.903  14.817   4.038  0.00  0.00     0.011 C 
HETATM   10  C   UNK N   1      28.333  12.786   2.267  0.00  0.00     0.041 C 
HETATM   11  C   UNK N   1      27.192  11.768   2.196  0.00  0.00    -0.014 C 
HETATM   12  C   UNK N   1      28.067  14.012   3.198  0.00  0.00     0.161 C 
HETATM   13  C   UNK N   1      27.159  10.638   1.455  0.00  0.00    -0.058 C 
HETATM   14  C   UNK N   1      25.944   9.726   1.513  0.00  0.00     0.150 C 
HETATM   15  C   UNK N   1      24.640  10.396   1.092  0.00  0.00     0.063 C 
HETATM   16  C   UNK N   1      24.029  10.947   2.327  0.00  0.00    -0.024 C 
HETATM   17  C   UNK N   1      23.673  12.217   2.413  0.00  0.00    -0.003 C 
HETATM   18  C   UNK N   1      23.337  12.753   3.737  0.00  0.00     0.015 C 
HETATM   19  C   UNK N   1      23.051  14.044   3.940  0.00  0.00     0.041 C 
HETATM   20  C   UNK N   1      22.937  14.549   5.355  0.00  0.00     0.291 C 
HETATM   21  O   UNK N   1      22.869  13.736   6.264  0.00  0.00    -0.260 OA
HETATM   22  C   UNK N   1      28.339  10.229   0.626  0.00  0.00     0.046 C 
ENDROOT
BRANCH  19  23
HETATM   23  C   UNK N   1      22.950  14.985   2.760  0.00  0.00     0.216 C 
BRANCH  23  24
HETATM   24  O   UNK N   1      21.625  15.363   2.480  0.00  0.00    -0.354 OA
BRANCH  24  25
HETATM   25  C   UNK N   1      20.755  14.244   2.527  0.00  0.00     0.292 C 
HETATM   26  C   UNK N   1      19.762  14.321   3.715  0.00  0.00     0.207 C 
HETATM   27  C   UNK N   1      18.491  13.493   3.523  0.00  0.00     0.184 C 
HETATM   28  C   UNK N   1      18.663  12.448   2.444  0.00  0.00     0.192 C 
HETATM   29  C   UNK N   1      18.970  13.304   1.232  0.00  0.00     0.152 C 
HETATM   30  O   UNK N   1      20.309  13.761   1.252  0.00  0.00    -0.351 OA
HETATM   31  C   UNK N   1      18.672  12.533  -0.045  0.00  0.00     0.042 C 
BRANCH  26  32
HETATM   32  O   UNK N   1      19.433  15.639   4.039  0.00  0.00    -0.383 OA
HETATM   33  C   UNK N   1      19.316  15.641   5.430  0.00  0.00     0.202 C 
ENDBRANCH  26  32
BRANCH  27  34
HETATM   34  O   UNK N   1      18.061  12.940   4.727  0.00  0.00    -0.390 OA
HETATM   35  H   UNK N   1      18.158  11.988   4.884  0.00  0.00     0.210 HD
ENDBRANCH  27  34
BRANCH  28  36
HETATM   36  O   UNK N   1      19.711  11.590   2.771  0.00  0.00    -0.307 OA
BRANCH  36  37
HETATM   37  C   UNK N   1      19.576  10.504   3.570  0.00  0.00     0.297 C 
HETATM   38  O   UNK N   1      18.457  10.056   3.790  0.00  0.00    -0.259 OA
BRANCH  37  39
HETATM   39  C   UNK N   1      20.758   9.869   4.204  0.00  0.00     0.082 A 
HETATM   40  C   UNK N   1      21.352   8.700   3.648  0.00  0.00    -0.015 A 
HETATM   41  C   UNK N   1      22.494   8.150   4.253  0.00  0.00     0.076 A 
HETATM   42  C   UNK N   1      23.045   8.739   5.396  0.00  0.00     0.112 A 
HETATM   43 Cl   UNK N   1      23.247   6.701   3.582  0.00  0.00    -0.081 Cl
HETATM   44  C   UNK N   1      22.461   9.881   5.951  0.00  0.00     0.103 A 
HETATM   45  C   UNK N   1      21.327  10.443   5.366  0.00  0.00     0.107 A 
HETATM   46 Cl   UNK N   1      23.167  10.622   7.384  0.00  0.00    -0.078 Cl
BRANCH  40  47
HETATM   47  C   UNK N   1      20.785   8.016   2.432  0.00  0.00     0.037 C 
HETATM   48  C   UNK N   1      21.365   8.607   1.155  0.00  0.00     0.010 C 
ENDBRANCH  40  47
BRANCH  42  49
HETATM   49  O   UNK N   1      24.140   8.206   5.964  0.00  0.00    -0.357 OA
HETATM   50  H   UNK N   1      24.077   7.408   6.451  0.00  0.00     0.217 HD
ENDBRANCH  42  49
BRANCH  45  51
HETATM   51  O   UNK N   1      20.796  11.557   5.915  0.00  0.00    -0.358 OA
HETATM   52  H   UNK N   1      20.351  11.526   6.739  0.00  0.00     0.217 HD
ENDBRANCH  45  51
ENDBRANCH  37  39
ENDBRANCH  36  37
ENDBRANCH  28  36
ENDBRANCH  24  25
ENDBRANCH  23  24
ENDBRANCH  19  23
BRANCH   6  53
HETATM   53  C   UNK N   1      22.283  18.106   4.952  0.00  0.00     0.144 C 
HETATM   54  C   UNK N   1      21.622  18.076   6.320  0.00  0.00     0.042 C 
BRANCH  53  55
HETATM   55  O   UNK N   1      21.309  18.144   3.954  0.00  0.00    -0.393 OA
HETATM   56  H   UNK N   1      21.394  18.373   3.015  0.00  0.00     0.210 HD
ENDBRANCH  53  55
ENDBRANCH   6  53
BRANCH  14  57
HETATM   57  O   UNK N   1      26.130   8.571   0.750  0.00  0.00    -0.391 OA
HETATM   58  H   UNK N   1      26.713   8.577  -0.026  0.00  0.00     0.210 HD
ENDBRANCH  14  57
BRANCH  10  59
HETATM   59  C   UNK N   1      29.743  12.203   2.384  0.00  0.00     0.007 C 
HETATM   60  C   UNK N   1      29.921  11.381   3.645  0.00  0.00     0.006 C 
ENDBRANCH  10  59
BRANCH  12  61
HETATM   61  O   UNK N   1      29.160  14.416   3.996  0.00  0.00    -0.348 OA
BRANCH  61  62
HETATM   62  C   UNK N   1      29.134  15.828   4.116  0.00  0.00     0.293 C 
HETATM   63  O   UNK N   1      28.513  16.247   5.345  0.00  0.00    -0.346 OA
HETATM   64  C   UNK N   1      29.150  17.324   6.017  0.00  0.00     0.086 C 
HETATM   65  C   UNK N   1      30.597  16.920   6.333  0.00  0.00     0.197 C 
HETATM   66  C   UNK N   1      29.019  18.606   5.203  0.00  0.00     0.048 C 
HETATM   67  C   UNK N   1      28.444  17.584   7.330  0.00  0.00     0.048 C 
HETATM   68  C   UNK N   1      31.428  16.411   5.151  0.00  0.00     0.184 C 
HETATM   69  C   UNK N   1      30.552  16.410   3.890  0.00  0.00     0.204 C 
BRANCH  65  70
HETATM   70  O   UNK N   1      31.244  17.591   7.366  0.00  0.00    -0.310 OA
BRANCH  70  71
HETATM   71  C   UNK N   1      31.840  16.996   8.436  0.00  0.00     0.262 C 
HETATM   72  O   UNK N   1      31.191  16.322   9.221  0.00  0.00    -0.265 OA
BRANCH  71  73
HETATM   73  C   UNK N   1      33.319  17.120   8.631  0.00  0.00     0.077 C 
HETATM   74  C   UNK N   1      33.853  18.370   7.964  0.00  0.00     0.020 C 
HETATM   75  C   UNK N   1      34.027  15.899   8.068  0.00  0.00     0.020 C 
ENDBRANCH  71  73
ENDBRANCH  70  71
ENDBRANCH  65  70
BRANCH  68  76
HETATM   76  O   UNK N   1      32.538  17.229   4.940  0.00  0.00    -0.390 OA
HETATM   77  H   UNK N   1      33.288  16.904   4.417  0.00  0.00     0.210 HD
ENDBRANCH  68  76
BRANCH  69  78
HETATM   78  O   UNK N   1      31.194  15.792   2.816  0.00  0.00    -0.388 OA
HETATM   79  H   UNK N   1      31.146  16.161   1.921  0.00  0.00     0.210 HD
ENDBRANCH  69  78
ENDBRANCH  61  62
ENDBRANCH  12  61
TORSDOF 22
ENDMDL
