MODEL 1
REMARK VINA RESULT:      -7.4      0.000      0.000
REMARK  10 active torsions:
REMARK  status: ('A' for Active; 'I' for Inactive)
REMARK    1  A    between atoms: C_3  and  N_4 
REMARK    2  A    between atoms: N_4  and  C_5 
REMARK    3  A    between atoms: C_6  and  C_7 
REMARK    4  A    between atoms: C_7  and  O_8 
REMARK    5  A    between atoms: O_8  and  C_9 
REMARK    6  A    between atoms: C_9  and  C_10 
REMARK    7  A    between atoms: C_10  and  C_11 
REMARK    8  A    between atoms: C_10  and  O_13 
REMARK    9  A    between atoms: C_11  and  O_12 
REMARK   10  A    between atoms: C_26  and  C_27 
ROOT
HETATM    1  N   UNK N   1      22.281  16.619   4.491  0.00  0.00    -0.355 N 
HETATM    2  H   UNK N   1      21.578  16.935   5.102  0.00  0.00     0.166 HD
ENDROOT
BRANCH   1   3
HETATM    3  C   UNK N   1      23.637  16.818   4.912  0.00  0.00     0.046 A 
HETATM    4  C   UNK N   1      24.451  17.942   4.573  0.00  0.00     0.018 A 
HETATM    5  C   UNK N   1      25.798  17.989   5.029  0.00  0.00     0.059 A 
HETATM    6  C   UNK N   1      23.979  18.996   3.781  0.00  0.00     0.016 A 
HETATM    7  N   UNK N   1      26.268  16.984   5.822  0.00  0.00    -0.364 N 
HETATM    8  C   UNK N   1      26.650  19.056   4.641  0.00  0.00     0.075 A 
HETATM    9  C   UNK N   1      25.496  15.933   6.187  0.00  0.00     0.090 A 
ATOM     10  HN  UNK N   1      27.233  17.025   6.150  1.00  0.00     0.165 HD
HETATM   11  C   UNK N   1      24.188  15.828   5.729  0.00  0.00     0.047 A 
HETATM   12  C   UNK N   1      26.130  20.081   3.839  0.00  0.00     0.018 A 
HETATM   13  C   UNK N   1      24.803  20.059   3.425  0.00  0.00     0.002 A 
BRANCH   8  14
HETATM   14  C   UNK N   1      28.117  19.140   5.004  0.00  0.00     0.419 C 
HETATM   15  F   UNK N   1      28.254  19.223   6.378  0.00  0.00    -0.166 F 
HETATM   16  F   UNK N   1      28.858  18.060   4.559  0.00  0.00    -0.166 F 
HETATM   17  F   UNK N   1      28.649  20.283   4.435  0.00  0.00    -0.166 F 
ENDBRANCH   8  14
ENDBRANCH   1   3
BRANCH   1  18
HETATM   18  C   UNK N   1      21.852  16.015   3.280  0.00  0.00     0.049 A 
HETATM   19  C   UNK N   1      20.648  16.441   2.696  0.00  0.00     0.066 A 
HETATM   20  C   UNK N   1      20.270  15.951   1.441  0.00  0.00     0.020 A 
HETATM   21  C   UNK N   1      21.063  14.999   0.794  0.00  0.00     0.001 A 
HETATM   22  C   UNK N   1      22.236  14.536   1.397  0.00  0.00     0.002 A 
HETATM   23  C   UNK N   1      22.637  15.048   2.634  0.00  0.00     0.030 A 
BRANCH  19  24
HETATM   24  C   UNK N   1      19.790  17.417   3.400  0.00  0.00     0.295 C 
HETATM   25  O   UNK N   1      19.187  17.077   4.404  0.00  0.00    -0.259 OA
BRANCH  24  26
HETATM   26  O   UNK N   1      19.682  18.697   2.960  0.00  0.00    -0.315 OA
BRANCH  26  27
HETATM   27  C   UNK N   1      20.460  19.716   3.476  0.00  0.00     0.212 C 
BRANCH  27  28
HETATM   28  C   UNK N   1      20.716  20.759   2.385  0.00  0.00     0.166 C 
BRANCH  28  29
HETATM   29  C   UNK N   1      21.046  20.102   1.049  0.00  0.00     0.198 C 
BRANCH  29  30
HETATM   30  O   UNK N   1      20.714  20.948  -0.012  0.00  0.00    -0.398 OA
HETATM   31  H   UNK N   1      21.204  21.586  -0.555  0.00  0.00     0.209 HD
ENDBRANCH  29  30
ENDBRANCH  28  29
BRANCH  28  32
HETATM   32  O   UNK N   1      21.742  21.628   2.758  0.00  0.00    -0.391 OA
HETATM   33  H   UNK N   1      22.263  22.334   2.345  0.00  0.00     0.210 HD
ENDBRANCH  28  32
ENDBRANCH  27  28
ENDBRANCH  26  27
ENDBRANCH  24  26
ENDBRANCH  19  24
ENDBRANCH   1  18
TORSDOF 10
ENDMDL
MODEL 2
REMARK VINA RESULT:      -7.2     13.245     16.385
REMARK  10 active torsions:
REMARK  status: ('A' for Active; 'I' for Inactive)
REMARK    1  A    between atoms: C_3  and  N_4 
REMARK    2  A    between atoms: N_4  and  C_5 
REMARK    3  A    between atoms: C_6  and  C_7 
REMARK    4  A    between atoms: C_7  and  O_8 
REMARK    5  A    between atoms: O_8  and  C_9 
REMARK    6  A    between atoms: C_9  and  C_10 
REMARK    7  A    between atoms: C_10  and  C_11 
REMARK    8  A    between atoms: C_10  and  O_13 
REMARK    9  A    between atoms: C_11  and  O_12 
REMARK   10  A    between atoms: C_26  and  C_27 
ROOT
HETATM    1  N   UNK N   1      35.256  13.862  12.150  0.00  0.00    -0.355 N 
HETATM    2  H   UNK N   1      34.411  14.343  11.994  0.00  0.00     0.166 HD
ENDROOT
BRANCH   1   3
HETATM    3  C   UNK N   1      35.602  13.593  13.515  0.00  0.00     0.046 A 
HETATM    4  C   UNK N   1      35.143  12.476  14.278  0.00  0.00     0.018 A 
HETATM    5  C   UNK N   1      35.535  12.356  15.640  0.00  0.00     0.059 A 
HETATM    6  C   UNK N   1      34.294  11.500  13.741  0.00  0.00     0.016 A 
HETATM    7  N   UNK N   1      36.382  13.283  16.174  0.00  0.00    -0.364 N 
HETATM    8  C   UNK N   1      35.030  11.298  16.441  0.00  0.00     0.075 A 
HETATM    9  C   UNK N   1      36.859  14.324  15.452  0.00  0.00     0.090 A 
ATOM     10  HN  UNK N   1      36.663  13.189  17.150  1.00  0.00     0.165 HD
HETATM   11  C   UNK N   1      36.467  14.501  14.130  0.00  0.00     0.047 A 
HETATM   12  C   UNK N   1      34.175  10.354  15.857  0.00  0.00     0.018 A 
HETATM   13  C   UNK N   1      33.822  10.445  14.515  0.00  0.00     0.002 A 
BRANCH   8  14
HETATM   14  C   UNK N   1      35.322  11.145  17.919  0.00  0.00     0.419 C 
HETATM   15  F   UNK N   1      36.627  10.723  18.096  0.00  0.00    -0.166 F 
HETATM   16  F   UNK N   1      35.141  12.312  18.640  0.00  0.00    -0.166 F 
HETATM   17  F   UNK N   1      34.471  10.187  18.440  0.00  0.00    -0.166 F 
ENDBRANCH   8  14
ENDBRANCH   1   3
BRANCH   1  18
HETATM   18  C   UNK N   1      36.010  13.507  11.000  0.00  0.00     0.049 A 
HETATM   19  C   UNK N   1      36.239  14.476  10.010  0.00  0.00     0.066 A 
HETATM   20  C   UNK N   1      37.083  14.186   8.932  0.00  0.00     0.020 A 
HETATM   21  C   UNK N   1      37.656  12.916   8.815  0.00  0.00     0.001 A 
HETATM   22  C   UNK N   1      37.387  11.934   9.773  0.00  0.00     0.002 A 
HETATM   23  C   UNK N   1      36.573  12.229  10.870  0.00  0.00     0.030 A 
BRANCH  19  24
HETATM   24  C   UNK N   1      35.600  15.805  10.115  0.00  0.00     0.295 C 
HETATM   25  O   UNK N   1      36.233  16.746  10.562  0.00  0.00    -0.259 OA
BRANCH  24  26
HETATM   26  O   UNK N   1      34.322  16.000   9.697  0.00  0.00    -0.315 OA
BRANCH  26  27
HETATM   27  C   UNK N   1      33.969  15.918   8.363  0.00  0.00     0.212 C 
BRANCH  27  28
HETATM   28  C   UNK N   1      34.623  17.070   7.596  0.00  0.00     0.166 C 
BRANCH  28  29
HETATM   29  C   UNK N   1      34.189  18.425   8.145  0.00  0.00     0.198 C 
BRANCH  29  30
HETATM   30  O   UNK N   1      35.298  19.168   8.557  0.00  0.00    -0.398 OA
HETATM   31  H   UNK N   1      35.500  19.723   9.327  0.00  0.00     0.209 HD
ENDBRANCH  29  30
ENDBRANCH  28  29
BRANCH  28  32
HETATM   32  O   UNK N   1      34.330  16.990   6.234  0.00  0.00    -0.391 OA
HETATM   33  H   UNK N   1      34.498  17.517   5.437  0.00  0.00     0.210 HD
ENDBRANCH  28  32
ENDBRANCH  27  28
ENDBRANCH  26  27
ENDBRANCH  24  26
ENDBRANCH  19  24
ENDBRANCH   1  18
TORSDOF 10
ENDMDL
MODEL 3
REMARK VINA RESULT:      -7.0      4.006      5.941
REMARK  10 active torsions:
REMARK  status: ('A' for Active; 'I' for Inactive)
REMARK    1  A    between atoms: C_3  and  N_4 
REMARK    2  A    between atoms: N_4  and  C_5 
REMARK    3  A    between atoms: C_6  and  C_7 
REMARK    4  A    between atoms: C_7  and  O_8 
REMARK    5  A    between atoms: O_8  and  C_9 
REMARK    6  A    between atoms: C_9  and  C_10 
REMARK    7  A    between atoms: C_10  and  C_11 
REMARK    8  A    between atoms: C_10  and  O_13 
REMARK    9  A    between atoms: C_11  and  O_12 
REMARK   10  A    between atoms: C_26  and  C_27 
ROOT
HETATM    1  N   UNK N   1      22.242  17.976   4.928  0.00  0.00    -0.355 N 
HETATM    2  H   UNK N   1      21.333  18.337   4.825  0.00  0.00     0.166 HD
ENDROOT
BRANCH   1   3
HETATM    3  C   UNK N   1      22.372  16.760   5.676  0.00  0.00     0.046 A 
HETATM    4  C   UNK N   1      21.576  16.396   6.805  0.00  0.00     0.018 A 
HETATM    5  C   UNK N   1      21.842  15.171   7.479  0.00  0.00     0.059 A 
HETATM    6  C   UNK N   1      20.552  17.216   7.295  0.00  0.00     0.016 A 
HETATM    7  N   UNK N   1      22.818  14.347   7.002  0.00  0.00    -0.364 N 
HETATM    8  C   UNK N   1      21.117  14.825   8.650  0.00  0.00     0.075 A 
HETATM    9  C   UNK N   1      23.553  14.658   5.908  0.00  0.00     0.090 A 
ATOM     10  HN  UNK N   1      23.002  13.468   7.486  1.00  0.00     0.165 HD
HETATM   11  C   UNK N   1      23.353  15.864   5.246  0.00  0.00     0.047 A 
HETATM   12  C   UNK N   1      20.109  15.686   9.103  0.00  0.00     0.018 A 
HETATM   13  C   UNK N   1      19.819  16.865   8.423  0.00  0.00     0.002 A 
BRANCH   8  14
HETATM   14  C   UNK N   1      21.395  13.589   9.479  0.00  0.00     0.419 C 
HETATM   15  F   UNK N   1      20.453  13.482  10.487  0.00  0.00    -0.166 F 
HETATM   16  F   UNK N   1      21.378  12.417   8.744  0.00  0.00    -0.166 F 
HETATM   17  F   UNK N   1      22.647  13.714  10.052  0.00  0.00    -0.166 F 
ENDBRANCH   8  14
ENDBRANCH   1   3
BRANCH   1  18
HETATM   18  C   UNK N   1      23.294  18.713   4.323  0.00  0.00     0.049 A 
HETATM   19  C   UNK N   1      22.976  19.724   3.402  0.00  0.00     0.066 A 
HETATM   20  C   UNK N   1      23.987  20.545   2.891  0.00  0.00     0.020 A 
HETATM   21  C   UNK N   1      25.318  20.325   3.255  0.00  0.00     0.001 A 
HETATM   22  C   UNK N   1      25.643  19.285   4.131  0.00  0.00     0.002 A 
HETATM   23  C   UNK N   1      24.634  18.484   4.673  0.00  0.00     0.030 A 
BRANCH  19  24
HETATM   24  C   UNK N   1      21.572  19.930   2.987  0.00  0.00     0.295 C 
HETATM   25  O   UNK N   1      20.929  20.848   3.466  0.00  0.00    -0.259 OA
BRANCH  24  26
HETATM   26  O   UNK N   1      20.993  19.123   2.061  0.00  0.00    -0.315 OA
BRANCH  26  27
HETATM   27  C   UNK N   1      19.883  18.353   2.353  0.00  0.00     0.212 C 
BRANCH  27  28
HETATM   28  C   UNK N   1      20.219  16.876   2.128  0.00  0.00     0.166 C 
BRANCH  28  29
HETATM   29  C   UNK N   1      20.098  16.493   0.657  0.00  0.00     0.198 C 
BRANCH  29  30
HETATM   30  O   UNK N   1      20.282  17.610  -0.161  0.00  0.00    -0.398 OA
HETATM   31  H   UNK N   1      20.101  18.559  -0.069  0.00  0.00     0.209 HD
ENDBRANCH  29  30
ENDBRANCH  28  29
BRANCH  28  32
HETATM   32  O   UNK N   1      19.401  16.056   2.906  0.00  0.00    -0.391 OA
HETATM   33  H   UNK N   1      18.893  15.238   2.786  0.00  0.00     0.210 HD
ENDBRANCH  28  32
ENDBRANCH  27  28
ENDBRANCH  26  27
ENDBRANCH  24  26
ENDBRANCH  19  24
ENDBRANCH   1  18
TORSDOF 10
ENDMDL
MODEL 4
REMARK VINA RESULT:      -7.0      4.558      5.917
REMARK  10 active torsions:
REMARK  status: ('A' for Active; 'I' for Inactive)
REMARK    1  A    between atoms: C_3  and  N_4 
REMARK    2  A    between atoms: N_4  and  C_5 
REMARK    3  A    between atoms: C_6  and  C_7 
REMARK    4  A    between atoms: C_7  and  O_8 
REMARK    5  A    between atoms: O_8  and  C_9 
REMARK    6  A    between atoms: C_9  and  C_10 
REMARK    7  A    between atoms: C_10  and  C_11 
REMARK    8  A    between atoms: C_10  and  O_13 
REMARK    9  A    between atoms: C_11  and  O_12 
REMARK   10  A    between atoms: C_26  and  C_27 
ROOT
HETATM    1  N   UNK N   1      22.814  16.030   5.986  0.00  0.00    -0.355 N 
HETATM    2  H   UNK N   1      23.318  16.876   6.013  0.00  0.00     0.166 HD
ENDROOT
BRANCH   1   3
HETATM    3  C   UNK N   1      23.217  15.010   6.908  0.00  0.00     0.046 A 
HETATM    4  C   UNK N   1      22.414  14.492   7.969  0.00  0.00     0.018 A 
HETATM    5  C   UNK N   1      22.960  13.505   8.838  0.00  0.00     0.059 A 
HETATM    6  C   UNK N   1      21.108  14.938   8.207  0.00  0.00     0.016 A 
HETATM    7  N   UNK N   1      24.220  13.039   8.607  0.00  0.00    -0.364 N 
HETATM    8  C   UNK N   1      22.209  13.032   9.946  0.00  0.00     0.075 A 
HETATM    9  C   UNK N   1      24.979  13.490   7.581  0.00  0.00     0.090 A 
ATOM     10  HN  UNK N   1      24.605  12.328   9.230  1.00  0.00     0.165 HD
HETATM   11  C   UNK N   1      24.499  14.483   6.735  0.00  0.00     0.047 A 
HETATM   12  C   UNK N   1      20.910  13.519  10.144  0.00  0.00     0.018 A 
HETATM   13  C   UNK N   1      20.359  14.453   9.274  0.00  0.00     0.002 A 
BRANCH   8  14
HETATM   14  C   UNK N   1      22.743  12.052  10.970  0.00  0.00     0.419 C 
HETATM   15  F   UNK N   1      22.862  10.798  10.399  0.00  0.00    -0.166 F 
HETATM   16  F   UNK N   1      23.974  12.412  11.487  0.00  0.00    -0.166 F 
HETATM   17  F   UNK N   1      21.846  11.979  12.020  0.00  0.00    -0.166 F 
ENDBRANCH   8  14
ENDBRANCH   1   3
BRANCH   1  18
HETATM   18  C   UNK N   1      21.763  15.944   5.035  0.00  0.00     0.049 A 
HETATM   19  C   UNK N   1      21.090  17.117   4.656  0.00  0.00     0.066 A 
HETATM   20  C   UNK N   1      20.139  17.074   3.631  0.00  0.00     0.020 A 
HETATM   21  C   UNK N   1      19.821  15.857   3.021  0.00  0.00     0.001 A 
HETATM   22  C   UNK N   1      20.453  14.680   3.433  0.00  0.00     0.002 A 
HETATM   23  C   UNK N   1      21.430  14.722   4.432  0.00  0.00     0.030 A 
BRANCH  19  24
HETATM   24  C   UNK N   1      21.398  18.396   5.329  0.00  0.00     0.295 C 
HETATM   25  O   UNK N   1      20.975  18.604   6.454  0.00  0.00    -0.259 OA
BRANCH  24  26
HETATM   26  O   UNK N   1      22.167  19.337   4.722  0.00  0.00    -0.315 OA
BRANCH  26  27
HETATM   27  C   UNK N   1      22.308  19.389   3.348  0.00  0.00     0.212 C 
BRANCH  27  28
HETATM   28  C   UNK N   1      21.379  20.469   2.786  0.00  0.00     0.166 C 
BRANCH  28  29
HETATM   29  C   UNK N   1      20.821  20.074   1.423  0.00  0.00     0.198 C 
BRANCH  29  30
HETATM   30  O   UNK N   1      21.428  20.815   0.408  0.00  0.00    -0.398 OA
HETATM   31  H   UNK N   1      21.927  21.647   0.376  0.00  0.00     0.209 HD
ENDBRANCH  29  30
ENDBRANCH  28  29
BRANCH  28  32
HETATM   32  O   UNK N   1      22.040  21.695   2.695  0.00  0.00    -0.391 OA
HETATM   33  H   UNK N   1      21.889  22.609   2.984  0.00  0.00     0.210 HD
ENDBRANCH  28  32
ENDBRANCH  27  28
ENDBRANCH  26  27
ENDBRANCH  24  26
ENDBRANCH  19  24
ENDBRANCH   1  18
TORSDOF 10
ENDMDL
MODEL 5
REMARK VINA RESULT:      -7.0      5.100      7.749
REMARK  10 active torsions:
REMARK  status: ('A' for Active; 'I' for Inactive)
REMARK    1  A    between atoms: C_3  and  N_4 
REMARK    2  A    between atoms: N_4  and  C_5 
REMARK    3  A    between atoms: C_6  and  C_7 
REMARK    4  A    between atoms: C_7  and  O_8 
REMARK    5  A    between atoms: O_8  and  C_9 
REMARK    6  A    between atoms: C_9  and  C_10 
REMARK    7  A    between atoms: C_10  and  C_11 
REMARK    8  A    between atoms: C_10  and  O_13 
REMARK    9  A    between atoms: C_11  and  O_12 
REMARK   10  A    between atoms: C_26  and  C_27 
ROOT
HETATM    1  N   UNK N   1      25.994  17.720   4.738  0.00  0.00    -0.355 N 
HETATM    2  H   UNK N   1      26.017  17.627   5.718  0.00  0.00     0.166 HD
ENDROOT
BRANCH   1   3
HETATM    3  C   UNK N   1      24.958  18.549   4.195  0.00  0.00     0.046 A 
HETATM    4  C   UNK N   1      23.568  18.223   4.168  0.00  0.00     0.018 A 
HETATM    5  C   UNK N   1      22.653  19.126   3.557  0.00  0.00     0.059 A 
HETATM    6  C   UNK N   1      23.069  17.028   4.700  0.00  0.00     0.016 A 
HETATM    7  N   UNK N   1      23.116  20.306   3.056  0.00  0.00    -0.364 N 
HETATM    8  C   UNK N   1      21.278  18.788   3.449  0.00  0.00     0.075 A 
HETATM    9  C   UNK N   1      24.425  20.649   3.111  0.00  0.00     0.090 A 
ATOM     10  HN  UNK N   1      22.455  20.952   2.624  1.00  0.00     0.165 HD
HETATM   11  C   UNK N   1      25.358  19.777   3.661  0.00  0.00     0.047 A 
HETATM   12  C   UNK N   1      20.832  17.575   3.990  0.00  0.00     0.018 A 
HETATM   13  C   UNK N   1      21.717  16.709   4.623  0.00  0.00     0.002 A 
BRANCH   8  14
HETATM   14  C   UNK N   1      20.252  19.646   2.737  0.00  0.00     0.419 C 
HETATM   15  F   UNK N   1      18.996  19.086   2.880  0.00  0.00    -0.166 F 
HETATM   16  F   UNK N   1      20.203  20.947   3.204  0.00  0.00    -0.166 F 
HETATM   17  F   UNK N   1      20.570  19.688   1.392  0.00  0.00    -0.166 F 
ENDBRANCH   8  14
ENDBRANCH   1   3
BRANCH   1  18
HETATM   18  C   UNK N   1      26.987  17.018   4.007  0.00  0.00     0.049 A 
HETATM   19  C   UNK N   1      28.338  17.194   4.349  0.00  0.00     0.066 A 
HETATM   20  C   UNK N   1      29.322  16.418   3.726  0.00  0.00     0.020 A 
HETATM   21  C   UNK N   1      28.967  15.506   2.728  0.00  0.00     0.001 A 
HETATM   22  C   UNK N   1      27.628  15.366   2.350  0.00  0.00     0.002 A 
HETATM   23  C   UNK N   1      26.636  16.113   2.993  0.00  0.00     0.030 A 
BRANCH  19  24
HETATM   24  C   UNK N   1      28.716  18.188   5.376  0.00  0.00     0.295 C 
HETATM   25  O   UNK N   1      28.381  19.352   5.241  0.00  0.00    -0.259 OA
BRANCH  24  26
HETATM   26  O   UNK N   1      29.411  17.818   6.482  0.00  0.00    -0.315 OA
BRANCH  26  27
HETATM   27  C   UNK N   1      28.783  17.314   7.606  0.00  0.00     0.212 C 
BRANCH  27  28
HETATM   28  C   UNK N   1      28.570  18.446   8.615  0.00  0.00     0.166 C 
BRANCH  28  29
HETATM   29  C   UNK N   1      29.777  18.612   9.533  0.00  0.00     0.198 C 
BRANCH  29  30
HETATM   30  O   UNK N   1      30.827  17.790   9.119  0.00  0.00    -0.398 OA
HETATM   31  H   UNK N   1      31.235  17.582   8.263  0.00  0.00     0.209 HD
ENDBRANCH  29  30
ENDBRANCH  28  29
BRANCH  28  32
HETATM   32  O   UNK N   1      27.419  18.225   9.373  0.00  0.00    -0.391 OA
HETATM   33  H   UNK N   1      26.473  18.427   9.306  0.00  0.00     0.210 HD
ENDBRANCH  28  32
ENDBRANCH  27  28
ENDBRANCH  26  27
ENDBRANCH  24  26
ENDBRANCH  19  24
ENDBRANCH   1  18
TORSDOF 10
ENDMDL
MODEL 6
REMARK VINA RESULT:      -7.0      7.546     10.730
REMARK  10 active torsions:
REMARK  status: ('A' for Active; 'I' for Inactive)
REMARK    1  A    between atoms: C_3  and  N_4 
REMARK    2  A    between atoms: N_4  and  C_5 
REMARK    3  A    between atoms: C_6  and  C_7 
REMARK    4  A    between atoms: C_7  and  O_8 
REMARK    5  A    between atoms: O_8  and  C_9 
REMARK    6  A    between atoms: C_9  and  C_10 
REMARK    7  A    between atoms: C_10  and  C_11 
REMARK    8  A    between atoms: C_10  and  O_13 
REMARK    9  A    between atoms: C_11  and  O_12 
REMARK   10  A    between atoms: C_26  and  C_27 
ROOT
HETATM    1  N   UNK N   1      30.454  15.705   6.434  0.00  0.00    -0.355 N 
HETATM    2  H   UNK N   1      30.053  14.843   6.685  0.00  0.00     0.166 HD
ENDROOT
BRANCH   1   3
HETATM    3  C   UNK N   1      29.786  16.886   6.897  0.00  0.00     0.046 A 
HETATM    4  C   UNK N   1      28.884  17.680   6.125  0.00  0.00     0.018 A 
HETATM    5  C   UNK N   1      28.322  18.854   6.702  0.00  0.00     0.059 A 
HETATM    6  C   UNK N   1      28.546  17.361   4.804  0.00  0.00     0.016 A 
HETATM    7  N   UNK N   1      28.619  19.168   7.995  0.00  0.00    -0.364 N 
HETATM    8  C   UNK N   1      27.485  19.702   5.930  0.00  0.00     0.075 A 
HETATM    9  C   UNK N   1      29.439  18.403   8.753  0.00  0.00     0.090 A 
ATOM     10  HN  UNK N   1      28.210  20.008   8.405  1.00  0.00     0.165 HD
HETATM   11  C   UNK N   1      30.041  17.271   8.215  0.00  0.00     0.047 A 
HETATM   12  C   UNK N   1      27.187  19.341   4.609  0.00  0.00     0.018 A 
HETATM   13  C   UNK N   1      27.701  18.173   4.056  0.00  0.00     0.002 A 
BRANCH   8  14
HETATM   14  C   UNK N   1      26.918  21.013   6.432  0.00  0.00     0.419 C 
HETATM   15  F   UNK N   1      25.960  21.477   5.549  0.00  0.00    -0.166 F 
HETATM   16  F   UNK N   1      26.343  20.921   7.687  0.00  0.00    -0.166 F 
HETATM   17  F   UNK N   1      27.944  21.939   6.502  0.00  0.00    -0.166 F 
ENDBRANCH   8  14
ENDBRANCH   1   3
BRANCH   1  18
HETATM   18  C   UNK N   1      31.635  15.655   5.647  0.00  0.00     0.049 A 
HETATM   19  C   UNK N   1      32.850  15.314   6.263  0.00  0.00     0.066 A 
HETATM   20  C   UNK N   1      34.000  15.136   5.486  0.00  0.00     0.020 A 
HETATM   21  C   UNK N   1      33.951  15.347   4.105  0.00  0.00     0.001 A 
HETATM   22  C   UNK N   1      32.754  15.737   3.497  0.00  0.00     0.002 A 
HETATM   23  C   UNK N   1      31.594  15.882   4.262  0.00  0.00     0.030 A 
BRANCH  19  24
HETATM   24  C   UNK N   1      32.909  15.130   7.728  0.00  0.00     0.295 C 
HETATM   25  O   UNK N   1      32.294  14.214   8.247  0.00  0.00    -0.259 OA
BRANCH  24  26
HETATM   26  O   UNK N   1      33.659  15.954   8.505  0.00  0.00    -0.315 OA
BRANCH  26  27
HETATM   27  C   UNK N   1      34.742  15.491   9.228  0.00  0.00     0.212 C 
BRANCH  27  28
HETATM   28  C   UNK N   1      34.490  15.724  10.721  0.00  0.00     0.166 C 
BRANCH  28  29
HETATM   29  C   UNK N   1      35.764  15.546  11.539  0.00  0.00     0.198 C 
BRANCH  29  30
HETATM   30  O   UNK N   1      36.855  16.122  10.883  0.00  0.00    -0.398 OA
HETATM   31  H   UNK N   1      36.983  16.918  10.344  0.00  0.00     0.209 HD
ENDBRANCH  29  30
ENDBRANCH  28  29
BRANCH  28  32
HETATM   32  O   UNK N   1      33.493  14.869  11.195  0.00  0.00    -0.391 OA
HETATM   33  H   UNK N   1      33.364  14.277  11.952  0.00  0.00     0.210 HD
ENDBRANCH  28  32
ENDBRANCH  27  28
ENDBRANCH  26  27
ENDBRANCH  24  26
ENDBRANCH  19  24
ENDBRANCH   1  18
TORSDOF 10
ENDMDL
MODEL 7
REMARK VINA RESULT:      -6.9      4.413      6.166
REMARK  10 active torsions:
REMARK  status: ('A' for Active; 'I' for Inactive)
REMARK    1  A    between atoms: C_3  and  N_4 
REMARK    2  A    between atoms: N_4  and  C_5 
REMARK    3  A    between atoms: C_6  and  C_7 
REMARK    4  A    between atoms: C_7  and  O_8 
REMARK    5  A    between atoms: O_8  and  C_9 
REMARK    6  A    between atoms: C_9  and  C_10 
REMARK    7  A    between atoms: C_10  and  C_11 
REMARK    8  A    between atoms: C_10  and  O_13 
REMARK    9  A    between atoms: C_11  and  O_12 
REMARK   10  A    between atoms: C_26  and  C_27 
ROOT
HETATM    1  N   UNK N   1      23.038  15.632   5.414  0.00  0.00    -0.355 N 
HETATM    2  H   UNK N   1      22.151  15.567   4.993  0.00  0.00     0.166 HD
ENDROOT
BRANCH   1   3
HETATM    3  C   UNK N   1      23.339  14.669   6.434  0.00  0.00     0.046 A 
HETATM    4  C   UNK N   1      22.510  14.372   7.558  0.00  0.00     0.018 A 
HETATM    5  C   UNK N   1      22.954  13.419   8.517  0.00  0.00     0.059 A 
HETATM    6  C   UNK N   1      21.279  15.005   7.770  0.00  0.00     0.016 A 
HETATM    7  N   UNK N   1      24.138  12.773   8.316  0.00  0.00    -0.364 N 
HETATM    8  C   UNK N   1      22.184  13.164   9.683  0.00  0.00     0.075 A 
HETATM    9  C   UNK N   1      24.915  13.013   7.233  0.00  0.00     0.090 A 
ATOM     10  HN  UNK N   1      24.449  12.088   9.004  1.00  0.00     0.165 HD
HETATM   11  C   UNK N   1      24.538  13.966   6.294  0.00  0.00     0.047 A 
HETATM   12  C   UNK N   1      20.964  13.833   9.851  0.00  0.00     0.018 A 
HETATM   13  C   UNK N   1      20.508  14.734   8.895  0.00  0.00     0.002 A 
BRANCH   8  14
HETATM   14  C   UNK N   1      22.622  12.236  10.797  0.00  0.00     0.419 C 
HETATM   15  F   UNK N   1      22.807  10.960  10.295  0.00  0.00    -0.166 F 
HETATM   16  F   UNK N   1      23.794  12.633  11.416  0.00  0.00    -0.166 F 
HETATM   17  F   UNK N   1      21.627  12.196  11.756  0.00  0.00    -0.166 F 
ENDBRANCH   8  14
ENDBRANCH   1   3
BRANCH   1  18
HETATM   18  C   UNK N   1      23.891  16.669   4.952  0.00  0.00     0.049 A 
HETATM   19  C   UNK N   1      23.420  17.992   4.960  0.00  0.00     0.066 A 
HETATM   20  C   UNK N   1      24.284  19.041   4.629  0.00  0.00     0.020 A 
HETATM   21  C   UNK N   1      25.600  18.769   4.242  0.00  0.00     0.001 A 
HETATM   22  C   UNK N   1      26.055  17.448   4.184  0.00  0.00     0.002 A 
HETATM   23  C   UNK N   1      25.207  16.398   4.547  0.00  0.00     0.030 A 
BRANCH  19  24
HETATM   24  C   UNK N   1      22.018  18.274   5.332  0.00  0.00     0.295 C 
HETATM   25  O   UNK N   1      21.723  18.431   6.504  0.00  0.00    -0.259 OA
BRANCH  24  26
HETATM   26  O   UNK N   1      21.054  18.386   4.382  0.00  0.00    -0.315 OA
BRANCH  26  27
HETATM   27  C   UNK N   1      20.816  19.576   3.718  0.00  0.00     0.212 C 
BRANCH  27  28
HETATM   28  C   UNK N   1      20.680  19.298   2.218  0.00  0.00     0.166 C 
BRANCH  28  29
HETATM   29  C   UNK N   1      20.965  20.546   1.390  0.00  0.00     0.198 C 
BRANCH  29  30
HETATM   30  O   UNK N   1      20.553  20.365   0.068  0.00  0.00    -0.398 OA
HETATM   31  H   UNK N   1      20.764  20.794  -0.777  0.00  0.00     0.209 HD
ENDBRANCH  29  30
ENDBRANCH  28  29
BRANCH  28  32
HETATM   32  O   UNK N   1      19.410  18.804   1.918  0.00  0.00    -0.391 OA
HETATM   33  H   UNK N   1      19.033  18.092   1.378  0.00  0.00     0.210 HD
ENDBRANCH  28  32
ENDBRANCH  27  28
ENDBRANCH  26  27
ENDBRANCH  24  26
ENDBRANCH  19  24
ENDBRANCH   1  18
TORSDOF 10
ENDMDL
MODEL 8
REMARK VINA RESULT:      -6.9      4.639      6.567
REMARK  10 active torsions:
REMARK  status: ('A' for Active; 'I' for Inactive)
REMARK    1  A    between atoms: C_3  and  N_4 
REMARK    2  A    between atoms: N_4  and  C_5 
REMARK    3  A    between atoms: C_6  and  C_7 
REMARK    4  A    between atoms: C_7  and  O_8 
REMARK    5  A    between atoms: O_8  and  C_9 
REMARK    6  A    between atoms: C_9  and  C_10 
REMARK    7  A    between atoms: C_10  and  C_11 
REMARK    8  A    between atoms: C_10  and  O_13 
REMARK    9  A    between atoms: C_11  and  O_12 
REMARK   10  A    between atoms: C_26  and  C_27 
ROOT
HETATM    1  N   UNK N   1      28.615  17.714   4.183  0.00  0.00    -0.355 N 
HETATM    2  H   UNK N   1      28.565  18.632   3.832  0.00  0.00     0.166 HD
ENDROOT
BRANCH   1   3
HETATM    3  C   UNK N   1      29.391  17.522   5.374  0.00  0.00     0.046 A 
HETATM    4  C   UNK N   1      30.817  17.474   5.431  0.00  0.00     0.018 A 
HETATM    5  C   UNK N   1      31.455  17.234   6.681  0.00  0.00     0.059 A 
HETATM    6  C   UNK N   1      31.618  17.629   4.294  0.00  0.00     0.016 A 
HETATM    7  N   UNK N   1      30.693  17.106   7.804  0.00  0.00    -0.364 N 
HETATM    8  C   UNK N   1      32.868  17.104   6.751  0.00  0.00     0.075 A 
HETATM    9  C   UNK N   1      29.342  17.191   7.773  0.00  0.00     0.090 A 
ATOM     10  HN  UNK N   1      31.156  16.939   8.698  1.00  0.00     0.165 HD
HETATM   11  C   UNK N   1      28.678  17.382   6.567  0.00  0.00     0.047 A 
HETATM   12  C   UNK N   1      33.622  17.259   5.580  0.00  0.00     0.018 A 
HETATM   13  C   UNK N   1      33.004  17.533   4.364  0.00  0.00     0.002 A 
BRANCH   8  14
HETATM   14  C   UNK N   1      33.622  16.761   8.018  0.00  0.00     0.419 C 
HETATM   15  F   UNK N   1      33.516  17.804   8.920  0.00  0.00    -0.166 F 
HETATM   16  F   UNK N   1      33.169  15.607   8.633  0.00  0.00    -0.166 F 
HETATM   17  F   UNK N   1      34.956  16.579   7.703  0.00  0.00    -0.166 F 
ENDBRANCH   8  14
ENDBRANCH   1   3
BRANCH   1  18
HETATM   18  C   UNK N   1      27.914  16.715   3.459  0.00  0.00     0.049 A 
HETATM   19  C   UNK N   1      26.510  16.745   3.441  0.00  0.00     0.066 A 
HETATM   20  C   UNK N   1      25.804  15.848   2.633  0.00  0.00     0.020 A 
HETATM   21  C   UNK N   1      26.493  14.888   1.885  0.00  0.00     0.001 A 
HETATM   22  C   UNK N   1      27.888  14.823   1.942  0.00  0.00     0.002 A 
HETATM   23  C   UNK N   1      28.601  15.739   2.720  0.00  0.00     0.030 A 
BRANCH  19  24
HETATM   24  C   UNK N   1      25.782  17.735   4.263  0.00  0.00     0.295 C 
HETATM   25  O   UNK N   1      24.974  17.353   5.092  0.00  0.00    -0.259 OA
BRANCH  24  26
HETATM   26  O   UNK N   1      26.018  19.065   4.125  0.00  0.00    -0.315 OA
BRANCH  26  27
HETATM   27  C   UNK N   1      25.603  19.983   5.072  0.00  0.00     0.212 C 
BRANCH  27  28
HETATM   28  C   UNK N   1      26.783  20.341   5.980  0.00  0.00     0.166 C 
BRANCH  28  29
HETATM   29  C   UNK N   1      26.434  21.484   6.926  0.00  0.00     0.198 C 
BRANCH  29  30
HETATM   30  O   UNK N   1      25.833  20.996   8.089  0.00  0.00    -0.398 OA
HETATM   31  H   UNK N   1      25.928  20.188   8.618  0.00  0.00     0.209 HD
ENDBRANCH  29  30
ENDBRANCH  28  29
BRANCH  28  32
HETATM   32  O   UNK N   1      27.908  20.672   5.224  0.00  0.00    -0.391 OA
HETATM   33  H   UNK N   1      28.392  21.477   4.982  0.00  0.00     0.210 HD
ENDBRANCH  28  32
ENDBRANCH  27  28
ENDBRANCH  26  27
ENDBRANCH  24  26
ENDBRANCH  19  24
ENDBRANCH   1  18
TORSDOF 10
ENDMDL
MODEL 9
REMARK VINA RESULT:      -6.8      4.430      7.013
REMARK  10 active torsions:
REMARK  status: ('A' for Active; 'I' for Inactive)
REMARK    1  A    between atoms: C_3  and  N_4 
REMARK    2  A    between atoms: N_4  and  C_5 
REMARK    3  A    between atoms: C_6  and  C_7 
REMARK    4  A    between atoms: C_7  and  O_8 
REMARK    5  A    between atoms: O_8  and  C_9 
REMARK    6  A    between atoms: C_9  and  C_10 
REMARK    7  A    between atoms: C_10  and  C_11 
REMARK    8  A    between atoms: C_10  and  O_13 
REMARK    9  A    between atoms: C_11  and  O_12 
REMARK   10  A    between atoms: C_26  and  C_27 
ROOT
HETATM    1  N   UNK N   1      27.552  17.712   6.680  0.00  0.00    -0.355 N 
HETATM    2  H   UNK N   1      27.002  16.921   6.882  0.00  0.00     0.166 HD
ENDROOT
BRANCH   1   3
HETATM    3  C   UNK N   1      28.782  17.844   7.404  0.00  0.00     0.046 A 
HETATM    4  C   UNK N   1      30.084  17.593   6.871  0.00  0.00     0.018 A 
HETATM    5  C   UNK N   1      31.219  17.726   7.719  0.00  0.00     0.059 A 
HETATM    6  C   UNK N   1      30.286  17.195   5.545  0.00  0.00     0.016 A 
HETATM    7  N   UNK N   1      31.045  18.137   9.007  0.00  0.00    -0.364 N 
HETATM    8  C   UNK N   1      32.516  17.407   7.235  0.00  0.00     0.075 A 
HETATM    9  C   UNK N   1      29.821  18.419   9.514  0.00  0.00     0.090 A 
ATOM     10  HN  UNK N   1      31.863  18.235   9.609  1.00  0.00     0.165 HD
HETATM   11  C   UNK N   1      28.683  18.263   8.733  0.00  0.00     0.047 A 
HETATM   12  C   UNK N   1      32.662  17.003   5.901  0.00  0.00     0.018 A 
HETATM   13  C   UNK N   1      31.559  16.912   5.059  0.00  0.00     0.002 A 
BRANCH   8  14
HETATM   14  C   UNK N   1      33.765  17.432   8.090  0.00  0.00     0.419 C 
HETATM   15  F   UNK N   1      34.814  16.853   7.400  0.00  0.00    -0.166 F 
HETATM   16  F   UNK N   1      34.147  18.706   8.471  0.00  0.00    -0.166 F 
HETATM   17  F   UNK N   1      33.529  16.698   9.238  0.00  0.00    -0.166 F 
ENDBRANCH   8  14
ENDBRANCH   1   3
BRANCH   1  18
HETATM   18  C   UNK N   1      27.045  18.607   5.702  0.00  0.00     0.049 A 
HETATM   19  C   UNK N   1      26.708  18.111   4.432  0.00  0.00     0.066 A 
HETATM   20  C   UNK N   1      26.091  18.949   3.497  0.00  0.00     0.020 A 
HETATM   21  C   UNK N   1      25.856  20.291   3.808  0.00  0.00     0.001 A 
HETATM   22  C   UNK N   1      26.237  20.800   5.053  0.00  0.00     0.002 A 
HETATM   23  C   UNK N   1      26.822  19.960   6.005  0.00  0.00     0.030 A 
BRANCH  19  24
HETATM   24  C   UNK N   1      26.994  16.701   4.091  0.00  0.00     0.295 C 
HETATM   25  O   UNK N   1      27.608  16.439   3.071  0.00  0.00    -0.259 OA
BRANCH  24  26
HETATM   26  O   UNK N   1      26.603  15.692   4.911  0.00  0.00    -0.315 OA
BRANCH  26  27
HETATM   27  C   UNK N   1      25.363  15.093   4.793  0.00  0.00     0.212 C 
BRANCH  27  28
HETATM   28  C   UNK N   1      24.646  15.144   6.145  0.00  0.00     0.166 C 
BRANCH  28  29
HETATM   29  C   UNK N   1      23.360  15.960   6.066  0.00  0.00     0.198 C 
BRANCH  29  30
HETATM   30  O   UNK N   1      23.640  17.291   5.752  0.00  0.00    -0.398 OA
HETATM   31  H   UNK N   1      24.118  18.011   6.194  0.00  0.00     0.209 HD
ENDBRANCH  29  30
ENDBRANCH  28  29
BRANCH  28  32
HETATM   32  O   UNK N   1      25.484  15.664   7.132  0.00  0.00    -0.391 OA
HETATM   33  H   UNK N   1      26.416  15.585   7.389  0.00  0.00     0.210 HD
ENDBRANCH  28  32
ENDBRANCH  27  28
ENDBRANCH  26  27
ENDBRANCH  24  26
ENDBRANCH  19  24
ENDBRANCH   1  18
TORSDOF 10
ENDMDL
