MODEL 1
REMARK VINA RESULT:      -6.1      0.000      0.000
REMARK  5 active torsions:
REMARK  status: ('A' for Active; 'I' for Inactive)
REMARK    1  A    between atoms: C_15  and  C_3 
REMARK    2  A    between atoms: C_14  and  C_13 
REMARK    3  A    between atoms: N_18  and  C_13 
REMARK    4  A    between atoms: C_17  and  C_14 
REMARK    5  A    between atoms: C_17  and  C_16 
ROOT
HETATM    1  C   UNK N   1      28.411  17.794   8.517  0.00  0.00     0.165 C 
HETATM    2  O   UNK N   1      27.505  17.297   9.167  0.00  0.00    -0.292 OA
ENDROOT
BRANCH   1   3
HETATM    3  C   UNK N   1      29.808  17.770   9.134  0.00  0.00     0.085 C 
HETATM    4  C   UNK N   1      30.553  19.096   9.192  0.00  0.00     0.020 C 
BRANCH   3   5
HETATM    5  C   UNK N   1      30.706  16.681   8.542  0.00  0.00     0.284 C 
BRANCH   5   6
HETATM    6  N   UNK N   1      31.643  17.278   7.596  0.00  0.00     0.089 N 
HETATM    7  C   UNK N   1      33.009  16.956   8.006  0.00  0.00     0.272 C 
HETATM    8  C   UNK N   1      34.001  17.642   7.063  0.00  0.00     0.030 C 
HETATM    9  C   UNK N   1      33.752  17.190   5.624  0.00  0.00     0.003 C 
HETATM   10  C   UNK N   1      32.288  17.385   5.245  0.00  0.00     0.030 C 
HETATM   11  C   UNK N   1      31.406  16.691   6.277  0.00  0.00     0.272 C 
ENDBRANCH   5   6
ENDBRANCH   3   5
ENDBRANCH   1   3
BRANCH   1  12
HETATM   12  C   UNK N   1      28.064  18.464   7.218  0.00  0.00     0.010 A 
HETATM   13  C   UNK N   1      27.728  19.823   7.140  0.00  0.00     0.015 A 
HETATM   14  C   UNK N   1      27.350  20.405   5.930  0.00  0.00     0.008 A 
HETATM   15  C   UNK N   1      27.288  19.636   4.767  0.00  0.00    -0.059 A 
HETATM   16  C   UNK N   1      27.632  18.276   4.825  0.00  0.00     0.008 A 
HETATM   17  C   UNK N   1      28.017  17.697   6.040  0.00  0.00     0.015 A 
BRANCH  15  18
HETATM   18  C   UNK N   1      26.842  20.298   3.495  0.00  0.00     0.034 C 
HETATM   19  C   UNK N   1      25.357  20.145   3.202  0.00  0.00     0.010 C 
ENDBRANCH  15  18
ENDBRANCH   1  12
TORSDOF 5
ENDMDL
MODEL 2
REMARK VINA RESULT:      -6.0     10.872     13.301
REMARK  5 active torsions:
REMARK  status: ('A' for Active; 'I' for Inactive)
REMARK    1  A    between atoms: C_15  and  C_3 
REMARK    2  A    between atoms: C_14  and  C_13 
REMARK    3  A    between atoms: N_18  and  C_13 
REMARK    4  A    between atoms: C_17  and  C_14 
REMARK    5  A    between atoms: C_17  and  C_16 
ROOT
HETATM    1  C   UNK N   1      30.594  22.929  -2.668  0.00  0.00     0.165 C 
HETATM    2  O   UNK N   1      30.428  22.979  -1.460  0.00  0.00    -0.292 OA
ENDROOT
BRANCH   1   3
HETATM    3  C   UNK N   1      29.832  23.943  -3.521  0.00  0.00     0.085 C 
HETATM    4  C   UNK N   1      30.371  25.367  -3.535  0.00  0.00     0.020 C 
BRANCH   3   5
HETATM    5  C   UNK N   1      28.326  23.946  -3.246  0.00  0.00     0.284 C 
BRANCH   5   6
HETATM    6  N   UNK N   1      27.650  24.784  -4.231  0.00  0.00     0.089 N 
HETATM    7  C   UNK N   1      26.947  23.929  -5.186  0.00  0.00     0.272 C 
HETATM    8  C   UNK N   1      26.298  24.796  -6.267  0.00  0.00     0.030 C 
HETATM    9  C   UNK N   1      25.331  25.793  -5.627  0.00  0.00     0.003 C 
HETATM   10  C   UNK N   1      26.026  26.582  -4.523  0.00  0.00     0.030 C 
HETATM   11  C   UNK N   1      26.662  25.610  -3.536  0.00  0.00     0.272 C 
ENDBRANCH   5   6
ENDBRANCH   3   5
ENDBRANCH   1   3
BRANCH   1  12
HETATM   12  C   UNK N   1      31.453  21.827  -3.219  0.00  0.00     0.010 A 
HETATM   13  C   UNK N   1      32.735  21.555  -2.723  0.00  0.00     0.015 A 
HETATM   14  C   UNK N   1      33.536  20.565  -3.294  0.00  0.00     0.008 A 
HETATM   15  C   UNK N   1      33.073  19.827  -4.384  0.00  0.00    -0.059 A 
HETATM   16  C   UNK N   1      31.787  20.078  -4.886  0.00  0.00     0.008 A 
HETATM   17  C   UNK N   1      30.984  21.068  -4.307  0.00  0.00     0.015 A 
BRANCH  15  18
HETATM   18  C   UNK N   1      33.984  18.796  -4.987  0.00  0.00     0.034 C 
HETATM   19  C   UNK N   1      34.450  17.729  -4.007  0.00  0.00     0.010 C 
ENDBRANCH  15  18
ENDBRANCH   1  12
TORSDOF 5
ENDMDL
MODEL 3
REMARK VINA RESULT:      -6.0     10.331     13.751
REMARK  5 active torsions:
REMARK  status: ('A' for Active; 'I' for Inactive)
REMARK    1  A    between atoms: C_15  and  C_3 
REMARK    2  A    between atoms: C_14  and  C_13 
REMARK    3  A    between atoms: N_18  and  C_13 
REMARK    4  A    between atoms: C_17  and  C_14 
REMARK    5  A    between atoms: C_17  and  C_16 
ROOT
HETATM    1  C   UNK N   1      35.233  13.117  15.858  0.00  0.00     0.165 C 
HETATM    2  O   UNK N   1      34.111  13.172  15.380  0.00  0.00    -0.292 OA
ENDROOT
BRANCH   1   3
HETATM    3  C   UNK N   1      36.373  13.717  15.037  0.00  0.00     0.085 C 
HETATM    4  C   UNK N   1      37.114  14.895  15.654  0.00  0.00     0.020 C 
BRANCH   3   5
HETATM    5  C   UNK N   1      35.970  14.038  13.596  0.00  0.00     0.284 C 
BRANCH   5   6
HETATM    6  N   UNK N   1      36.909  13.411  12.672  0.00  0.00     0.089 N 
HETATM    7  C   UNK N   1      36.650  11.973  12.628  0.00  0.00     0.272 C 
HETATM    8  C   UNK N   1      37.679  11.296  11.720  0.00  0.00     0.030 C 
HETATM    9  C   UNK N   1      37.614  11.896  10.316  0.00  0.00     0.003 C 
HETATM   10  C   UNK N   1      37.732  13.416  10.375  0.00  0.00     0.030 C 
HETATM   11  C   UNK N   1      36.683  13.963  11.337  0.00  0.00     0.272 C 
ENDBRANCH   5   6
ENDBRANCH   3   5
ENDBRANCH   1   3
BRANCH   1  12
HETATM   12  C   UNK N   1      35.411  12.388  17.159  0.00  0.00     0.010 A 
HETATM   13  C   UNK N   1      35.166  12.993  18.399  0.00  0.00     0.015 A 
HETATM   14  C   UNK N   1      35.399  12.313  19.595  0.00  0.00     0.008 A 
HETATM   15  C   UNK N   1      35.894  11.008  19.578  0.00  0.00    -0.059 A 
HETATM   16  C   UNK N   1      36.134  10.382  18.345  0.00  0.00     0.008 A 
HETATM   17  C   UNK N   1      35.894  11.066  17.147  0.00  0.00     0.015 A 
BRANCH  15  18
HETATM   18  C   UNK N   1      36.162  10.328  20.890  0.00  0.00     0.034 C 
HETATM   19  C   UNK N   1      37.624  10.342  21.310  0.00  0.00     0.010 C 
ENDBRANCH  15  18
ENDBRANCH   1  12
TORSDOF 5
ENDMDL
MODEL 4
REMARK VINA RESULT:      -5.8     10.837     12.954
REMARK  5 active torsions:
REMARK  status: ('A' for Active; 'I' for Inactive)
REMARK    1  A    between atoms: C_15  and  C_3 
REMARK    2  A    between atoms: C_14  and  C_13 
REMARK    3  A    between atoms: N_18  and  C_13 
REMARK    4  A    between atoms: C_17  and  C_14 
REMARK    5  A    between atoms: C_17  and  C_16 
ROOT
HETATM    1  C   UNK N   1      30.082  23.011  -2.637  0.00  0.00     0.165 C 
HETATM    2  O   UNK N   1      30.431  23.107  -1.471  0.00  0.00    -0.292 OA
ENDROOT
BRANCH   1   3
HETATM    3  C   UNK N   1      30.744  21.920  -3.478  0.00  0.00     0.085 C 
HETATM    4  C   UNK N   1      32.068  21.370  -2.964  0.00  0.00     0.020 C 
BRANCH   3   5
HETATM    5  C   UNK N   1      30.861  22.292  -4.958  0.00  0.00     0.284 C 
BRANCH   5   6
HETATM    6  N   UNK N   1      29.810  21.623  -5.717  0.00  0.00     0.089 N 
HETATM    7  C   UNK N   1      29.074  22.618  -6.495  0.00  0.00     0.272 C 
HETATM    8  C   UNK N   1      27.920  21.937  -7.235  0.00  0.00     0.030 C 
HETATM    9  C   UNK N   1      28.461  20.835  -8.146  0.00  0.00     0.003 C 
HETATM   10  C   UNK N   1      29.355  19.880  -7.363  0.00  0.00     0.030 C 
HETATM   11  C   UNK N   1      30.435  20.681  -6.644  0.00  0.00     0.272 C 
ENDBRANCH   5   6
ENDBRANCH   3   5
ENDBRANCH   1   3
BRANCH   1  12
HETATM   12  C   UNK N   1      29.107  24.022  -3.169  0.00  0.00     0.010 A 
HETATM   13  C   UNK N   1      27.722  23.804  -3.167  0.00  0.00     0.015 A 
HETATM   14  C   UNK N   1      26.843  24.733  -3.723  0.00  0.00     0.008 A 
HETATM   15  C   UNK N   1      27.331  25.904  -4.304  0.00  0.00    -0.059 A 
HETATM   16  C   UNK N   1      28.714  26.144  -4.305  0.00  0.00     0.008 A 
HETATM   17  C   UNK N   1      29.592  25.212  -3.741  0.00  0.00     0.015 A 
BRANCH  15  18
HETATM   18  C   UNK N   1      26.349  26.858  -4.921  0.00  0.00     0.034 C 
HETATM   19  C   UNK N   1      25.225  26.183  -5.691  0.00  0.00     0.010 C 
ENDBRANCH  15  18
ENDBRANCH   1  12
TORSDOF 5
ENDMDL
MODEL 5
REMARK VINA RESULT:      -5.8     11.206     14.381
REMARK  5 active torsions:
REMARK  status: ('A' for Active; 'I' for Inactive)
REMARK    1  A    between atoms: C_15  and  C_3 
REMARK    2  A    between atoms: C_14  and  C_13 
REMARK    3  A    between atoms: N_18  and  C_13 
REMARK    4  A    between atoms: C_17  and  C_14 
REMARK    5  A    between atoms: C_17  and  C_16 
ROOT
HETATM    1  C   UNK N   1      29.459  23.964  -4.727  0.00  0.00     0.165 C 
HETATM    2  O   UNK N   1      30.139  24.910  -5.094  0.00  0.00    -0.292 OA
ENDROOT
BRANCH   1   3
HETATM    3  C   UNK N   1      28.760  24.089  -3.374  0.00  0.00     0.085 C 
HETATM    4  C   UNK N   1      29.167  23.092  -2.299  0.00  0.00     0.020 C 
BRANCH   3   5
HETATM    5  C   UNK N   1      27.235  24.153  -3.491  0.00  0.00     0.284 C 
BRANCH   5   6
HETATM    6  N   UNK N   1      26.854  25.268  -4.352  0.00  0.00     0.089 N 
HETATM    7  C   UNK N   1      25.790  24.834  -5.256  0.00  0.00     0.272 C 
HETATM    8  C   UNK N   1      25.437  25.974  -6.214  0.00  0.00     0.030 C 
HETATM    9  C   UNK N   1      24.999  27.206  -5.422  0.00  0.00     0.003 C 
HETATM   10  C   UNK N   1      26.044  27.569  -4.372  0.00  0.00     0.030 C 
HETATM   11  C   UNK N   1      26.335  26.346  -3.511  0.00  0.00     0.272 C 
ENDBRANCH   5   6
ENDBRANCH   3   5
ENDBRANCH   1   3
BRANCH   1  12
HETATM   12  C   UNK N   1      29.440  22.732  -5.586  0.00  0.00     0.010 A 
HETATM   13  C   UNK N   1      28.489  22.536  -6.598  0.00  0.00     0.015 A 
HETATM   14  C   UNK N   1      28.456  21.355  -7.339  0.00  0.00     0.008 A 
HETATM   15  C   UNK N   1      29.371  20.334  -7.079  0.00  0.00    -0.059 A 
HETATM   16  C   UNK N   1      30.337  20.518  -6.077  0.00  0.00     0.008 A 
HETATM   17  C   UNK N   1      30.371  21.708  -5.339  0.00  0.00     0.015 A 
BRANCH  15  18
HETATM   18  C   UNK N   1      29.275  19.067  -7.879  0.00  0.00     0.034 C 
HETATM   19  C   UNK N   1      30.171  19.040  -9.109  0.00  0.00     0.010 C 
ENDBRANCH  15  18
ENDBRANCH   1  12
TORSDOF 5
ENDMDL
MODEL 6
REMARK VINA RESULT:      -5.8     11.462     14.141
REMARK  5 active torsions:
REMARK  status: ('A' for Active; 'I' for Inactive)
REMARK    1  A    between atoms: C_15  and  C_3 
REMARK    2  A    between atoms: C_14  and  C_13 
REMARK    3  A    between atoms: N_18  and  C_13 
REMARK    4  A    between atoms: C_17  and  C_14 
REMARK    5  A    between atoms: C_17  and  C_16 
ROOT
HETATM    1  C   UNK N   1      26.194  25.288  -5.854  0.00  0.00     0.165 C 
HETATM    2  O   UNK N   1      25.366  25.002  -6.705  0.00  0.00    -0.292 OA
ENDROOT
BRANCH   1   3
HETATM    3  C   UNK N   1      26.903  24.132  -5.152  0.00  0.00     0.085 C 
HETATM    4  C   UNK N   1      26.636  23.968  -3.663  0.00  0.00     0.020 C 
BRANCH   3   5
HETATM    5  C   UNK N   1      28.409  24.095  -5.430  0.00  0.00     0.284 C 
BRANCH   5   6
HETATM    6  N   UNK N   1      29.068  23.243  -4.445  0.00  0.00     0.089 N 
HETATM    7  C   UNK N   1      29.756  22.155  -5.138  0.00  0.00     0.272 C 
HETATM    8  C   UNK N   1      30.387  21.213  -4.109  0.00  0.00     0.030 C 
HETATM    9  C   UNK N   1      31.363  21.986  -3.221  0.00  0.00     0.003 C 
HETATM   10  C   UNK N   1      30.685  23.212  -2.618  0.00  0.00     0.030 C 
HETATM   11  C   UNK N   1      30.066  24.043  -3.736  0.00  0.00     0.272 C 
ENDBRANCH   5   6
ENDBRANCH   3   5
ENDBRANCH   1   3
BRANCH   1  12
HETATM   12  C   UNK N   1      26.377  26.738  -5.507  0.00  0.00     0.010 A 
HETATM   13  C   UNK N   1      27.259  27.572  -6.207  0.00  0.00     0.015 A 
HETATM   14  C   UNK N   1      27.457  28.899  -5.824  0.00  0.00     0.008 A 
HETATM   15  C   UNK N   1      26.779  29.422  -4.721  0.00  0.00    -0.059 A 
HETATM   16  C   UNK N   1      25.883  28.604  -4.016  0.00  0.00     0.008 A 
HETATM   17  C   UNK N   1      25.684  27.274  -4.407  0.00  0.00     0.015 A 
BRANCH  15  18
HETATM   18  C   UNK N   1      27.050  30.845  -4.326  0.00  0.00     0.034 C 
HETATM   19  C   UNK N   1      27.198  31.057  -2.827  0.00  0.00     0.010 C 
ENDBRANCH  15  18
ENDBRANCH   1  12
TORSDOF 5
ENDMDL
MODEL 7
REMARK VINA RESULT:      -5.7      3.298      7.961
REMARK  5 active torsions:
REMARK  status: ('A' for Active; 'I' for Inactive)
REMARK    1  A    between atoms: C_15  and  C_3 
REMARK    2  A    between atoms: C_14  and  C_13 
REMARK    3  A    between atoms: N_18  and  C_13 
REMARK    4  A    between atoms: C_17  and  C_14 
REMARK    5  A    between atoms: C_17  and  C_16 
ROOT
HETATM    1  C   UNK N   1      34.202  17.115   7.295  0.00  0.00     0.165 C 
HETATM    2  O   UNK N   1      34.555  18.280   7.194  0.00  0.00    -0.292 OA
ENDROOT
BRANCH   1   3
HETATM    3  C   UNK N   1      33.178  16.605   6.282  0.00  0.00     0.085 C 
HETATM    4  C   UNK N   1      32.856  17.524   5.112  0.00  0.00     0.020 C 
BRANCH   3   5
HETATM    5  C   UNK N   1      31.888  16.103   6.935  0.00  0.00     0.284 C 
BRANCH   5   6
HETATM    6  N   UNK N   1      31.036  17.239   7.275  0.00  0.00     0.089 N 
HETATM    7  C   UNK N   1      29.671  16.964   6.829  0.00  0.00     0.272 C 
HETATM    8  C   UNK N   1      28.786  18.180   7.112  0.00  0.00     0.030 C 
HETATM    9  C   UNK N   1      28.808  18.507   8.605  0.00  0.00     0.003 C 
HETATM   10  C   UNK N   1      30.242  18.644   9.105  0.00  0.00     0.030 C 
HETATM   11  C   UNK N   1      31.025  17.391   8.729  0.00  0.00     0.272 C 
ENDBRANCH   5   6
ENDBRANCH   3   5
ENDBRANCH   1   3
BRANCH   1  12
HETATM   12  C   UNK N   1      34.731  16.314   8.450  0.00  0.00     0.010 A 
HETATM   13  C   UNK N   1      34.815  16.835   9.749  0.00  0.00     0.015 A 
HETATM   14  C   UNK N   1      35.367  16.091  10.791  0.00  0.00     0.008 A 
HETATM   15  C   UNK N   1      35.859  14.806  10.557  0.00  0.00    -0.059 A 
HETATM   16  C   UNK N   1      35.772  14.264   9.265  0.00  0.00     0.008 A 
HETATM   17  C   UNK N   1      35.211  15.012   8.222  0.00  0.00     0.015 A 
BRANCH  15  18
HETATM   18  C   UNK N   1      36.475  14.056  11.702  0.00  0.00     0.034 C 
HETATM   19  C   UNK N   1      36.085  14.585  13.074  0.00  0.00     0.010 C 
ENDBRANCH  15  18
ENDBRANCH   1  12
TORSDOF 5
ENDMDL
MODEL 8
REMARK VINA RESULT:      -5.7      9.071     12.609
REMARK  5 active torsions:
REMARK  status: ('A' for Active; 'I' for Inactive)
REMARK    1  A    between atoms: C_15  and  C_3 
REMARK    2  A    between atoms: C_14  and  C_13 
REMARK    3  A    between atoms: N_18  and  C_13 
REMARK    4  A    between atoms: C_17  and  C_14 
REMARK    5  A    between atoms: C_17  and  C_16 
ROOT
HETATM    1  C   UNK N   1      35.993  13.443  14.951  0.00  0.00     0.165 C 
HETATM    2  O   UNK N   1      36.796  14.361  14.898  0.00  0.00    -0.292 OA
ENDROOT
BRANCH   1   3
HETATM    3  C   UNK N   1      35.154  13.174  13.702  0.00  0.00     0.085 C 
HETATM    4  C   UNK N   1      34.486  11.810  13.607  0.00  0.00     0.020 C 
BRANCH   3   5
HETATM    5  C   UNK N   1      35.895  13.496  12.402  0.00  0.00     0.284 C 
BRANCH   5   6
HETATM    6  N   UNK N   1      35.165  14.520  11.662  0.00  0.00     0.089 N 
HETATM    7  C   UNK N   1      36.083  15.601  11.308  0.00  0.00     0.272 C 
HETATM    8  C   UNK N   1      35.310  16.715  10.598  0.00  0.00     0.030 C 
HETATM    9  C   UNK N   1      34.624  16.163   9.348  0.00  0.00     0.003 C 
HETATM   10  C   UNK N   1      33.784  14.937   9.693  0.00  0.00     0.030 C 
HETATM   11  C   UNK N   1      34.655  13.924  10.427  0.00  0.00     0.272 C 
ENDBRANCH   5   6
ENDBRANCH   3   5
ENDBRANCH   1   3
BRANCH   1  12
HETATM   12  C   UNK N   1      35.834  12.719  16.257  0.00  0.00     0.010 A 
HETATM   13  C   UNK N   1      36.167  11.366  16.412  0.00  0.00     0.015 A 
HETATM   14  C   UNK N   1      35.951  10.702  17.619  0.00  0.00     0.008 A 
HETATM   15  C   UNK N   1      35.385  11.376  18.702  0.00  0.00    -0.059 A 
HETATM   16  C   UNK N   1      35.056  12.734  18.569  0.00  0.00     0.008 A 
HETATM   17  C   UNK N   1      35.280  13.398  17.357  0.00  0.00     0.015 A 
BRANCH  15  18
HETATM   18  C   UNK N   1      35.139  10.611  19.971  0.00  0.00     0.034 C 
HETATM   19  C   UNK N   1      34.115   9.494  19.835  0.00  0.00     0.010 C 
ENDBRANCH  15  18
ENDBRANCH   1  12
TORSDOF 5
ENDMDL
MODEL 9
REMARK VINA RESULT:      -5.7      3.743      5.642
REMARK  5 active torsions:
REMARK  status: ('A' for Active; 'I' for Inactive)
REMARK    1  A    between atoms: C_15  and  C_3 
REMARK    2  A    between atoms: C_14  and  C_13 
REMARK    3  A    between atoms: N_18  and  C_13 
REMARK    4  A    between atoms: C_17  and  C_14 
REMARK    5  A    between atoms: C_17  and  C_16 
ROOT
HETATM    1  C   UNK N   1      33.907  17.035   7.285  0.00  0.00     0.165 C 
HETATM    2  O   UNK N   1      34.555  17.782   6.569  0.00  0.00    -0.292 OA
ENDROOT
BRANCH   1   3
HETATM    3  C   UNK N   1      34.654  15.878   7.947  0.00  0.00     0.085 C 
HETATM    4  C   UNK N   1      34.035  14.495   7.806  0.00  0.00     0.020 C 
BRANCH   3   5
HETATM    5  C   UNK N   1      35.012  16.154   9.410  0.00  0.00     0.284 C 
BRANCH   5   6
HETATM    6  N   UNK N   1      35.393  14.908  10.065  0.00  0.00     0.089 N 
HETATM    7  C   UNK N   1      36.847  14.863  10.204  0.00  0.00     0.272 C 
HETATM    8  C   UNK N   1      37.261  13.525  10.822  0.00  0.00     0.030 C 
HETATM    9  C   UNK N   1      36.587  13.346  12.182  0.00  0.00     0.003 C 
HETATM   10  C   UNK N   1      35.079  13.543  12.064  0.00  0.00     0.030 C 
HETATM   11  C   UNK N   1      34.800  14.888  11.402  0.00  0.00     0.272 C 
ENDBRANCH   5   6
ENDBRANCH   3   5
ENDBRANCH   1   3
BRANCH   1  12
HETATM   12  C   UNK N   1      32.425  17.260   7.382  0.00  0.00     0.010 A 
HETATM   13  C   UNK N   1      31.549  16.953   6.331  0.00  0.00     0.015 A 
HETATM   14  C   UNK N   1      30.185  17.230   6.424  0.00  0.00     0.008 A 
HETATM   15  C   UNK N   1      29.664  17.829   7.571  0.00  0.00    -0.059 A 
HETATM   16  C   UNK N   1      30.525  18.132   8.638  0.00  0.00     0.008 A 
HETATM   17  C   UNK N   1      31.892  17.849   8.543  0.00  0.00     0.015 A 
BRANCH  15  18
HETATM   18  C   UNK N   1      28.195  18.139   7.612  0.00  0.00     0.034 C 
HETATM   19  C   UNK N   1      27.763  19.234   6.648  0.00  0.00     0.010 C 
ENDBRANCH  15  18
ENDBRANCH   1  12
TORSDOF 5
ENDMDL
