MODEL 1
REMARK VINA RESULT:      -5.5      0.000      0.000
REMARK  15 active torsions:
REMARK  status: ('A' for Active; 'I' for Inactive)
REMARK    1  A    between atoms: C_5  and  C_3 
REMARK    2  A    between atoms: O_24  and  C_4 
REMARK    3  A    between atoms: C_7  and  C_6 
REMARK    4  A    between atoms: C_8  and  C_7 
REMARK    5  A    between atoms: C_10  and  C_9 
REMARK    6  A    between atoms: C_11  and  C_10 
REMARK    7  A    between atoms: C_13  and  C_12 
REMARK    8  A    between atoms: C_14  and  C_13 
REMARK    9  A    between atoms: C_16  and  C_15 
REMARK   10  A    between atoms: C_17  and  C_16 
REMARK   11  A    between atoms: C_19  and  C_18 
REMARK   12  A    between atoms: C_20  and  C_19 
REMARK   13  A    between atoms: C_21  and  C_20 
REMARK   14  A    between atoms: C_22  and  C_21 
REMARK   15  A    between atoms: O_24  and  C_22 
ROOT
HETATM    1  C   UNK N   1      25.382  26.200  -6.923  0.00  0.00    -0.027 C 
HETATM    2  C   UNK N   1      25.916  25.099  -7.471  0.00  0.00    -0.027 C 
ENDROOT
BRANCH   1   3
HETATM    3  C   UNK N   1      25.095  26.313  -5.455  0.00  0.00     0.053 C 
BRANCH   3   4
HETATM    4  C   UNK N   1      25.325  27.720  -5.017  0.00  0.00    -0.027 C 
HETATM    5  C   UNK N   1      25.961  27.982  -3.879  0.00  0.00    -0.027 C 
BRANCH   5   6
HETATM    6  C   UNK N   1      26.244  29.400  -3.512  0.00  0.00     0.053 C 
BRANCH   6   7
HETATM    7  C   UNK N   1      27.697  29.614  -3.226  0.00  0.00    -0.027 C 
HETATM    8  C   UNK N   1      28.525  30.267  -4.052  0.00  0.00    -0.027 C 
BRANCH   8   9
HETATM    9  C   UNK N   1      28.086  30.880  -5.346  0.00  0.00     0.053 C 
BRANCH   9  10
HETATM   10  C   UNK N   1      29.173  30.696  -6.357  0.00  0.00    -0.027 C 
HETATM   11  C   UNK N   1      29.227  29.661  -7.203  0.00  0.00    -0.031 C 
BRANCH  11  12
HETATM   12  C   UNK N   1      28.218  28.560  -7.204  0.00  0.00     0.022 C 
HETATM   13  C   UNK N   1      28.388  27.726  -8.458  0.00  0.00     0.009 C 
ENDBRANCH  11  12
ENDBRANCH   9  10
ENDBRANCH   8   9
ENDBRANCH   6   7
ENDBRANCH   5   6
ENDBRANCH   3   4
ENDBRANCH   1   3
BRANCH   2  14
HETATM   14  C   UNK N   1      26.201  23.872  -6.664  0.00  0.00     0.053 C 
BRANCH  14  15
HETATM   15  C   UNK N   1      27.648  23.502  -6.770  0.00  0.00    -0.027 C 
HETATM   16  C   UNK N   1      28.530  23.802  -5.815  0.00  0.00    -0.030 C 
BRANCH  16  17
HETATM   17  C   UNK N   1      28.121  24.512  -4.563  0.00  0.00     0.027 C 
BRANCH  17  18
HETATM   18  C   UNK N   1      28.566  23.727  -3.339  0.00  0.00     0.013 C 
BRANCH  18  19
HETATM   19  C   UNK N   1      29.867  22.966  -3.582  0.00  0.00     0.111 C 
BRANCH  19  20
HETATM   20  C   UNK N   1      30.625  22.723  -2.315  0.00  0.00     0.258 C 
HETATM   21  O   UNK N   1      30.168  23.117  -1.252  0.00  0.00    -0.265 OA
BRANCH  20  22
HETATM   22  O   UNK N   1      31.834  22.113  -2.367  0.00  0.00    -0.322 OA
BRANCH  22  23
HETATM   23  C   UNK N   1      32.249  21.399  -3.468  0.00  0.00     0.174 C 
HETATM   24  C   UNK N   1      33.621  20.813  -3.211  0.00  0.00     0.034 C 
ENDBRANCH  22  23
ENDBRANCH  20  22
ENDBRANCH  19  20
ENDBRANCH  18  19
ENDBRANCH  17  18
ENDBRANCH  16  17
ENDBRANCH  14  15
ENDBRANCH   2  14
TORSDOF 15
ENDMDL
MODEL 2
REMARK VINA RESULT:      -5.4      2.018      2.674
REMARK  15 active torsions:
REMARK  status: ('A' for Active; 'I' for Inactive)
REMARK    1  A    between atoms: C_5  and  C_3 
REMARK    2  A    between atoms: O_24  and  C_4 
REMARK    3  A    between atoms: C_7  and  C_6 
REMARK    4  A    between atoms: C_8  and  C_7 
REMARK    5  A    between atoms: C_10  and  C_9 
REMARK    6  A    between atoms: C_11  and  C_10 
REMARK    7  A    between atoms: C_13  and  C_12 
REMARK    8  A    between atoms: C_14  and  C_13 
REMARK    9  A    between atoms: C_16  and  C_15 
REMARK   10  A    between atoms: C_17  and  C_16 
REMARK   11  A    between atoms: C_19  and  C_18 
REMARK   12  A    between atoms: C_20  and  C_19 
REMARK   13  A    between atoms: C_21  and  C_20 
REMARK   14  A    between atoms: C_22  and  C_21 
REMARK   15  A    between atoms: O_24  and  C_22 
ROOT
HETATM    1  C   UNK N   1      25.277  27.440  -5.236  0.00  0.00    -0.027 C 
HETATM    2  C   UNK N   1      25.255  26.216  -5.780  0.00  0.00    -0.027 C 
ENDROOT
BRANCH   1   3
HETATM    3  C   UNK N   1      25.637  27.680  -3.800  0.00  0.00     0.053 C 
BRANCH   3   4
HETATM    4  C   UNK N   1      26.630  28.791  -3.721  0.00  0.00    -0.027 C 
HETATM    5  C   UNK N   1      27.520  28.837  -2.736  0.00  0.00    -0.027 C 
BRANCH   5   6
HETATM    6  C   UNK N   1      28.549  29.918  -2.734  0.00  0.00     0.053 C 
BRANCH   6   7
HETATM    7  C   UNK N   1      29.510  29.760  -1.598  0.00  0.00    -0.027 C 
HETATM    8  C   UNK N   1      30.731  29.225  -1.732  0.00  0.00    -0.027 C 
BRANCH   8   9
HETATM    9  C   UNK N   1      31.284  28.748  -3.039  0.00  0.00     0.053 C 
BRANCH   9  10
HETATM   10  C   UNK N   1      31.010  27.283  -3.169  0.00  0.00    -0.027 C 
HETATM   11  C   UNK N   1      30.585  26.709  -4.300  0.00  0.00    -0.031 C 
BRANCH  11  12
HETATM   12  C   UNK N   1      30.310  27.480  -5.548  0.00  0.00     0.022 C 
HETATM   13  C   UNK N   1      28.910  27.163  -6.035  0.00  0.00     0.009 C 
ENDBRANCH  11  12
ENDBRANCH   9  10
ENDBRANCH   8   9
ENDBRANCH   6   7
ENDBRANCH   5   6
ENDBRANCH   3   4
ENDBRANCH   1   3
BRANCH   2  14
HETATM   14  C   UNK N   1      25.522  24.985  -4.970  0.00  0.00     0.053 C 
BRANCH  14  15
HETATM   15  C   UNK N   1      26.808  24.349  -5.397  0.00  0.00    -0.027 C 
HETATM   16  C   UNK N   1      27.738  23.969  -4.519  0.00  0.00    -0.030 C 
BRANCH  16  17
HETATM   17  C   UNK N   1      27.543  24.139  -3.045  0.00  0.00     0.027 C 
BRANCH  17  18
HETATM   18  C   UNK N   1      28.482  23.221  -2.278  0.00  0.00     0.013 C 
BRANCH  18  19
HETATM   19  C   UNK N   1      29.948  23.486  -2.610  0.00  0.00     0.111 C 
BRANCH  19  20
HETATM   20  C   UNK N   1      30.706  22.222  -2.874  0.00  0.00     0.258 C 
HETATM   21  O   UNK N   1      31.708  21.971  -2.222  0.00  0.00    -0.265 OA
BRANCH  20  22
HETATM   22  O   UNK N   1      30.298  21.396  -3.867  0.00  0.00    -0.322 OA
BRANCH  22  23
HETATM   23  C   UNK N   1      31.187  20.707  -4.660  0.00  0.00     0.174 C 
HETATM   24  C   UNK N   1      30.565  20.439  -6.014  0.00  0.00     0.034 C 
ENDBRANCH  22  23
ENDBRANCH  20  22
ENDBRANCH  19  20
ENDBRANCH  18  19
ENDBRANCH  17  18
ENDBRANCH  16  17
ENDBRANCH  14  15
ENDBRANCH   2  14
TORSDOF 15
ENDMDL
MODEL 3
REMARK VINA RESULT:      -5.4      3.010      6.050
REMARK  15 active torsions:
REMARK  status: ('A' for Active; 'I' for Inactive)
REMARK    1  A    between atoms: C_5  and  C_3 
REMARK    2  A    between atoms: O_24  and  C_4 
REMARK    3  A    between atoms: C_7  and  C_6 
REMARK    4  A    between atoms: C_8  and  C_7 
REMARK    5  A    between atoms: C_10  and  C_9 
REMARK    6  A    between atoms: C_11  and  C_10 
REMARK    7  A    between atoms: C_13  and  C_12 
REMARK    8  A    between atoms: C_14  and  C_13 
REMARK    9  A    between atoms: C_16  and  C_15 
REMARK   10  A    between atoms: C_17  and  C_16 
REMARK   11  A    between atoms: C_19  and  C_18 
REMARK   12  A    between atoms: C_20  and  C_19 
REMARK   13  A    between atoms: C_21  and  C_20 
REMARK   14  A    between atoms: C_22  and  C_21 
REMARK   15  A    between atoms: O_24  and  C_22 
ROOT
HETATM    1  C   UNK N   1      30.357  22.926  -2.639  0.00  0.00    -0.027 C 
HETATM    2  C   UNK N   1      30.899  21.743  -2.959  0.00  0.00    -0.027 C 
ENDROOT
BRANCH   1   3
HETATM    3  C   UNK N   1      30.500  24.141  -3.508  0.00  0.00     0.053 C 
BRANCH   3   4
HETATM    4  C   UNK N   1      29.144  24.652  -3.864  0.00  0.00    -0.027 C 
HETATM    5  C   UNK N   1      28.055  24.129  -3.311  0.00  0.00    -0.027 C 
BRANCH   5   6
HETATM    6  C   UNK N   1      26.722  24.719  -3.629  0.00  0.00     0.053 C 
BRANCH   6   7
HETATM    7  C   UNK N   1      26.150  24.140  -4.885  0.00  0.00    -0.027 C 
HETATM    8  C   UNK N   1      25.513  24.869  -5.811  0.00  0.00    -0.027 C 
BRANCH   8   9
HETATM    9  C   UNK N   1      25.323  26.351  -5.709  0.00  0.00     0.053 C 
BRANCH   9  10
HETATM   10  C   UNK N   1      26.342  27.025  -6.572  0.00  0.00    -0.027 C 
HETATM   11  C   UNK N   1      27.071  28.073  -6.172  0.00  0.00    -0.031 C 
BRANCH  11  12
HETATM   12  C   UNK N   1      26.922  28.700  -4.825  0.00  0.00     0.022 C 
HETATM   13  C   UNK N   1      28.042  28.223  -3.923  0.00  0.00     0.009 C 
ENDBRANCH  11  12
ENDBRANCH   9  10
ENDBRANCH   8   9
ENDBRANCH   6   7
ENDBRANCH   5   6
ENDBRANCH   3   4
ENDBRANCH   1   3
BRANCH   2  14
HETATM   14  C   UNK N   1      31.748  21.564  -4.178  0.00  0.00     0.053 C 
BRANCH  14  15
HETATM   15  C   UNK N   1      31.233  20.433  -5.011  0.00  0.00    -0.027 C 
HETATM   16  C   UNK N   1      30.483  20.633  -6.096  0.00  0.00    -0.030 C 
BRANCH  16  17
HETATM   17  C   UNK N   1      30.125  22.010  -6.561  0.00  0.00     0.027 C 
BRANCH  17  18
HETATM   18  C   UNK N   1      28.615  22.176  -6.612  0.00  0.00     0.013 C 
BRANCH  18  19
HETATM   19  C   UNK N   1      28.170  23.068  -7.769  0.00  0.00     0.111 C 
BRANCH  19  20
HETATM   20  C   UNK N   1      27.567  22.280  -8.890  0.00  0.00     0.258 C 
HETATM   21  O   UNK N   1      28.292  21.776  -9.734  0.00  0.00    -0.265 OA
BRANCH  20  22
HETATM   22  O   UNK N   1      26.219  22.178  -8.982  0.00  0.00    -0.322 OA
BRANCH  22  23
HETATM   23  C   UNK N   1      25.532  21.081  -8.515  0.00  0.00     0.174 C 
HETATM   24  C   UNK N   1      24.764  21.452  -7.264  0.00  0.00     0.034 C 
ENDBRANCH  22  23
ENDBRANCH  20  22
ENDBRANCH  19  20
ENDBRANCH  18  19
ENDBRANCH  17  18
ENDBRANCH  16  17
ENDBRANCH  14  15
ENDBRANCH   2  14
TORSDOF 15
ENDMDL
MODEL 4
REMARK VINA RESULT:      -5.4      3.158      6.464
REMARK  15 active torsions:
REMARK  status: ('A' for Active; 'I' for Inactive)
REMARK    1  A    between atoms: C_5  and  C_3 
REMARK    2  A    between atoms: O_24  and  C_4 
REMARK    3  A    between atoms: C_7  and  C_6 
REMARK    4  A    between atoms: C_8  and  C_7 
REMARK    5  A    between atoms: C_10  and  C_9 
REMARK    6  A    between atoms: C_11  and  C_10 
REMARK    7  A    between atoms: C_13  and  C_12 
REMARK    8  A    between atoms: C_14  and  C_13 
REMARK    9  A    between atoms: C_16  and  C_15 
REMARK   10  A    between atoms: C_17  and  C_16 
REMARK   11  A    between atoms: C_19  and  C_18 
REMARK   12  A    between atoms: C_20  and  C_19 
REMARK   13  A    between atoms: C_21  and  C_20 
REMARK   14  A    between atoms: C_22  and  C_21 
REMARK   15  A    between atoms: O_24  and  C_22 
ROOT
HETATM    1  C   UNK N   1      27.091  29.071  -5.067  0.00  0.00    -0.027 C 
HETATM    2  C   UNK N   1      26.156  28.456  -4.330  0.00  0.00    -0.027 C 
ENDROOT
BRANCH   1   3
HETATM    3  C   UNK N   1      27.628  28.488  -6.340  0.00  0.00     0.053 C 
BRANCH   3   4
HETATM    4  C   UNK N   1      28.866  27.709  -6.039  0.00  0.00    -0.027 C 
HETATM    5  C   UNK N   1      28.887  26.388  -6.179  0.00  0.00    -0.027 C 
BRANCH   5   6
HETATM    6  C   UNK N   1      30.163  25.651  -5.948  0.00  0.00     0.053 C 
BRANCH   6   7
HETATM    7  C   UNK N   1      30.669  25.852  -4.554  0.00  0.00    -0.027 C 
HETATM    8  C   UNK N   1      30.377  25.031  -3.536  0.00  0.00    -0.027 C 
BRANCH   8   9
HETATM    9  C   UNK N   1      29.531  23.804  -3.682  0.00  0.00     0.053 C 
BRANCH   9  10
HETATM   10  C   UNK N   1      30.345  22.612  -3.288  0.00  0.00    -0.027 C 
HETATM   11  C   UNK N   1      30.533  21.552  -4.082  0.00  0.00    -0.031 C 
BRANCH  11  12
HETATM   12  C   UNK N   1      29.922  21.435  -5.440  0.00  0.00     0.022 C 
HETATM   13  C   UNK N   1      30.900  21.951  -6.476  0.00  0.00     0.009 C 
ENDBRANCH  11  12
ENDBRANCH   9  10
ENDBRANCH   8   9
ENDBRANCH   6   7
ENDBRANCH   5   6
ENDBRANCH   3   4
ENDBRANCH   1   3
BRANCH   2  14
HETATM   14  C   UNK N   1      25.627  27.103  -4.690  0.00  0.00     0.053 C 
BRANCH  14  15
HETATM   15  C   UNK N   1      26.212  26.059  -3.792  0.00  0.00    -0.027 C 
HETATM   16  C   UNK N   1      26.270  24.772  -4.142  0.00  0.00    -0.030 C 
BRANCH  16  17
HETATM   17  C   UNK N   1      25.770  24.296  -5.469  0.00  0.00     0.027 C 
BRANCH  17  18
HETATM   18  C   UNK N   1      26.817  23.428  -6.149  0.00  0.00     0.013 C 
BRANCH  18  19
HETATM   19  C   UNK N   1      26.193  22.380  -7.066  0.00  0.00     0.111 C 
BRANCH  19  20
HETATM   20  C   UNK N   1      25.427  22.999  -8.194  0.00  0.00     0.258 C 
HETATM   21  O   UNK N   1      24.238  22.751  -8.325  0.00  0.00    -0.265 OA
BRANCH  20  22
HETATM   22  O   UNK N   1      26.074  23.789  -9.084  0.00  0.00    -0.322 OA
BRANCH  22  23
HETATM   23  C   UNK N   1      25.522  24.953  -9.571  0.00  0.00     0.174 C 
HETATM   24  C   UNK N   1      25.882  26.109  -8.662  0.00  0.00     0.034 C 
ENDBRANCH  22  23
ENDBRANCH  20  22
ENDBRANCH  19  20
ENDBRANCH  18  19
ENDBRANCH  17  18
ENDBRANCH  16  17
ENDBRANCH  14  15
ENDBRANCH   2  14
TORSDOF 15
ENDMDL
MODEL 5
REMARK VINA RESULT:      -5.4      2.002      3.445
REMARK  15 active torsions:
REMARK  status: ('A' for Active; 'I' for Inactive)
REMARK    1  A    between atoms: C_5  and  C_3 
REMARK    2  A    between atoms: O_24  and  C_4 
REMARK    3  A    between atoms: C_7  and  C_6 
REMARK    4  A    between atoms: C_8  and  C_7 
REMARK    5  A    between atoms: C_10  and  C_9 
REMARK    6  A    between atoms: C_11  and  C_10 
REMARK    7  A    between atoms: C_13  and  C_12 
REMARK    8  A    between atoms: C_14  and  C_13 
REMARK    9  A    between atoms: C_16  and  C_15 
REMARK   10  A    between atoms: C_17  and  C_16 
REMARK   11  A    between atoms: C_19  and  C_18 
REMARK   12  A    between atoms: C_20  and  C_19 
REMARK   13  A    between atoms: C_21  and  C_20 
REMARK   14  A    between atoms: C_22  and  C_21 
REMARK   15  A    between atoms: O_24  and  C_22 
ROOT
HETATM    1  C   UNK N   1      27.449  23.292  -6.535  0.00  0.00    -0.027 C 
HETATM    2  C   UNK N   1      28.518  23.505  -5.756  0.00  0.00    -0.027 C 
ENDROOT
BRANCH   1   3
HETATM    3  C   UNK N   1      26.047  23.545  -6.068  0.00  0.00     0.053 C 
BRANCH   3   4
HETATM    4  C   UNK N   1      25.694  24.973  -6.321  0.00  0.00    -0.027 C 
HETATM    5  C   UNK N   1      25.229  25.741  -5.341  0.00  0.00    -0.027 C 
BRANCH   5   6
HETATM    6  C   UNK N   1      24.963  27.184  -5.610  0.00  0.00     0.053 C 
BRANCH   6   7
HETATM    7  C   UNK N   1      25.467  28.052  -4.500  0.00  0.00    -0.027 C 
HETATM    8  C   UNK N   1      26.555  28.828  -4.604  0.00  0.00    -0.027 C 
BRANCH   8   9
HETATM    9  C   UNK N   1      27.377  28.934  -5.851  0.00  0.00     0.053 C 
BRANCH   9  10
HETATM   10  C   UNK N   1      28.392  27.835  -5.850  0.00  0.00    -0.027 C 
HETATM   11  C   UNK N   1      28.645  27.062  -6.912  0.00  0.00    -0.031 C 
BRANCH  11  12
HETATM   12  C   UNK N   1      27.913  27.198  -8.207  0.00  0.00     0.022 C 
HETATM   13  C   UNK N   1      28.118  25.943  -9.033  0.00  0.00     0.009 C 
ENDBRANCH  11  12
ENDBRANCH   9  10
ENDBRANCH   8   9
ENDBRANCH   6   7
ENDBRANCH   5   6
ENDBRANCH   3   4
ENDBRANCH   1   3
BRANCH   2  14
HETATM   14  C   UNK N   1      28.385  23.948  -4.333  0.00  0.00     0.053 C 
BRANCH  14  15
HETATM   15  C   UNK N   1      29.589  24.734  -3.916  0.00  0.00    -0.027 C 
HETATM   16  C   UNK N   1      30.475  24.264  -3.036  0.00  0.00    -0.030 C 
BRANCH  16  17
HETATM   17  C   UNK N   1      30.329  22.907  -2.423  0.00  0.00     0.027 C 
BRANCH  17  18
HETATM   18  C   UNK N   1      31.303  21.929  -3.062  0.00  0.00     0.013 C 
BRANCH  18  19
HETATM   19  C   UNK N   1      30.595  20.901  -3.942  0.00  0.00     0.111 C 
BRANCH  19  20
HETATM   20  C   UNK N   1      31.536  20.227  -4.891  0.00  0.00     0.258 C 
HETATM   21  O   UNK N   1      32.719  20.126  -4.600  0.00  0.00    -0.265 OA
BRANCH  20  22
HETATM   22  O   UNK N   1      31.074  19.781  -6.084  0.00  0.00    -0.322 OA
BRANCH  22  23
HETATM   23  C   UNK N   1      29.982  20.343  -6.705  0.00  0.00     0.174 C 
HETATM   24  C   UNK N   1      29.357  19.339  -7.651  0.00  0.00     0.034 C 
ENDBRANCH  22  23
ENDBRANCH  20  22
ENDBRANCH  19  20
ENDBRANCH  18  19
ENDBRANCH  17  18
ENDBRANCH  16  17
ENDBRANCH  14  15
ENDBRANCH   2  14
TORSDOF 15
ENDMDL
MODEL 6
REMARK VINA RESULT:      -5.3      1.928      3.392
REMARK  15 active torsions:
REMARK  status: ('A' for Active; 'I' for Inactive)
REMARK    1  A    between atoms: C_5  and  C_3 
REMARK    2  A    between atoms: O_24  and  C_4 
REMARK    3  A    between atoms: C_7  and  C_6 
REMARK    4  A    between atoms: C_8  and  C_7 
REMARK    5  A    between atoms: C_10  and  C_9 
REMARK    6  A    between atoms: C_11  and  C_10 
REMARK    7  A    between atoms: C_13  and  C_12 
REMARK    8  A    between atoms: C_14  and  C_13 
REMARK    9  A    between atoms: C_16  and  C_15 
REMARK   10  A    between atoms: C_17  and  C_16 
REMARK   11  A    between atoms: C_19  and  C_18 
REMARK   12  A    between atoms: C_20  and  C_19 
REMARK   13  A    between atoms: C_21  and  C_20 
REMARK   14  A    between atoms: C_22  and  C_21 
REMARK   15  A    between atoms: O_24  and  C_22 
ROOT
HETATM    1  C   UNK N   1      26.277  22.070  -8.007  0.00  0.00    -0.027 C 
HETATM    2  C   UNK N   1      27.008  20.954  -8.132  0.00  0.00    -0.027 C 
ENDROOT
BRANCH   1   3
HETATM    3  C   UNK N   1      26.861  23.441  -8.175  0.00  0.00     0.053 C 
BRANCH   3   4
HETATM    4  C   UNK N   1      26.286  24.350  -7.140  0.00  0.00    -0.027 C 
HETATM    5  C   UNK N   1      25.890  23.874  -5.964  0.00  0.00    -0.027 C 
BRANCH   5   6
HETATM    6  C   UNK N   1      25.394  24.823  -4.925  0.00  0.00     0.053 C 
BRANCH   6   7
HETATM    7  C   UNK N   1      26.472  25.184  -3.951  0.00  0.00    -0.027 C 
HETATM    8  C   UNK N   1      26.627  26.413  -3.442  0.00  0.00    -0.027 C 
BRANCH   8   9
HETATM    9  C   UNK N   1      25.725  27.562  -3.771  0.00  0.00     0.053 C 
BRANCH   9  10
HETATM   10  C   UNK N   1      26.568  28.755  -4.097  0.00  0.00    -0.027 C 
HETATM   11  C   UNK N   1      27.139  28.951  -5.290  0.00  0.00    -0.031 C 
BRANCH  11  12
HETATM   12  C   UNK N   1      27.019  27.980  -6.418  0.00  0.00     0.022 C 
HETATM   13  C   UNK N   1      28.373  27.352  -6.685  0.00  0.00     0.009 C 
ENDBRANCH  11  12
ENDBRANCH   9  10
ENDBRANCH   8   9
ENDBRANCH   6   7
ENDBRANCH   5   6
ENDBRANCH   3   4
ENDBRANCH   1   3
BRANCH   2  14
HETATM   14  C   UNK N   1      28.483  20.997  -8.381  0.00  0.00     0.053 C 
BRANCH  14  15
HETATM   15  C   UNK N   1      29.219  20.301  -7.279  0.00  0.00    -0.027 C 
HETATM   16  C   UNK N   1      29.846  20.970  -6.310  0.00  0.00    -0.030 C 
BRANCH  16  17
HETATM   17  C   UNK N   1      29.834  22.466  -6.253  0.00  0.00     0.027 C 
BRANCH  17  18
HETATM   18  C   UNK N   1      29.339  22.940  -4.896  0.00  0.00     0.013 C 
BRANCH  18  19
HETATM   19  C   UNK N   1      29.848  22.062  -3.756  0.00  0.00     0.111 C 
BRANCH  19  20
HETATM   20  C   UNK N   1      30.973  22.705  -3.006  0.00  0.00     0.258 C 
HETATM   21  O   UNK N   1      30.863  22.907  -1.806  0.00  0.00    -0.265 OA
BRANCH  20  22
HETATM   22  O   UNK N   1      32.081  23.102  -3.678  0.00  0.00    -0.322 OA
BRANCH  22  23
HETATM   23  C   UNK N   1      32.928  22.207  -4.292  0.00  0.00     0.174 C 
HETATM   24  C   UNK N   1      33.874  22.948  -5.214  0.00  0.00     0.034 C 
ENDBRANCH  22  23
ENDBRANCH  20  22
ENDBRANCH  19  20
ENDBRANCH  18  19
ENDBRANCH  17  18
ENDBRANCH  16  17
ENDBRANCH  14  15
ENDBRANCH   2  14
TORSDOF 15
ENDMDL
MODEL 7
REMARK VINA RESULT:      -5.3      1.707      3.061
REMARK  15 active torsions:
REMARK  status: ('A' for Active; 'I' for Inactive)
REMARK    1  A    between atoms: C_5  and  C_3 
REMARK    2  A    between atoms: O_24  and  C_4 
REMARK    3  A    between atoms: C_7  and  C_6 
REMARK    4  A    between atoms: C_8  and  C_7 
REMARK    5  A    between atoms: C_10  and  C_9 
REMARK    6  A    between atoms: C_11  and  C_10 
REMARK    7  A    between atoms: C_13  and  C_12 
REMARK    8  A    between atoms: C_14  and  C_13 
REMARK    9  A    between atoms: C_16  and  C_15 
REMARK   10  A    between atoms: C_17  and  C_16 
REMARK   11  A    between atoms: C_19  and  C_18 
REMARK   12  A    between atoms: C_20  and  C_19 
REMARK   13  A    between atoms: C_21  and  C_20 
REMARK   14  A    between atoms: C_22  and  C_21 
REMARK   15  A    between atoms: O_24  and  C_22 
ROOT
HETATM    1  C   UNK N   1      26.397  24.033  -7.042  0.00  0.00    -0.027 C 
HETATM    2  C   UNK N   1      27.544  23.456  -7.423  0.00  0.00    -0.027 C 
ENDROOT
BRANCH   1   3
HETATM    3  C   UNK N   1      25.805  23.831  -5.679  0.00  0.00     0.053 C 
BRANCH   3   4
HETATM    4  C   UNK N   1      25.808  25.131  -4.946  0.00  0.00    -0.027 C 
HETATM    5  C   UNK N   1      26.572  25.303  -3.872  0.00  0.00    -0.027 C 
BRANCH   5   6
HETATM    6  C   UNK N   1      26.610  26.641  -3.212  0.00  0.00     0.053 C 
BRANCH   6   7
HETATM    7  C   UNK N   1      25.578  27.564  -3.779  0.00  0.00    -0.027 C 
HETATM    8  C   UNK N   1      25.850  28.506  -4.692  0.00  0.00    -0.027 C 
BRANCH   8   9
HETATM    9  C   UNK N   1      27.214  28.727  -5.268  0.00  0.00     0.053 C 
BRANCH   9  10
HETATM   10  C   UNK N   1      27.293  28.031  -6.591  0.00  0.00    -0.027 C 
HETATM   11  C   UNK N   1      28.368  27.349  -7.002  0.00  0.00    -0.031 C 
BRANCH  11  12
HETATM   12  C   UNK N   1      29.618  27.237  -6.192  0.00  0.00     0.022 C 
HETATM   13  C   UNK N   1      29.687  25.859  -5.566  0.00  0.00     0.009 C 
ENDBRANCH  11  12
ENDBRANCH   9  10
ENDBRANCH   8   9
ENDBRANCH   6   7
ENDBRANCH   5   6
ENDBRANCH   3   4
ENDBRANCH   1   3
BRANCH   2  14
HETATM   14  C   UNK N   1      28.288  22.509  -6.534  0.00  0.00     0.053 C 
BRANCH  14  15
HETATM   15  C   UNK N   1      28.619  21.250  -7.273  0.00  0.00    -0.027 C 
HETATM   16  C   UNK N   1      29.821  20.676  -7.197  0.00  0.00    -0.030 C 
BRANCH  16  17
HETATM   17  C   UNK N   1      30.912  21.248  -6.346  0.00  0.00     0.027 C 
BRANCH  17  18
HETATM   18  C   UNK N   1      31.031  20.470  -5.045  0.00  0.00     0.013 C 
BRANCH  18  19
HETATM   19  C   UNK N   1      32.342  20.757  -4.317  0.00  0.00     0.111 C 
BRANCH  19  20
HETATM   20  C   UNK N   1      32.173  21.769  -3.227  0.00  0.00     0.258 C 
HETATM   21  O   UNK N   1      32.499  21.486  -2.084  0.00  0.00    -0.265 OA
BRANCH  20  22
HETATM   22  O   UNK N   1      31.614  22.970  -3.513  0.00  0.00    -0.322 OA
BRANCH  22  23
HETATM   23  C   UNK N   1      30.673  23.555  -2.696  0.00  0.00     0.174 C 
HETATM   24  C   UNK N   1      29.310  22.956  -2.975  0.00  0.00     0.034 C 
ENDBRANCH  22  23
ENDBRANCH  20  22
ENDBRANCH  19  20
ENDBRANCH  18  19
ENDBRANCH  17  18
ENDBRANCH  16  17
ENDBRANCH  14  15
ENDBRANCH   2  14
TORSDOF 15
ENDMDL
MODEL 8
REMARK VINA RESULT:      -5.2      1.156      2.406
REMARK  15 active torsions:
REMARK  status: ('A' for Active; 'I' for Inactive)
REMARK    1  A    between atoms: C_5  and  C_3 
REMARK    2  A    between atoms: O_24  and  C_4 
REMARK    3  A    between atoms: C_7  and  C_6 
REMARK    4  A    between atoms: C_8  and  C_7 
REMARK    5  A    between atoms: C_10  and  C_9 
REMARK    6  A    between atoms: C_11  and  C_10 
REMARK    7  A    between atoms: C_13  and  C_12 
REMARK    8  A    between atoms: C_14  and  C_13 
REMARK    9  A    between atoms: C_16  and  C_15 
REMARK   10  A    between atoms: C_17  and  C_16 
REMARK   11  A    between atoms: C_19  and  C_18 
REMARK   12  A    between atoms: C_20  and  C_19 
REMARK   13  A    between atoms: C_21  and  C_20 
REMARK   14  A    between atoms: C_22  and  C_21 
REMARK   15  A    between atoms: O_24  and  C_22 
ROOT
HETATM    1  C   UNK N   1      25.977  25.566  -8.537  0.00  0.00    -0.027 C 
HETATM    2  C   UNK N   1      25.694  24.288  -8.253  0.00  0.00    -0.027 C 
ENDROOT
BRANCH   1   3
HETATM    3  C   UNK N   1      27.206  26.255  -8.022  0.00  0.00     0.053 C 
BRANCH   3   4
HETATM    4  C   UNK N   1      26.812  27.245  -6.977  0.00  0.00    -0.027 C 
HETATM    5  C   UNK N   1      25.749  27.034  -6.209  0.00  0.00    -0.027 C 
BRANCH   5   6
HETATM    6  C   UNK N   1      25.432  28.005  -5.122  0.00  0.00     0.053 C 
BRANCH   6   7
HETATM    7  C   UNK N   1      25.570  27.381  -3.769  0.00  0.00    -0.027 C 
HETATM    8  C   UNK N   1      26.713  27.377  -3.070  0.00  0.00    -0.027 C 
BRANCH   8   9
HETATM    9  C   UNK N   1      27.977  28.020  -3.551  0.00  0.00     0.053 C 
BRANCH   9  10
HETATM   10  C   UNK N   1      28.006  29.438  -3.075  0.00  0.00    -0.027 C 
HETATM   11  C   UNK N   1      28.042  30.492  -3.897  0.00  0.00    -0.031 C 
BRANCH  11  12
HETATM   12  C   UNK N   1      28.088  30.362  -5.384  0.00  0.00     0.022 C 
HETATM   13  C   UNK N   1      29.492  30.665  -5.870  0.00  0.00     0.009 C 
ENDBRANCH  11  12
ENDBRANCH   9  10
ENDBRANCH   8   9
ENDBRANCH   6   7
ENDBRANCH   5   6
ENDBRANCH   3   4
ENDBRANCH   1   3
BRANCH   2  14
HETATM   14  C   UNK N   1      26.552  23.471  -7.339  0.00  0.00     0.053 C 
BRANCH  14  15
HETATM   15  C   UNK N   1      25.930  23.381  -5.980  0.00  0.00    -0.027 C 
HETATM   16  C   UNK N   1      26.569  23.777  -4.878  0.00  0.00    -0.030 C 
BRANCH  16  17
HETATM   17  C   UNK N   1      27.948  24.357  -4.935  0.00  0.00     0.027 C 
BRANCH  17  18
HETATM   18  C   UNK N   1      28.983  23.300  -4.583  0.00  0.00     0.013 C 
BRANCH  18  19
HETATM   19  C   UNK N   1      30.001  23.806  -3.565  0.00  0.00     0.111 C 
BRANCH  19  20
HETATM   20  C   UNK N   1      30.365  22.757  -2.561  0.00  0.00     0.258 C 
HETATM   21  O   UNK N   1      30.433  23.051  -1.376  0.00  0.00    -0.265 OA
BRANCH  20  22
HETATM   22  O   UNK N   1      30.664  21.505  -2.983  0.00  0.00    -0.322 OA
BRANCH  22  23
HETATM   23  C   UNK N   1      31.846  21.209  -3.625  0.00  0.00     0.174 C 
HETATM   24  C   UNK N   1      31.559  20.435  -4.894  0.00  0.00     0.034 C 
ENDBRANCH  22  23
ENDBRANCH  20  22
ENDBRANCH  19  20
ENDBRANCH  18  19
ENDBRANCH  17  18
ENDBRANCH  16  17
ENDBRANCH  14  15
ENDBRANCH   2  14
TORSDOF 15
ENDMDL
MODEL 9
REMARK VINA RESULT:      -5.2      3.183      6.743
REMARK  15 active torsions:
REMARK  status: ('A' for Active; 'I' for Inactive)
REMARK    1  A    between atoms: C_5  and  C_3 
REMARK    2  A    between atoms: O_24  and  C_4 
REMARK    3  A    between atoms: C_7  and  C_6 
REMARK    4  A    between atoms: C_8  and  C_7 
REMARK    5  A    between atoms: C_10  and  C_9 
REMARK    6  A    between atoms: C_11  and  C_10 
REMARK    7  A    between atoms: C_13  and  C_12 
REMARK    8  A    between atoms: C_14  and  C_13 
REMARK    9  A    between atoms: C_16  and  C_15 
REMARK   10  A    between atoms: C_17  and  C_16 
REMARK   11  A    between atoms: C_19  and  C_18 
REMARK   12  A    between atoms: C_20  and  C_19 
REMARK   13  A    between atoms: C_21  and  C_20 
REMARK   14  A    between atoms: C_22  and  C_21 
REMARK   15  A    between atoms: O_24  and  C_22 
ROOT
HETATM    1  C   UNK N   1      32.309  22.102  -4.108  0.00  0.00    -0.027 C 
HETATM    2  C   UNK N   1      32.310  21.330  -5.202  0.00  0.00    -0.027 C 
ENDROOT
BRANCH   1   3
HETATM    3  C   UNK N   1      31.411  21.841  -2.936  0.00  0.00     0.053 C 
BRANCH   3   4
HETATM    4  C   UNK N   1      30.309  22.848  -2.928  0.00  0.00    -0.027 C 
HETATM    5  C   UNK N   1      30.329  23.883  -3.760  0.00  0.00    -0.027 C 
BRANCH   5   6
HETATM    6  C   UNK N   1      29.172  24.825  -3.780  0.00  0.00     0.053 C 
BRANCH   6   7
HETATM    7  C   UNK N   1      27.877  24.110  -3.556  0.00  0.00    -0.027 C 
HETATM    8  C   UNK N   1      26.786  24.304  -4.308  0.00  0.00    -0.027 C 
BRANCH   8   9
HETATM    9  C   UNK N   1      26.744  25.240  -5.477  0.00  0.00     0.053 C 
BRANCH   9  10
HETATM   10  C   UNK N   1      25.337  25.714  -5.661  0.00  0.00    -0.027 C 
HETATM   11  C   UNK N   1      24.966  26.993  -5.530  0.00  0.00    -0.031 C 
BRANCH  11  12
HETATM   12  C   UNK N   1      25.918  28.080  -5.153  0.00  0.00     0.022 C 
HETATM   13  C   UNK N   1      25.819  28.339  -3.663  0.00  0.00     0.009 C 
ENDBRANCH  11  12
ENDBRANCH   9  10
ENDBRANCH   8   9
ENDBRANCH   6   7
ENDBRANCH   5   6
ENDBRANCH   3   4
ENDBRANCH   1   3
BRANCH   2  14
HETATM   14  C   UNK N   1      31.361  20.184  -5.363  0.00  0.00     0.053 C 
BRANCH  14  15
HETATM   15  C   UNK N   1      30.918  20.069  -6.788  0.00  0.00    -0.027 C 
HETATM   16  C   UNK N   1      29.850  20.718  -7.255  0.00  0.00    -0.030 C 
BRANCH  16  17
HETATM   17  C   UNK N   1      29.036  21.621  -6.382  0.00  0.00     0.027 C 
BRANCH  17  18
HETATM   18  C   UNK N   1      28.167  22.536  -7.230  0.00  0.00     0.013 C 
BRANCH  18  19
HETATM   19  C   UNK N   1      27.053  21.776  -7.945  0.00  0.00     0.111 C 
BRANCH  19  20
HETATM   20  C   UNK N   1      25.749  22.510  -7.898  0.00  0.00     0.258 C 
HETATM   21  O   UNK N   1      25.023  22.391  -6.922  0.00  0.00    -0.265 OA
BRANCH  20  22
HETATM   22  O   UNK N   1      25.365  23.257  -8.961  0.00  0.00    -0.322 OA
BRANCH  22  23
HETATM   23  C   UNK N   1      25.774  24.561  -9.127  0.00  0.00     0.174 C 
HETATM   24  C   UNK N   1      25.004  25.198 -10.265  0.00  0.00     0.034 C 
ENDBRANCH  22  23
ENDBRANCH  20  22
ENDBRANCH  19  20
ENDBRANCH  18  19
ENDBRANCH  17  18
ENDBRANCH  16  17
ENDBRANCH  14  15
ENDBRANCH   2  14
TORSDOF 15
ENDMDL
