MODEL 1
REMARK VINA RESULT:      -7.0      0.000      0.000
REMARK  2 active torsions:
REMARK  status: ('A' for Active; 'I' for Inactive)
REMARK    1  A    between atoms: N_1  and  C_2 
REMARK    2  A    between atoms: C_15  and  N_20 
ROOT
HETATM    1  N   UNK N   1      33.579  16.091   7.963  0.00  0.00    -0.266 N 
HETATM    2  C   UNK N   1      34.108  16.203   6.709  0.00  0.00     0.262 A 
HETATM    3  C   UNK N   1      32.262  16.455   7.874  0.00  0.00     0.264 A 
HETATM    4  C   UNK N   1      33.085  16.643   5.766  0.00  0.00     0.050 A 
HETATM    5  O   UNK N   1      35.277  15.987   6.423  0.00  0.00    -0.267 OA
HETATM    6  C   UNK N   1      31.933  16.805   6.492  0.00  0.00     0.074 A 
HETATM    7  O   UNK N   1      31.479  16.532   8.802  0.00  0.00    -0.267 OA
HETATM    8  C   UNK N   1      33.136  16.908   4.399  0.00  0.00     0.018 A 
HETATM    9  C   UNK N   1      30.754  17.249   5.893  0.00  0.00     0.042 A 
HETATM   10  C   UNK N   1      31.958  17.350   3.770  0.00  0.00     0.003 A 
HETATM   11  C   UNK N   1      30.770  17.523   4.514  0.00  0.00     0.030 A 
ENDROOT
BRANCH   1  12
HETATM   12  C   UNK N   1      34.381  15.728   9.156  0.00  0.00     0.189 C 
HETATM   13  C   UNK N   1      35.128  16.775   9.986  0.00  0.00     0.247 C 
HETATM   14  N   UNK N   1      35.691  16.413  11.170  0.00  0.00    -0.296 N 
HETATM   15  O   UNK N   1      35.234  17.932   9.629  0.00  0.00    -0.271 OA
HETATM   16  C   UNK N   1      35.551  15.172  11.704  0.00  0.00     0.224 C 
HETATM   17  H   UNK N   1      36.223  17.080  11.661  0.00  0.00     0.171 HD
HETATM   18  O   UNK N   1      36.109  14.904  12.754  0.00  0.00    -0.273 OA
HETATM   19  C   UNK N   1      34.698  14.126  11.037  0.00  0.00     0.106 C 
HETATM   20  C   UNK N   1      33.671  14.768  10.107  0.00  0.00     0.045 C 
ENDBRANCH   1  12
BRANCH   9  21
HETATM   21  N   UNK N   1      29.574  17.427   6.645  0.00  0.00    -0.398 N 
HETATM   22  H   UNK N   1      29.212  16.681   7.175  0.00  0.00     0.156 HD
HETATM   23  H   UNK N   1      29.115  18.298   6.641  0.00  0.00     0.156 HD
ENDBRANCH   9  21
TORSDOF 2
ENDMDL
MODEL 2
REMARK VINA RESULT:      -6.9     10.651     13.539
REMARK  2 active torsions:
REMARK  status: ('A' for Active; 'I' for Inactive)
REMARK    1  A    between atoms: N_1  and  C_2 
REMARK    2  A    between atoms: C_15  and  N_20 
ROOT
HETATM    1  N   UNK N   1      21.792  14.169   8.121  0.00  0.00    -0.266 N 
HETATM    2  C   UNK N   1      23.131  13.928   8.249  0.00  0.00     0.262 A 
HETATM    3  C   UNK N   1      21.178  13.587   9.196  0.00  0.00     0.264 A 
HETATM    4  C   UNK N   1      23.393  13.171   9.468  0.00  0.00     0.050 A 
HETATM    5  O   UNK N   1      23.983  14.277   7.444  0.00  0.00    -0.267 OA
HETATM    6  C   UNK N   1      22.175  12.953  10.059  0.00  0.00     0.074 A 
HETATM    7  O   UNK N   1      19.979  13.547   9.397  0.00  0.00    -0.267 OA
HETATM    8  C   UNK N   1      24.576  12.684  10.020  0.00  0.00     0.018 A 
HETATM    9  C   UNK N   1      22.063  12.228  11.245  0.00  0.00     0.042 A 
HETATM   10  C   UNK N   1      24.490  11.954  11.220  0.00  0.00     0.003 A 
HETATM   11  C   UNK N   1      23.237  11.724  11.831  0.00  0.00     0.030 A 
ENDROOT
BRANCH   1  12
HETATM   12  C   UNK N   1      21.197  14.859   6.950  0.00  0.00     0.189 C 
HETATM   13  C   UNK N   1      20.171  14.181   6.039  0.00  0.00     0.247 C 
HETATM   14  N   UNK N   1      19.523  14.918   5.098  0.00  0.00    -0.296 N 
HETATM   15  O   UNK N   1      19.905  12.999   6.128  0.00  0.00    -0.271 OA
HETATM   16  C   UNK N   1      19.678  16.263   4.978  0.00  0.00     0.224 C 
HETATM   17  H   UNK N   1      18.914  14.457   4.477  0.00  0.00     0.171 HD
HETATM   18  O   UNK N   1      19.090  16.858   4.091  0.00  0.00    -0.273 OA
HETATM   19  C   UNK N   1      20.542  17.038   5.936  0.00  0.00     0.106 C 
HETATM   20  C   UNK N   1      20.722  16.279   7.249  0.00  0.00     0.045 C 
ENDBRANCH   1  12
BRANCH   9  21
HETATM   21  N   UNK N   1      20.807  11.994  11.843  0.00  0.00    -0.398 N 
HETATM   22  H   UNK N   1      20.111  12.689  11.810  0.00  0.00     0.156 HD
HETATM   23  H   UNK N   1      20.627  11.137  12.291  0.00  0.00     0.156 HD
ENDBRANCH   9  21
TORSDOF 2
ENDMDL
MODEL 3
REMARK VINA RESULT:      -6.9     13.447     16.042
REMARK  2 active torsions:
REMARK  status: ('A' for Active; 'I' for Inactive)
REMARK    1  A    between atoms: N_1  and  C_2 
REMARK    2  A    between atoms: C_15  and  N_20 
ROOT
HETATM    1  N   UNK N   1      28.918  24.049  -4.578  0.00  0.00    -0.266 N 
HETATM    2  C   UNK N   1      28.800  23.269  -5.693  0.00  0.00     0.262 A 
HETATM    3  C   UNK N   1      29.839  23.445  -3.765  0.00  0.00     0.264 A 
HETATM    4  C   UNK N   1      29.694  22.120  -5.603  0.00  0.00     0.050 A 
HETATM    5  O   UNK N   1      28.037  23.491  -6.622  0.00  0.00    -0.267 OA
HETATM    6  C   UNK N   1      30.341  22.226  -4.398  0.00  0.00     0.074 A 
HETATM    7  O   UNK N   1      30.167  23.823  -2.656  0.00  0.00    -0.267 OA
HETATM    8  C   UNK N   1      29.924  21.053  -6.469  0.00  0.00     0.018 A 
HETATM    9  C   UNK N   1      31.260  21.263  -3.980  0.00  0.00     0.042 A 
HETATM   10  C   UNK N   1      30.851  20.072  -6.073  0.00  0.00     0.003 A 
HETATM   11  C   UNK N   1      31.517  20.174  -4.831  0.00  0.00     0.030 A 
ENDROOT
BRANCH   1  12
HETATM   12  C   UNK N   1      28.092  25.257  -4.339  0.00  0.00     0.189 C 
HETATM   13  C   UNK N   1      26.903  25.253  -3.374  0.00  0.00     0.247 C 
HETATM   14  N   UNK N   1      26.300  26.429  -3.052  0.00  0.00    -0.296 N 
HETATM   15  O   UNK N   1      26.476  24.232  -2.874  0.00  0.00    -0.271 OA
HETATM   16  C   UNK N   1      26.757  27.634  -3.481  0.00  0.00     0.224 C 
HETATM   17  H   UNK N   1      25.497  26.404  -2.482  0.00  0.00     0.171 HD
HETATM   18  O   UNK N   1      26.149  28.647  -3.181  0.00  0.00    -0.273 OA
HETATM   19  C   UNK N   1      28.014  27.746  -4.300  0.00  0.00     0.106 C 
HETATM   20  C   UNK N   1      28.909  26.525  -4.101  0.00  0.00     0.045 C 
ENDBRANCH   1  12
BRANCH   9  21
HETATM   21  N   UNK N   1      31.913  21.368  -2.735  0.00  0.00    -0.398 N 
HETATM   22  H   UNK N   1      32.767  21.852  -2.667  0.00  0.00     0.156 HD
HETATM   23  H   UNK N   1      31.514  20.957  -1.934  0.00  0.00     0.156 HD
ENDBRANCH   9  21
TORSDOF 2
ENDMDL
MODEL 4
REMARK VINA RESULT:      -6.7      2.628      3.924
REMARK  2 active torsions:
REMARK  status: ('A' for Active; 'I' for Inactive)
REMARK    1  A    between atoms: N_1  and  C_2 
REMARK    2  A    between atoms: C_15  and  N_20 
ROOT
HETATM    1  N   UNK N   1      35.027  14.774  10.289  0.00  0.00    -0.266 N 
HETATM    2  C   UNK N   1      34.055  14.396   9.407  0.00  0.00     0.262 A 
HETATM    3  C   UNK N   1      35.294  16.094  10.046  0.00  0.00     0.264 A 
HETATM    4  C   UNK N   1      33.667  15.525   8.569  0.00  0.00     0.050 A 
HETATM    5  O   UNK N   1      33.594  13.267   9.318  0.00  0.00    -0.267 OA
HETATM    6  C   UNK N   1      34.442  16.586   8.963  0.00  0.00     0.074 A 
HETATM    7  O   UNK N   1      36.144  16.763  10.602  0.00  0.00    -0.267 OA
HETATM    8  C   UNK N   1      32.741  15.636   7.533  0.00  0.00     0.018 A 
HETATM    9  C   UNK N   1      34.342  17.830   8.341  0.00  0.00     0.042 A 
HETATM   10  C   UNK N   1      32.617  16.883   6.893  0.00  0.00     0.003 A 
HETATM   11  C   UNK N   1      33.416  17.977   7.293  0.00  0.00     0.030 A 
ENDROOT
BRANCH   1  12
HETATM   12  C   UNK N   1      35.679  13.835  11.234  0.00  0.00     0.189 C 
HETATM   13  C   UNK N   1      37.154  13.445  11.108  0.00  0.00     0.247 C 
HETATM   14  N   UNK N   1      37.745  12.732  12.103  0.00  0.00    -0.296 N 
HETATM   15  O   UNK N   1      37.828  13.756  10.146  0.00  0.00    -0.271 OA
HETATM   16  C   UNK N   1      37.108  12.415  13.261  0.00  0.00     0.224 C 
HETATM   17  H   UNK N   1      38.675  12.433  11.980  0.00  0.00     0.171 HD
HETATM   18  O   UNK N   1      37.686  11.745  14.100  0.00  0.00    -0.273 OA
HETATM   19  C   UNK N   1      35.710  12.896  13.540  0.00  0.00     0.106 C 
HETATM   20  C   UNK N   1      35.375  14.127  12.701  0.00  0.00     0.045 C 
ENDBRANCH   1  12
BRANCH   9  21
HETATM   21  N   UNK N   1      35.150  18.914   8.740  0.00  0.00    -0.398 N 
HETATM   22  H   UNK N   1      34.800  19.580   9.374  0.00  0.00     0.156 HD
HETATM   23  H   UNK N   1      36.064  19.003   8.386  0.00  0.00     0.156 HD
ENDBRANCH   9  21
TORSDOF 2
ENDMDL
MODEL 5
REMARK VINA RESULT:      -6.6     16.080     17.547
REMARK  2 active torsions:
REMARK  status: ('A' for Active; 'I' for Inactive)
REMARK    1  A    between atoms: N_1  and  C_2 
REMARK    2  A    between atoms: C_15  and  N_20 
ROOT
HETATM    1  N   UNK N   1      27.299  24.350  -5.858  0.00  0.00    -0.266 N 
HETATM    2  C   UNK N   1      26.570  23.612  -6.748  0.00  0.00     0.262 A 
HETATM    3  C   UNK N   1      28.484  23.690  -5.669  0.00  0.00     0.264 A 
HETATM    4  C   UNK N   1      27.324  22.434  -7.163  0.00  0.00     0.050 A 
HETATM    5  O   UNK N   1      25.440  23.889  -7.123  0.00  0.00    -0.267 OA
HETATM    6  C   UNK N   1      28.516  22.478  -6.488  0.00  0.00     0.074 A 
HETATM    7  O   UNK N   1      29.368  24.019  -4.902  0.00  0.00    -0.267 OA
HETATM    8  C   UNK N   1      27.008  21.391  -8.032  0.00  0.00     0.018 A 
HETATM    9  C   UNK N   1      29.473  21.474  -6.638  0.00  0.00     0.042 A 
HETATM   10  C   UNK N   1      27.959  20.369  -8.205  0.00  0.00     0.003 A 
HETATM   11  C   UNK N   1      29.188  20.408  -7.509  0.00  0.00     0.030 A 
ENDROOT
BRANCH   1  12
HETATM   12  C   UNK N   1      26.782  25.574  -5.199  0.00  0.00     0.189 C 
HETATM   13  C   UNK N   1      26.549  25.649  -3.687  0.00  0.00     0.247 C 
HETATM   14  N   UNK N   1      26.254  26.847  -3.115  0.00  0.00    -0.296 N 
HETATM   15  O   UNK N   1      26.623  24.671  -2.970  0.00  0.00    -0.271 OA
HETATM   16  C   UNK N   1      26.239  28.013  -3.812  0.00  0.00     0.224 C 
HETATM   17  H   UNK N   1      26.043  26.869  -2.154  0.00  0.00     0.171 HD
HETATM   18  O   UNK N   1      25.935  29.048  -3.243  0.00  0.00    -0.273 OA
HETATM   19  C   UNK N   1      26.615  28.058  -5.269  0.00  0.00     0.106 C 
HETATM   20  C   UNK N   1      27.477  26.856  -5.649  0.00  0.00     0.045 C 
ENDBRANCH   1  12
BRANCH   9  21
HETATM   21  N   UNK N   1      30.693  21.516  -5.932  0.00  0.00    -0.398 N 
HETATM   22  H   UNK N   1      31.524  21.756  -6.401  0.00  0.00     0.156 HD
HETATM   23  H   UNK N   1      30.713  21.306  -4.970  0.00  0.00     0.156 HD
ENDBRANCH   9  21
TORSDOF 2
ENDMDL
MODEL 6
REMARK VINA RESULT:      -6.6      2.095      6.571
REMARK  2 active torsions:
REMARK  status: ('A' for Active; 'I' for Inactive)
REMARK    1  A    between atoms: N_1  and  C_2 
REMARK    2  A    between atoms: C_15  and  N_20 
ROOT
HETATM    1  N   UNK N   1      34.539  15.490   9.553  0.00  0.00    -0.266 N 
HETATM    2  C   UNK N   1      35.256  16.061  10.566  0.00  0.00     0.262 A 
HETATM    3  C   UNK N   1      34.289  14.196   9.922  0.00  0.00     0.264 A 
HETATM    4  C   UNK N   1      35.464  15.098  11.642  0.00  0.00     0.050 A 
HETATM    5  O   UNK N   1      35.682  17.207  10.559  0.00  0.00    -0.267 OA
HETATM    6  C   UNK N   1      34.864  13.932  11.241  0.00  0.00     0.074 A 
HETATM    7  O   UNK N   1      33.719  13.360   9.247  0.00  0.00    -0.267 OA
HETATM    8  C   UNK N   1      36.132  15.200  12.861  0.00  0.00     0.018 A 
HETATM    9  C   UNK N   1      34.899  12.786  12.036  0.00  0.00     0.042 A 
HETATM   10  C   UNK N   1      36.176  14.059  13.684  0.00  0.00     0.003 A 
HETATM   11  C   UNK N   1      35.564  12.855  13.273  0.00  0.00     0.030 A 
ENDROOT
BRANCH   1  12
HETATM   12  C   UNK N   1      34.221  16.191   8.285  0.00  0.00     0.189 C 
HETATM   13  C   UNK N   1      34.804  15.749   6.940  0.00  0.00     0.247 C 
HETATM   14  N   UNK N   1      34.334  16.306   5.793  0.00  0.00    -0.296 N 
HETATM   15  O   UNK N   1      35.674  14.905   6.856  0.00  0.00    -0.271 OA
HETATM   16  C   UNK N   1      33.300  17.187   5.770  0.00  0.00     0.224 C 
HETATM   17  H   UNK N   1      34.762  16.060   4.941  0.00  0.00     0.171 HD
HETATM   18  O   UNK N   1      32.950  17.674   4.708  0.00  0.00    -0.273 OA
HETATM   19  C   UNK N   1      32.560  17.556   7.027  0.00  0.00     0.106 C 
HETATM   20  C   UNK N   1      32.734  16.483   8.100  0.00  0.00     0.045 C 
ENDBRANCH   1  12
BRANCH   9  21
HETATM   21  N   UNK N   1      34.293  11.585  11.614  0.00  0.00    -0.398 N 
HETATM   22  H   UNK N   1      33.583  11.606  10.932  0.00  0.00     0.156 HD
HETATM   23  H   UNK N   1      34.581  10.727  12.000  0.00  0.00     0.156 HD
ENDBRANCH   9  21
TORSDOF 2
ENDMDL
MODEL 7
REMARK VINA RESULT:      -6.5     16.362     17.674
REMARK  2 active torsions:
REMARK  status: ('A' for Active; 'I' for Inactive)
REMARK    1  A    between atoms: N_1  and  C_2 
REMARK    2  A    between atoms: C_15  and  N_20 
ROOT
HETATM    1  N   UNK N   1      26.980  24.257  -5.828  0.00  0.00    -0.266 N 
HETATM    2  C   UNK N   1      28.214  23.694  -5.661  0.00  0.00     0.262 A 
HETATM    3  C   UNK N   1      26.312  23.489  -6.743  0.00  0.00     0.264 A 
HETATM    4  C   UNK N   1      28.341  22.502  -6.492  0.00  0.00     0.050 A 
HETATM    5  O   UNK N   1      29.092  24.140  -4.936  0.00  0.00    -0.267 OA
HETATM    6  C   UNK N   1      27.157  22.374  -7.171  0.00  0.00     0.074 A 
HETATM    7  O   UNK N   1      25.201  23.712  -7.184  0.00  0.00    -0.267 OA
HETATM    8  C   UNK N   1      29.394  21.608  -6.674  0.00  0.00     0.018 A 
HETATM    9  C   UNK N   1      26.951  21.340  -8.084  0.00  0.00     0.042 A 
HETATM   10  C   UNK N   1      29.209  20.551  -7.585  0.00  0.00     0.003 A 
HETATM   11  C   UNK N   1      27.992  20.417  -8.290  0.00  0.00     0.030 A 
ENDROOT
BRANCH   1  12
HETATM   12  C   UNK N   1      26.566  25.520  -5.170  0.00  0.00     0.189 C 
HETATM   13  C   UNK N   1      26.461  25.650  -3.647  0.00  0.00     0.247 C 
HETATM   14  N   UNK N   1      26.259  26.875  -3.094  0.00  0.00    -0.296 N 
HETATM   15  O   UNK N   1      26.557  24.692  -2.906  0.00  0.00    -0.271 OA
HETATM   16  C   UNK N   1      26.230  28.020  -3.825  0.00  0.00     0.224 C 
HETATM   17  H   UNK N   1      26.129  26.935  -2.120  0.00  0.00     0.171 HD
HETATM   18  O   UNK N   1      26.013  29.082  -3.268  0.00  0.00    -0.273 OA
HETATM   19  C   UNK N   1      26.487  28.006  -5.308  0.00  0.00     0.106 C 
HETATM   20  C   UNK N   1      27.269  26.760  -5.717  0.00  0.00     0.045 C 
ENDBRANCH   1  12
BRANCH   9  21
HETATM   21  N   UNK N   1      25.737  21.219  -8.790  0.00  0.00    -0.398 N 
HETATM   22  H   UNK N   1      25.701  20.686  -9.617  0.00  0.00     0.156 HD
HETATM   23  H   UNK N   1      24.927  21.668  -8.457  0.00  0.00     0.156 HD
ENDBRANCH   9  21
TORSDOF 2
ENDMDL
MODEL 8
REMARK VINA RESULT:      -6.4      1.891      2.279
REMARK  2 active torsions:
REMARK  status: ('A' for Active; 'I' for Inactive)
REMARK    1  A    between atoms: N_1  and  C_2 
REMARK    2  A    between atoms: C_15  and  N_20 
ROOT
HETATM    1  N   UNK N   1      33.571  15.690   7.256  0.00  0.00    -0.266 N 
HETATM    2  C   UNK N   1      33.754  16.812   6.500  0.00  0.00     0.262 A 
HETATM    3  C   UNK N   1      32.786  14.840   6.524  0.00  0.00     0.264 A 
HETATM    4  C   UNK N   1      33.072  16.674   5.217  0.00  0.00     0.050 A 
HETATM    5  O   UNK N   1      34.382  17.799   6.857  0.00  0.00    -0.267 OA
HETATM    6  C   UNK N   1      32.464  15.446   5.232  0.00  0.00     0.074 A 
HETATM    7  O   UNK N   1      32.368  13.759   6.894  0.00  0.00    -0.267 OA
HETATM    8  C   UNK N   1      32.959  17.539   4.130  0.00  0.00     0.018 A 
HETATM    9  C   UNK N   1      31.696  15.003   4.155  0.00  0.00     0.042 A 
HETATM   10  C   UNK N   1      32.194  17.113   3.029  0.00  0.00     0.003 A 
HETATM   11  C   UNK N   1      31.562  15.850   3.040  0.00  0.00     0.030 A 
ENDROOT
BRANCH   1  12
HETATM   12  C   UNK N   1      34.084  15.547   8.640  0.00  0.00     0.189 C 
HETATM   13  C   UNK N   1      33.163  15.240   9.824  0.00  0.00     0.247 C 
HETATM   14  N   UNK N   1      33.706  14.936  11.033  0.00  0.00    -0.296 N 
HETATM   15  O   UNK N   1      31.952  15.250   9.724  0.00  0.00    -0.271 OA
HETATM   16  C   UNK N   1      35.045  14.806  11.228  0.00  0.00     0.224 C 
HETATM   17  H   UNK N   1      33.103  14.804  11.799  0.00  0.00     0.171 HD
HETATM   18  O   UNK N   1      35.467  14.563  12.346  0.00  0.00    -0.273 OA
HETATM   19  C   UNK N   1      36.016  14.930  10.085  0.00  0.00     0.106 C 
HETATM   20  C   UNK N   1      35.327  14.667   8.748  0.00  0.00     0.045 C 
ENDBRANCH   1  12
BRANCH   9  21
HETATM   21  N   UNK N   1      31.060  13.745   4.179  0.00  0.00    -0.398 N 
HETATM   22  H   UNK N   1      31.292  13.064   3.506  0.00  0.00     0.156 HD
HETATM   23  H   UNK N   1      30.386  13.546   4.868  0.00  0.00     0.156 HD
ENDBRANCH   9  21
TORSDOF 2
ENDMDL
MODEL 9
REMARK VINA RESULT:      -6.4     12.076     13.100
REMARK  2 active torsions:
REMARK  status: ('A' for Active; 'I' for Inactive)
REMARK    1  A    between atoms: N_1  and  C_2 
REMARK    2  A    between atoms: C_15  and  N_20 
ROOT
HETATM    1  N   UNK N   1      21.031  16.451   5.984  0.00  0.00    -0.266 N 
HETATM    2  C   UNK N   1      21.307  17.780   5.840  0.00  0.00     0.262 A 
HETATM    3  C   UNK N   1      20.558  16.010   4.777  0.00  0.00     0.264 A 
HETATM    4  C   UNK N   1      21.015  18.213   4.478  0.00  0.00     0.050 A 
HETATM    5  O   UNK N   1      21.718  18.508   6.734  0.00  0.00    -0.267 OA
HETATM    6  C   UNK N   1      20.544  17.110   3.813  0.00  0.00     0.074 A 
HETATM    7  O   UNK N   1      20.158  14.887   4.535  0.00  0.00    -0.267 OA
HETATM    8  C   UNK N   1      21.122  19.457   3.858  0.00  0.00     0.018 A 
HETATM    9  C   UNK N   1      20.143  17.183   2.480  0.00  0.00     0.042 A 
HETATM   10  C   UNK N   1      20.729  19.555   2.510  0.00  0.00     0.003 A 
HETATM   11  C   UNK N   1      20.239  18.422   1.822  0.00  0.00     0.030 A 
ENDROOT
BRANCH   1  12
HETATM   12  C   UNK N   1      21.159  15.726   7.271  0.00  0.00     0.189 C 
HETATM   13  C   UNK N   1      19.984  15.571   8.241  0.00  0.00     0.247 C 
HETATM   14  N   UNK N   1      20.106  14.743   9.312  0.00  0.00    -0.296 N 
HETATM   15  O   UNK N   1      18.933  16.161   8.086  0.00  0.00    -0.271 OA
HETATM   16  C   UNK N   1      21.202  13.968   9.525  0.00  0.00     0.224 C 
HETATM   17  H   UNK N   1      19.367  14.703   9.961  0.00  0.00     0.171 HD
HETATM   18  O   UNK N   1      21.259  13.271  10.523  0.00  0.00    -0.273 OA
HETATM   19  C   UNK N   1      22.337  13.933   8.537  0.00  0.00     0.106 C 
HETATM   20  C   UNK N   1      21.874  14.382   7.153  0.00  0.00     0.045 C 
ENDBRANCH   1  12
BRANCH   9  21
HETATM   21  N   UNK N   1      19.645  16.050   1.803  0.00  0.00    -0.398 N 
HETATM   22  H   UNK N   1      20.253  15.312   1.570  0.00  0.00     0.156 HD
HETATM   23  H   UNK N   1      18.692  15.998   1.566  0.00  0.00     0.156 HD
ENDBRANCH   9  21
TORSDOF 2
ENDMDL
