MODEL 1
REMARK VINA RESULT:      -8.8      0.000      0.000
REMARK  6 active torsions:
REMARK  status: ('A' for Active; 'I' for Inactive)
REMARK    1  A    between atoms: C_4  and  N_8 
REMARK    2  A    between atoms: C_6  and  C_31 
REMARK       I    between atoms: N_8  and  C_9 
REMARK       I    between atoms: C_9  and  N_10 
REMARK    3  A    between atoms: N_10  and  C_12 
REMARK    4  A    between atoms: C_15  and  O_18 
REMARK    5  A    between atoms: O_18  and  C_19 
REMARK    6  A    between atoms: C_24  and  C_26 
REMARK       I    between atoms: C_26  and  N_27 
ROOT
HETATM    1  C   UNK N   1      34.615  15.722   9.347  0.00  0.00     0.075 A 
HETATM    2  C   UNK N   1      33.663  14.788   8.925  0.00  0.00     0.145 A 
HETATM    3  C   UNK N   1      32.536  15.224   8.212  0.00  0.00     0.081 A 
HETATM    4  C   UNK N   1      32.346  16.593   7.927  0.00  0.00     0.079 A 
HETATM    5  C   UNK N   1      33.289  17.512   8.364  0.00  0.00     0.040 A 
HETATM    6  C   UNK N   1      34.402  17.084   9.067  0.00  0.00     0.035 A 
HETATM    7  F   UNK N   1      33.826  13.469   9.192  0.00  0.00    -0.204 F 
ENDROOT
BRANCH   1   8
HETATM    8  N   UNK N   1      35.760  15.325  10.106  0.00  0.00    -0.306 N 
HETATM    9  C   UNK N   1      35.647  15.075  11.437  0.00  0.00     0.325 C 
HETATM   10  N   UNK N   1      36.561  14.295  12.078  0.00  0.00    -0.309 N 
HETATM   11  O   UNK N   1      34.669  15.491  12.047  0.00  0.00    -0.247 OA
HETATM   12  H   UNK N   1      37.458  14.169  11.694  0.00  0.00     0.170 HD
HETATM   13  H   UNK N   1      36.633  15.232   9.662  0.00  0.00     0.171 HD
BRANCH  10  14
HETATM   14  C   UNK N   1      36.216  13.660  13.310  0.00  0.00     0.037 A 
HETATM   15  C   UNK N   1      36.737  14.089  14.530  0.00  0.00     0.031 A 
HETATM   16  C   UNK N   1      36.369  13.421  15.709  0.00  0.00     0.027 A 
HETATM   17  C   UNK N   1      35.499  12.314  15.676  0.00  0.00     0.049 A 
HETATM   18  C   UNK N   1      35.001  11.858  14.431  0.00  0.00     0.071 A 
HETATM   19 Cl   UNK N   1      35.089  11.550  17.203  0.00  0.00    -0.083 Cl
HETATM   20  C   UNK N   1      35.379  12.538  13.287  0.00  0.00     0.047 A 
BRANCH  18  21
HETATM   21  C   UNK N   1      34.072  10.681  14.219  0.00  0.00     0.419 C 
HETATM   22  F   UNK N   1      34.723   9.520  14.598  0.00  0.00    -0.166 F 
HETATM   23  F   UNK N   1      33.766  10.587  12.871  0.00  0.00    -0.166 F 
HETATM   24  F   UNK N   1      32.890  10.767  14.924  0.00  0.00    -0.166 F 
ENDBRANCH  18  21
ENDBRANCH  10  14
ENDBRANCH   1   8
BRANCH   4  25
HETATM   25  O   UNK N   1      31.273  17.073   7.247  0.00  0.00    -0.311 OA
BRANCH  25  26
HETATM   26  C   UNK N   1      30.109  17.574   7.729  0.00  0.00     0.079 A 
HETATM   27  C   UNK N   1      29.695  17.384   9.052  0.00  0.00     0.054 A 
HETATM   28  C   UNK N   1      28.491  17.931   9.483  0.00  0.00     0.091 A 
HETATM   29  N   UNK N   1      27.724  18.647   8.621  0.00  0.00    -0.361 N 
HETATM   30  C   UNK N   1      28.093  18.854   7.326  0.00  0.00     0.103 A 
ATOM     31  HN  UNK N   1      26.844  19.043   8.954  1.00  0.00     0.165 HD
HETATM   32  C   UNK N   1      29.299  18.312   6.866  0.00  0.00     0.072 A 
BRANCH  30  33
HETATM   33  C   UNK N   1      27.240  19.646   6.392  0.00  0.00     0.267 C 
HETATM   34  N   UNK N   1      26.384  19.076   5.503  0.00  0.00    -0.360 N 
HETATM   35  C   UNK N   1      26.187  17.657   5.346  0.00  0.00     0.149 C 
HETATM   36  H   UNK N   1      25.860  19.676   4.924  0.00  0.00     0.162 HD
HETATM   37  O   UNK N   1      27.310  20.866   6.428  0.00  0.00    -0.266 OA
ENDBRANCH  30  33
ENDBRANCH  25  26
ENDBRANCH   4  25
TORSDOF 6
ENDMDL
MODEL 2
REMARK VINA RESULT:      -8.5      2.177      2.943
REMARK  6 active torsions:
REMARK  status: ('A' for Active; 'I' for Inactive)
REMARK    1  A    between atoms: C_4  and  N_8 
REMARK    2  A    between atoms: C_6  and  C_31 
REMARK       I    between atoms: N_8  and  C_9 
REMARK       I    between atoms: C_9  and  N_10 
REMARK    3  A    between atoms: N_10  and  C_12 
REMARK    4  A    between atoms: C_15  and  O_18 
REMARK    5  A    between atoms: O_18  and  C_19 
REMARK    6  A    between atoms: C_24  and  C_26 
REMARK       I    between atoms: C_26  and  N_27 
ROOT
HETATM    1  C   UNK N   1      35.464  15.603   9.535  0.00  0.00     0.075 A 
HETATM    2  C   UNK N   1      34.952  16.896   9.689  0.00  0.00     0.145 A 
HETATM    3  C   UNK N   1      34.007  17.378   8.773  0.00  0.00     0.081 A 
HETATM    4  C   UNK N   1      33.576  16.582   7.691  0.00  0.00     0.079 A 
HETATM    5  C   UNK N   1      34.102  15.307   7.538  0.00  0.00     0.040 A 
HETATM    6  C   UNK N   1      35.034  14.827   8.442  0.00  0.00     0.035 A 
HETATM    7  F   UNK N   1      35.356  17.678  10.719  0.00  0.00    -0.204 F 
ENDROOT
BRANCH   1   8
HETATM    8  N   UNK N   1      36.454  15.084  10.426  0.00  0.00    -0.306 N 
HETATM    9  C   UNK N   1      36.087  14.549  11.620  0.00  0.00     0.325 C 
HETATM   10  N   UNK N   1      36.905  13.675  12.271  0.00  0.00    -0.309 N 
HETATM   11  O   UNK N   1      34.977  14.795  12.075  0.00  0.00    -0.247 OA
HETATM   12  H   UNK N   1      37.869  13.661  12.074  0.00  0.00     0.170 HD
HETATM   13  H   UNK N   1      37.405  15.114  10.174  0.00  0.00     0.171 HD
BRANCH  10  14
HETATM   14  C   UNK N   1      36.361  12.779  13.241  0.00  0.00     0.037 A 
HETATM   15  C   UNK N   1      36.047  11.457  12.928  0.00  0.00     0.031 A 
HETATM   16  C   UNK N   1      35.506  10.624  13.920  0.00  0.00     0.027 A 
HETATM   17  C   UNK N   1      35.257  11.107  15.219  0.00  0.00     0.049 A 
HETATM   18  C   UNK N   1      35.543  12.461  15.524  0.00  0.00     0.071 A 
HETATM   19 Cl   UNK N   1      34.589   9.987  16.394  0.00  0.00    -0.083 Cl
HETATM   20  C   UNK N   1      36.077  13.256  14.526  0.00  0.00     0.047 A 
BRANCH  18  21
HETATM   21  C   UNK N   1      35.324  13.139  16.860  0.00  0.00     0.419 C 
HETATM   22  F   UNK N   1      34.008  13.561  16.940  0.00  0.00    -0.166 F 
HETATM   23  F   UNK N   1      36.143  14.254  16.937  0.00  0.00    -0.166 F 
HETATM   24  F   UNK N   1      35.589  12.333  17.947  0.00  0.00    -0.166 F 
ENDBRANCH  18  21
ENDBRANCH  10  14
ENDBRANCH   1   8
BRANCH   4  25
HETATM   25  O   UNK N   1      32.669  16.998   6.769  0.00  0.00    -0.311 OA
BRANCH  25  26
HETATM   26  C   UNK N   1      31.337  16.754   6.710  0.00  0.00     0.079 A 
HETATM   27  C   UNK N   1      30.768  15.892   5.766  0.00  0.00     0.054 A 
HETATM   28  C   UNK N   1      29.392  15.683   5.765  0.00  0.00     0.091 A 
HETATM   29  N   UNK N   1      28.609  16.312   6.678  0.00  0.00    -0.361 N 
HETATM   30  C   UNK N   1      29.126  17.159   7.612  0.00  0.00     0.103 A 
ATOM     31  HN  UNK N   1      27.603  16.146   6.665  1.00  0.00     0.165 HD
HETATM   32  C   UNK N   1      30.507  17.389   7.634  0.00  0.00     0.072 A 
BRANCH  30  33
HETATM   33  C   UNK N   1      28.252  17.840   8.611  0.00  0.00     0.267 C 
HETATM   34  N   UNK N   1      27.641  19.032   8.374  0.00  0.00    -0.360 N 
HETATM   35  C   UNK N   1      27.754  19.783   7.149  0.00  0.00     0.149 C 
HETATM   36  H   UNK N   1      27.083  19.409   9.091  0.00  0.00     0.162 HD
HETATM   37  O   UNK N   1      28.071  17.303   9.694  0.00  0.00    -0.266 OA
ENDBRANCH  30  33
ENDBRANCH  25  26
ENDBRANCH   4  25
TORSDOF 6
ENDMDL
MODEL 3
REMARK VINA RESULT:      -8.3      1.725      2.326
REMARK  6 active torsions:
REMARK  status: ('A' for Active; 'I' for Inactive)
REMARK    1  A    between atoms: C_4  and  N_8 
REMARK    2  A    between atoms: C_6  and  C_31 
REMARK       I    between atoms: N_8  and  C_9 
REMARK       I    between atoms: C_9  and  N_10 
REMARK    3  A    between atoms: N_10  and  C_12 
REMARK    4  A    between atoms: C_15  and  O_18 
REMARK    5  A    between atoms: O_18  and  C_19 
REMARK    6  A    between atoms: C_24  and  C_26 
REMARK       I    between atoms: C_26  and  N_27 
ROOT
HETATM    1  C   UNK N   1      34.558  15.813   9.307  0.00  0.00     0.075 A 
HETATM    2  C   UNK N   1      33.477  14.983   8.991  0.00  0.00     0.145 A 
HETATM    3  C   UNK N   1      32.363  15.520   8.332  0.00  0.00     0.081 A 
HETATM    4  C   UNK N   1      32.313  16.890   7.995  0.00  0.00     0.079 A 
HETATM    5  C   UNK N   1      33.383  17.707   8.327  0.00  0.00     0.040 A 
HETATM    6  C   UNK N   1      34.485  17.179   8.977  0.00  0.00     0.035 A 
HETATM    7  F   UNK N   1      33.505  13.666   9.309  0.00  0.00    -0.204 F 
ENDROOT
BRANCH   1   8
HETATM    8  N   UNK N   1      35.700  15.313  10.009  0.00  0.00    -0.306 N 
HETATM    9  C   UNK N   1      35.634  15.085  11.347  0.00  0.00     0.325 C 
HETATM   10  N   UNK N   1      36.503  14.226  11.949  0.00  0.00    -0.309 N 
HETATM   11  O   UNK N   1      34.735  15.597  12.003  0.00  0.00    -0.247 OA
HETATM   12  H   UNK N   1      37.363  14.012  11.519  0.00  0.00     0.170 HD
HETATM   13  H   UNK N   1      36.535  15.134   9.521  0.00  0.00     0.171 HD
BRANCH  10  14
HETATM   14  C   UNK N   1      36.166  13.636  13.205  0.00  0.00     0.037 A 
HETATM   15  C   UNK N   1      36.669  14.128  14.408  0.00  0.00     0.031 A 
HETATM   16  C   UNK N   1      36.310  13.502  15.612  0.00  0.00     0.027 A 
HETATM   17  C   UNK N   1      35.467  12.375  15.623  0.00  0.00     0.049 A 
HETATM   18  C   UNK N   1      34.986  11.855  14.395  0.00  0.00     0.071 A 
HETATM   19 Cl   UNK N   1      35.065  11.667  17.179  0.00  0.00    -0.083 Cl
HETATM   20  C   UNK N   1      35.355  12.494  13.226  0.00  0.00     0.047 A 
BRANCH  18  21
HETATM   21  C   UNK N   1      34.085  10.649  14.230  0.00  0.00     0.419 C 
HETATM   22  F   UNK N   1      32.929  10.846  14.966  0.00  0.00    -0.166 F 
HETATM   23  F   UNK N   1      34.734   9.532  14.730  0.00  0.00    -0.166 F 
HETATM   24  F   UNK N   1      33.730  10.391  12.923  0.00  0.00    -0.166 F 
ENDBRANCH  18  21
ENDBRANCH  10  14
ENDBRANCH   1   8
BRANCH   4  25
HETATM   25  O   UNK N   1      31.258  17.467   7.363  0.00  0.00    -0.311 OA
BRANCH  25  26
HETATM   26  C   UNK N   1      30.872  17.354   6.068  0.00  0.00     0.079 A 
HETATM   27  C   UNK N   1      31.783  17.191   5.019  0.00  0.00     0.054 A 
HETATM   28  C   UNK N   1      31.318  17.076   3.713  0.00  0.00     0.091 A 
HETATM   29  N   UNK N   1      29.984  17.123   3.462  0.00  0.00    -0.361 N 
HETATM   30  C   UNK N   1      29.066  17.282   4.456  0.00  0.00     0.103 A 
ATOM     31  HN  UNK N   1      29.659  17.036   2.498  1.00  0.00     0.165 HD
HETATM   32  C   UNK N   1      29.508  17.402   5.779  0.00  0.00     0.072 A 
BRANCH  30  33
HETATM   33  C   UNK N   1      27.603  17.328   4.163  0.00  0.00     0.267 C 
HETATM   34  N   UNK N   1      26.928  18.485   3.931  0.00  0.00    -0.360 N 
HETATM   35  C   UNK N   1      27.522  19.798   3.937  0.00  0.00     0.149 C 
HETATM   36  H   UNK N   1      25.963  18.422   3.747  0.00  0.00     0.162 HD
HETATM   37  O   UNK N   1      26.981  16.277   4.125  0.00  0.00    -0.266 OA
ENDBRANCH  30  33
ENDBRANCH  25  26
ENDBRANCH   4  25
TORSDOF 6
ENDMDL
MODEL 4
REMARK VINA RESULT:      -8.2      5.076     11.128
REMARK  6 active torsions:
REMARK  status: ('A' for Active; 'I' for Inactive)
REMARK    1  A    between atoms: C_4  and  N_8 
REMARK    2  A    between atoms: C_6  and  C_31 
REMARK       I    between atoms: N_8  and  C_9 
REMARK       I    between atoms: C_9  and  N_10 
REMARK    3  A    between atoms: N_10  and  C_12 
REMARK    4  A    between atoms: C_15  and  O_18 
REMARK    5  A    between atoms: O_18  and  C_19 
REMARK    6  A    between atoms: C_24  and  C_26 
REMARK       I    between atoms: C_26  and  N_27 
ROOT
HETATM    1  C   UNK N   1      32.181  16.758   8.924  0.00  0.00     0.075 A 
HETATM    2  C   UNK N   1      33.440  17.285   8.615  0.00  0.00     0.145 A 
HETATM    3  C   UNK N   1      34.551  16.432   8.559  0.00  0.00     0.081 A 
HETATM    4  C   UNK N   1      34.418  15.052   8.823  0.00  0.00     0.079 A 
HETATM    5  C   UNK N   1      33.167  14.543   9.143  0.00  0.00     0.040 A 
HETATM    6  C   UNK N   1      32.069  15.383   9.198  0.00  0.00     0.035 A 
HETATM    7  F   UNK N   1      33.590  18.608   8.363  0.00  0.00    -0.204 F 
ENDROOT
BRANCH   1   8
HETATM    8  N   UNK N   1      31.028  17.598   9.025  0.00  0.00    -0.306 N 
HETATM    9  C   UNK N   1      30.260  17.840   7.931  0.00  0.00     0.325 C 
HETATM   10  N   UNK N   1      28.965  18.241   8.066  0.00  0.00    -0.309 N 
HETATM   11  O   UNK N   1      30.713  17.618   6.814  0.00  0.00    -0.247 OA
HETATM   12  H   UNK N   1      28.663  18.663   8.902  0.00  0.00     0.170 HD
HETATM   13  H   UNK N   1      30.791  18.002   9.890  0.00  0.00     0.171 HD
BRANCH  10  14
HETATM   14  C   UNK N   1      28.044  18.048   6.990  0.00  0.00     0.037 A 
HETATM   15  C   UNK N   1      27.546  16.787   6.666  0.00  0.00     0.031 A 
HETATM   16  C   UNK N   1      26.650  16.656   5.593  0.00  0.00     0.027 A 
HETATM   17  C   UNK N   1      26.263  17.774   4.828  0.00  0.00     0.049 A 
HETATM   18  C   UNK N   1      26.800  19.048   5.137  0.00  0.00     0.071 A 
HETATM   19 Cl   UNK N   1      25.130  17.512   3.512  0.00  0.00    -0.083 Cl
HETATM   20  C   UNK N   1      27.678  19.145   6.201  0.00  0.00     0.047 A 
BRANCH  18  21
HETATM   21  C   UNK N   1      26.500  20.342   4.411  0.00  0.00     0.419 C 
HETATM   22  F   UNK N   1      27.032  20.276   3.135  0.00  0.00    -0.166 F 
HETATM   23  F   UNK N   1      27.115  21.387   5.083  0.00  0.00    -0.166 F 
HETATM   24  F   UNK N   1      25.155  20.628   4.309  0.00  0.00    -0.166 F 
ENDBRANCH  18  21
ENDBRANCH  10  14
ENDBRANCH   1   8
BRANCH   4  25
HETATM   25  O   UNK N   1      35.458  14.180   8.790  0.00  0.00    -0.311 OA
BRANCH  25  26
HETATM   26  C   UNK N   1      36.260  13.767   9.802  0.00  0.00     0.079 A 
HETATM   27  C   UNK N   1      37.468  13.095   9.582  0.00  0.00     0.054 A 
HETATM   28  C   UNK N   1      38.247  12.704  10.667  0.00  0.00     0.091 A 
HETATM   29  N   UNK N   1      37.834  12.976  11.932  0.00  0.00    -0.361 N 
HETATM   30  C   UNK N   1      36.664  13.627  12.186  0.00  0.00     0.103 A 
ATOM     31  HN  UNK N   1      38.417  12.684  12.716  1.00  0.00     0.165 HD
HETATM   32  C   UNK N   1      35.860  14.030  11.112  0.00  0.00     0.072 A 
BRANCH  30  33
HETATM   33  C   UNK N   1      36.226  13.921  13.582  0.00  0.00     0.267 C 
HETATM   34  N   UNK N   1      35.379  13.117  14.279  0.00  0.00    -0.360 N 
HETATM   35  C   UNK N   1      34.802  11.896  13.774  0.00  0.00     0.149 C 
HETATM   36  H   UNK N   1      35.143  13.389  15.195  0.00  0.00     0.162 HD
HETATM   37  O   UNK N   1      36.649  14.929  14.128  0.00  0.00    -0.266 OA
ENDBRANCH  30  33
ENDBRANCH  25  26
ENDBRANCH   4  25
TORSDOF 6
ENDMDL
MODEL 5
REMARK VINA RESULT:      -8.1      4.439     10.416
REMARK  6 active torsions:
REMARK  status: ('A' for Active; 'I' for Inactive)
REMARK    1  A    between atoms: C_4  and  N_8 
REMARK    2  A    between atoms: C_6  and  C_31 
REMARK       I    between atoms: N_8  and  C_9 
REMARK       I    between atoms: C_9  and  N_10 
REMARK    3  A    between atoms: N_10  and  C_12 
REMARK    4  A    between atoms: C_15  and  O_18 
REMARK    5  A    between atoms: O_18  and  C_19 
REMARK    6  A    between atoms: C_24  and  C_26 
REMARK       I    between atoms: C_26  and  N_27 
ROOT
HETATM    1  C   UNK N   1      35.676  15.603  10.321  0.00  0.00     0.075 A 
HETATM    2  C   UNK N   1      36.442  14.493   9.950  0.00  0.00     0.145 A 
HETATM    3  C   UNK N   1      36.798  13.544  10.920  0.00  0.00     0.081 A 
HETATM    4  C   UNK N   1      36.403  13.702  12.265  0.00  0.00     0.079 A 
HETATM    5  C   UNK N   1      35.657  14.815  12.625  0.00  0.00     0.040 A 
HETATM    6  C   UNK N   1      35.304  15.753  11.670  0.00  0.00     0.035 A 
HETATM    7  F   UNK N   1      36.834  14.325   8.664  0.00  0.00    -0.204 F 
ENDROOT
BRANCH   1   8
HETATM    8  N   UNK N   1      35.321  16.612   9.371  0.00  0.00    -0.306 N 
HETATM    9  C   UNK N   1      34.212  16.465   8.600  0.00  0.00     0.325 C 
HETATM   10  N   UNK N   1      33.610  17.549   8.035  0.00  0.00    -0.309 N 
HETATM   11  O   UNK N   1      33.704  15.357   8.478  0.00  0.00    -0.247 OA
HETATM   12  H   UNK N   1      34.118  18.381   7.901  0.00  0.00     0.170 HD
HETATM   13  H   UNK N   1      35.881  17.415   9.277  0.00  0.00     0.171 HD
BRANCH  10  14
HETATM   14  C   UNK N   1      32.241  17.475   7.636  0.00  0.00     0.037 A 
HETATM   15  C   UNK N   1      31.869  17.107   6.343  0.00  0.00     0.031 A 
HETATM   16  C   UNK N   1      30.508  17.060   6.005  0.00  0.00     0.027 A 
HETATM   17  C   UNK N   1      29.513  17.398   6.943  0.00  0.00     0.049 A 
HETATM   18  C   UNK N   1      29.895  17.807   8.244  0.00  0.00     0.071 A 
HETATM   19 Cl   UNK N   1      27.837  17.299   6.430  0.00  0.00    -0.083 Cl
HETATM   20  C   UNK N   1      31.244  17.841   8.548  0.00  0.00     0.047 A 
BRANCH  18  21
HETATM   21  C   UNK N   1      28.958  18.213   9.362  0.00  0.00     0.419 C 
HETATM   22  F   UNK N   1      28.002  19.077   8.857  0.00  0.00    -0.166 F 
HETATM   23  F   UNK N   1      29.683  18.887  10.332  0.00  0.00    -0.166 F 
HETATM   24  F   UNK N   1      28.312  17.154   9.964  0.00  0.00    -0.166 F 
ENDBRANCH  18  21
ENDBRANCH  10  14
ENDBRANCH   1   8
BRANCH   4  25
HETATM   25  O   UNK N   1      36.723  12.820  13.247  0.00  0.00    -0.311 OA
BRANCH  25  26
HETATM   26  C   UNK N   1      35.903  12.058  14.012  0.00  0.00     0.079 A 
HETATM   27  C   UNK N   1      34.825  11.340  13.481  0.00  0.00     0.054 A 
HETATM   28  C   UNK N   1      34.027  10.573  14.322  0.00  0.00     0.091 A 
HETATM   29  N   UNK N   1      34.296  10.522  15.653  0.00  0.00    -0.361 N 
HETATM   30  C   UNK N   1      35.335  11.206  16.207  0.00  0.00     0.103 A 
ATOM     31  HN  UNK N   1      33.702   9.952  16.256  1.00  0.00     0.165 HD
HETATM   32  C   UNK N   1      36.153  11.989  15.383  0.00  0.00     0.072 A 
BRANCH  30  33
HETATM   33  C   UNK N   1      35.619  11.137  17.670  0.00  0.00     0.267 C 
HETATM   34  N   UNK N   1      36.322  10.123  18.243  0.00  0.00    -0.360 N 
HETATM   35  C   UNK N   1      36.877   9.002  17.528  0.00  0.00     0.149 C 
HETATM   36  H   UNK N   1      36.461  10.158  19.217  0.00  0.00     0.162 HD
HETATM   37  O   UNK N   1      35.204  12.033  18.390  0.00  0.00    -0.266 OA
ENDBRANCH  30  33
ENDBRANCH  25  26
ENDBRANCH   4  25
TORSDOF 6
ENDMDL
MODEL 6
REMARK VINA RESULT:      -8.0      2.506      3.795
REMARK  6 active torsions:
REMARK  status: ('A' for Active; 'I' for Inactive)
REMARK    1  A    between atoms: C_4  and  N_8 
REMARK    2  A    between atoms: C_6  and  C_31 
REMARK       I    between atoms: N_8  and  C_9 
REMARK       I    between atoms: C_9  and  N_10 
REMARK    3  A    between atoms: N_10  and  C_12 
REMARK    4  A    between atoms: C_15  and  O_18 
REMARK    5  A    between atoms: O_18  and  C_19 
REMARK    6  A    between atoms: C_24  and  C_26 
REMARK       I    between atoms: C_26  and  N_27 
ROOT
HETATM    1  C   UNK N   1      36.130  14.640  11.126  0.00  0.00     0.075 A 
HETATM    2  C   UNK N   1      35.402  15.756  10.701  0.00  0.00     0.145 A 
HETATM    3  C   UNK N   1      34.762  15.731   9.454  0.00  0.00     0.081 A 
HETATM    4  C   UNK N   1      34.854  14.599   8.618  0.00  0.00     0.079 A 
HETATM    5  C   UNK N   1      35.592  13.502   9.042  0.00  0.00     0.040 A 
HETATM    6  C   UNK N   1      36.223  13.525  10.273  0.00  0.00     0.035 A 
HETATM    7  F   UNK N   1      35.305  16.855  11.489  0.00  0.00    -0.204 F 
ENDROOT
BRANCH   1   8
HETATM    8  N   UNK N   1      36.826  14.637  12.375  0.00  0.00    -0.306 N 
HETATM    9  C   UNK N   1      36.232  14.132  13.488  0.00  0.00     0.325 C 
HETATM   10  N   UNK N   1      36.981  13.712  14.546  0.00  0.00    -0.309 N 
HETATM   11  O   UNK N   1      35.016  13.982  13.508  0.00  0.00    -0.247 OA
HETATM   12  H   UNK N   1      37.898  14.046  14.665  0.00  0.00     0.170 HD
HETATM   13  H   UNK N   1      37.738  15.001  12.429  0.00  0.00     0.171 HD
BRANCH  10  14
HETATM   14  C   UNK N   1      36.431  12.784  15.483  0.00  0.00     0.037 A 
HETATM   15  C   UNK N   1      35.660  13.203  16.567  0.00  0.00     0.031 A 
HETATM   16  C   UNK N   1      35.153  12.247  17.461  0.00  0.00     0.027 A 
HETATM   17  C   UNK N   1      35.427  10.876  17.292  0.00  0.00     0.049 A 
HETATM   18  C   UNK N   1      36.241  10.457  16.211  0.00  0.00     0.071 A 
HETATM   19 Cl   UNK N   1      34.740   9.755  18.456  0.00  0.00    -0.083 Cl
HETATM   20  C   UNK N   1      36.724  11.422  15.346  0.00  0.00     0.047 A 
BRANCH  18  21
HETATM   21  C   UNK N   1      36.640   9.031  15.895  0.00  0.00     0.419 C 
HETATM   22  F   UNK N   1      37.395   9.022  14.735  0.00  0.00    -0.166 F 
HETATM   23  F   UNK N   1      35.495   8.283  15.674  0.00  0.00    -0.166 F 
HETATM   24  F   UNK N   1      37.369   8.420  16.893  0.00  0.00    -0.166 F 
ENDBRANCH  18  21
ENDBRANCH  10  14
ENDBRANCH   1   8
BRANCH   4  25
HETATM   25  O   UNK N   1      34.261  14.519   7.398  0.00  0.00    -0.311 OA
BRANCH  25  26
HETATM   26  C   UNK N   1      33.532  15.453   6.739  0.00  0.00     0.079 A 
HETATM   27  C   UNK N   1      34.108  16.382   5.865  0.00  0.00     0.054 A 
HETATM   28  C   UNK N   1      33.299  17.311   5.217  0.00  0.00     0.091 A 
HETATM   29  N   UNK N   1      31.959  17.311   5.433  0.00  0.00    -0.361 N 
HETATM   30  C   UNK N   1      31.362  16.423   6.276  0.00  0.00     0.103 A 
ATOM     31  HN  UNK N   1      31.380  17.997   4.947  1.00  0.00     0.165 HD
HETATM   32  C   UNK N   1      32.153  15.479   6.943  0.00  0.00     0.072 A 
BRANCH  30  33
HETATM   33  C   UNK N   1      29.887  16.435   6.500  0.00  0.00     0.267 C 
HETATM   34  N   UNK N   1      29.291  17.152   7.490  0.00  0.00    -0.360 N 
HETATM   35  C   UNK N   1      29.991  17.982   8.438  0.00  0.00     0.149 C 
HETATM   36  H   UNK N   1      28.311  17.101   7.565  0.00  0.00     0.162 HD
HETATM   37  O   UNK N   1      29.177  15.772   5.758  0.00  0.00    -0.266 OA
ENDBRANCH  30  33
ENDBRANCH  25  26
ENDBRANCH   4  25
TORSDOF 6
ENDMDL
MODEL 7
REMARK VINA RESULT:      -8.0      4.983     11.131
REMARK  6 active torsions:
REMARK  status: ('A' for Active; 'I' for Inactive)
REMARK    1  A    between atoms: C_4  and  N_8 
REMARK    2  A    between atoms: C_6  and  C_31 
REMARK       I    between atoms: N_8  and  C_9 
REMARK       I    between atoms: C_9  and  N_10 
REMARK    3  A    between atoms: N_10  and  C_12 
REMARK    4  A    between atoms: C_15  and  O_18 
REMARK    5  A    between atoms: O_18  and  C_19 
REMARK    6  A    between atoms: C_24  and  C_26 
REMARK       I    between atoms: C_26  and  N_27 
ROOT
HETATM    1  C   UNK N   1      32.772  16.646   6.557  0.00  0.00     0.075 A 
HETATM    2  C   UNK N   1      32.967  15.405   7.173  0.00  0.00     0.145 A 
HETATM    3  C   UNK N   1      33.651  15.340   8.395  0.00  0.00     0.081 A 
HETATM    4  C   UNK N   1      34.156  16.508   9.004  0.00  0.00     0.079 A 
HETATM    5  C   UNK N   1      33.970  17.732   8.378  0.00  0.00     0.040 A 
HETATM    6  C   UNK N   1      33.295  17.799   7.172  0.00  0.00     0.035 A 
HETATM    7  F   UNK N   1      32.493  14.271   6.601  0.00  0.00    -0.204 F 
ENDROOT
BRANCH   1   8
HETATM    8  N   UNK N   1      32.110  16.755   5.294  0.00  0.00    -0.306 N 
HETATM    9  C   UNK N   1      30.753  16.737   5.229  0.00  0.00     0.325 C 
HETATM   10  N   UNK N   1      30.101  17.266   4.156  0.00  0.00    -0.309 N 
HETATM   11  O   UNK N   1      30.109  16.311   6.180  0.00  0.00    -0.247 OA
HETATM   12  H   UNK N   1      30.570  17.371   3.297  0.00  0.00     0.170 HD
HETATM   13  H   UNK N   1      32.639  16.843   4.470  0.00  0.00     0.171 HD
BRANCH  10  14
HETATM   14  C   UNK N   1      28.736  17.668   4.280  0.00  0.00     0.037 A 
HETATM   15  C   UNK N   1      27.695  16.913   3.740  0.00  0.00     0.031 A 
HETATM   16  C   UNK N   1      26.373  17.361   3.885  0.00  0.00     0.027 A 
HETATM   17  C   UNK N   1      26.083  18.569   4.547  0.00  0.00     0.049 A 
HETATM   18  C   UNK N   1      27.145  19.352   5.063  0.00  0.00     0.071 A 
HETATM   19 Cl   UNK N   1      24.397  19.042   4.688  0.00  0.00    -0.083 Cl
HETATM   20  C   UNK N   1      28.437  18.883   4.907  0.00  0.00     0.047 A 
BRANCH  18  21
HETATM   21  C   UNK N   1      27.009  20.675   5.787  0.00  0.00     0.419 C 
HETATM   22  F   UNK N   1      26.485  21.614   4.915  0.00  0.00    -0.166 F 
HETATM   23  F   UNK N   1      28.266  21.102   6.182  0.00  0.00    -0.166 F 
HETATM   24  F   UNK N   1      26.202  20.621   6.904  0.00  0.00    -0.166 F 
ENDBRANCH  18  21
ENDBRANCH  10  14
ENDBRANCH   1   8
BRANCH   4  25
HETATM   25  O   UNK N   1      34.830  16.505  10.183  0.00  0.00    -0.311 OA
BRANCH  25  26
HETATM   26  C   UNK N   1      35.579  15.520  10.737  0.00  0.00     0.079 A 
HETATM   27  C   UNK N   1      36.761  15.050  10.153  0.00  0.00     0.054 A 
HETATM   28  C   UNK N   1      37.485  14.040  10.779  0.00  0.00     0.091 A 
HETATM   29  N   UNK N   1      37.044  13.516  11.951  0.00  0.00    -0.361 N 
HETATM   30  C   UNK N   1      35.898  13.946  12.550  0.00  0.00     0.103 A 
ATOM     31  HN  UNK N   1      37.587  12.777  12.398  1.00  0.00     0.165 HD
HETATM   32  C   UNK N   1      35.149  14.960  11.940  0.00  0.00     0.072 A 
BRANCH  30  33
HETATM   33  C   UNK N   1      35.429  13.361  13.840  0.00  0.00     0.267 C 
HETATM   34  N   UNK N   1      35.957  13.702  15.046  0.00  0.00    -0.360 N 
HETATM   35  C   UNK N   1      37.020  14.657  15.237  0.00  0.00     0.149 C 
HETATM   36  H   UNK N   1      35.587  13.266  15.847  0.00  0.00     0.162 HD
HETATM   37  O   UNK N   1      34.525  12.539  13.816  0.00  0.00    -0.266 OA
ENDBRANCH  30  33
ENDBRANCH  25  26
ENDBRANCH   4  25
TORSDOF 6
ENDMDL
MODEL 8
REMARK VINA RESULT:      -8.0      1.441      2.100
REMARK  6 active torsions:
REMARK  status: ('A' for Active; 'I' for Inactive)
REMARK    1  A    between atoms: C_4  and  N_8 
REMARK    2  A    between atoms: C_6  and  C_31 
REMARK       I    between atoms: N_8  and  C_9 
REMARK       I    between atoms: C_9  and  N_10 
REMARK    3  A    between atoms: N_10  and  C_12 
REMARK    4  A    between atoms: C_15  and  O_18 
REMARK    5  A    between atoms: O_18  and  C_19 
REMARK    6  A    between atoms: C_24  and  C_26 
REMARK       I    between atoms: C_26  and  N_27 
ROOT
HETATM    1  C   UNK N   1      35.208  16.067   9.370  0.00  0.00     0.075 A 
HETATM    2  C   UNK N   1      34.916  15.004   8.510  0.00  0.00     0.145 A 
HETATM    3  C   UNK N   1      34.038  15.205   7.435  0.00  0.00     0.081 A 
HETATM    4  C   UNK N   1      33.436  16.463   7.219  0.00  0.00     0.079 A 
HETATM    5  C   UNK N   1      33.721  17.507   8.088  0.00  0.00     0.040 A 
HETATM    6  C   UNK N   1      34.588  17.311   9.148  0.00  0.00     0.035 A 
HETATM    7  F   UNK N   1      35.480  13.787   8.703  0.00  0.00    -0.204 F 
ENDROOT
BRANCH   1   8
HETATM    8  N   UNK N   1      36.070  15.896  10.498  0.00  0.00    -0.306 N 
HETATM    9  C   UNK N   1      35.619  15.269  11.616  0.00  0.00     0.325 C 
HETATM   10  N   UNK N   1      36.492  14.707  12.498  0.00  0.00    -0.309 N 
HETATM   11  O   UNK N   1      34.414  15.141  11.791  0.00  0.00    -0.247 OA
HETATM   12  H   UNK N   1      37.429  15.007  12.523  0.00  0.00     0.170 HD
HETATM   13  H   UNK N   1      36.994  16.234  10.464  0.00  0.00     0.171 HD
BRANCH  10  14
HETATM   14  C   UNK N   1      36.045  13.682  13.386  0.00  0.00     0.037 A 
HETATM   15  C   UNK N   1      36.174  13.799  14.769  0.00  0.00     0.031 A 
HETATM   16  C   UNK N   1      35.725  12.755  15.594  0.00  0.00     0.027 A 
HETATM   17  C   UNK N   1      35.165  11.585  15.045  0.00  0.00     0.049 A 
HETATM   18  C   UNK N   1      35.070  11.453  13.638  0.00  0.00     0.071 A 
HETATM   19 Cl   UNK N   1      34.622  10.339  16.157  0.00  0.00    -0.083 Cl
HETATM   20  C   UNK N   1      35.519  12.499  12.852  0.00  0.00     0.047 A 
BRANCH  18  21
HETATM   21  C   UNK N   1      34.509  10.263  12.890  0.00  0.00     0.419 C 
HETATM   22  F   UNK N   1      34.717  10.445  11.533  0.00  0.00    -0.166 F 
HETATM   23  F   UNK N   1      33.143  10.194  13.114  0.00  0.00    -0.166 F 
HETATM   24  F   UNK N   1      35.067   9.057  13.257  0.00  0.00    -0.166 F 
ENDBRANCH  18  21
ENDBRANCH  10  14
ENDBRANCH   1   8
BRANCH   4  25
HETATM   25  O   UNK N   1      32.575  16.715   6.200  0.00  0.00    -0.311 OA
BRANCH  25  26
HETATM   26  C   UNK N   1      31.231  16.540   6.152  0.00  0.00     0.079 A 
HETATM   27  C   UNK N   1      30.637  15.408   5.583  0.00  0.00     0.054 A 
HETATM   28  C   UNK N   1      29.251  15.289   5.573  0.00  0.00     0.091 A 
HETATM   29  N   UNK N   1      28.482  16.268   6.115  0.00  0.00    -0.361 N 
HETATM   30  C   UNK N   1      29.023  17.385   6.677  0.00  0.00     0.103 A 
ATOM     31  HN  UNK N   1      27.467  16.164   6.101  1.00  0.00     0.165 HD
HETATM   32  C   UNK N   1      30.415  17.531   6.699  0.00  0.00     0.072 A 
BRANCH  30  33
HETATM   33  C   UNK N   1      28.163  18.450   7.271  0.00  0.00     0.267 C 
HETATM   34  N   UNK N   1      27.796  18.464   8.580  0.00  0.00    -0.360 N 
HETATM   35  C   UNK N   1      28.181  17.472   9.552  0.00  0.00     0.149 C 
HETATM   36  H   UNK N   1      27.226  19.206   8.886  0.00  0.00     0.162 HD
HETATM   37  O   UNK N   1      27.771  19.356   6.550  0.00  0.00    -0.266 OA
ENDBRANCH  30  33
ENDBRANCH  25  26
ENDBRANCH   4  25
TORSDOF 6
ENDMDL
MODEL 9
REMARK VINA RESULT:      -7.9      2.714      3.432
REMARK  6 active torsions:
REMARK  status: ('A' for Active; 'I' for Inactive)
REMARK    1  A    between atoms: C_4  and  N_8 
REMARK    2  A    between atoms: C_6  and  C_31 
REMARK       I    between atoms: N_8  and  C_9 
REMARK       I    between atoms: C_9  and  N_10 
REMARK    3  A    between atoms: N_10  and  C_12 
REMARK    4  A    between atoms: C_15  and  O_18 
REMARK    5  A    between atoms: O_18  and  C_19 
REMARK    6  A    between atoms: C_24  and  C_26 
REMARK       I    between atoms: C_26  and  N_27 
ROOT
HETATM    1  C   UNK N   1      35.177  15.034   9.836  0.00  0.00     0.075 A 
HETATM    2  C   UNK N   1      34.704  16.346   9.720  0.00  0.00     0.145 A 
HETATM    3  C   UNK N   1      33.586  16.608   8.914  0.00  0.00     0.081 A 
HETATM    4  C   UNK N   1      32.943  15.569   8.210  0.00  0.00     0.079 A 
HETATM    5  C   UNK N   1      33.429  14.274   8.321  0.00  0.00     0.040 A 
HETATM    6  C   UNK N   1      34.531  14.012   9.116  0.00  0.00     0.035 A 
HETATM    7  F   UNK N   1      35.311  17.359  10.385  0.00  0.00    -0.204 F 
ENDROOT
BRANCH   1   8
HETATM    8  N   UNK N   1      36.333  14.728  10.620  0.00  0.00    -0.306 N 
HETATM    9  C   UNK N   1      36.196  14.279  11.895  0.00  0.00     0.325 C 
HETATM   10  N   UNK N   1      37.198  13.577  12.496  0.00  0.00    -0.309 N 
HETATM   11  O   UNK N   1      35.132  14.440  12.480  0.00  0.00    -0.247 OA
HETATM   12  H   UNK N   1      38.122  13.655  12.166  0.00  0.00     0.170 HD
HETATM   13  H   UNK N   1      37.231  14.842  10.234  0.00  0.00     0.171 HD
BRANCH  10  14
HETATM   14  C   UNK N   1      36.904  12.728  13.606  0.00  0.00     0.037 A 
HETATM   15  C   UNK N   1      37.142  11.355  13.565  0.00  0.00     0.031 A 
HETATM   16  C   UNK N   1      36.827  10.567  14.683  0.00  0.00     0.027 A 
HETATM   17  C   UNK N   1      36.255  11.138  15.837  0.00  0.00     0.049 A 
HETATM   18  C   UNK N   1      35.981  12.528  15.862  0.00  0.00     0.071 A 
HETATM   19 Cl   UNK N   1      35.904  10.074  17.189  0.00  0.00    -0.083 Cl
HETATM   20  C   UNK N   1      36.305  13.278  14.745  0.00  0.00     0.047 A 
BRANCH  18  21
HETATM   21  C   UNK N   1      35.361  13.294  17.011  0.00  0.00     0.419 C 
HETATM   22  F   UNK N   1      36.051  14.482  17.185  0.00  0.00    -0.166 F 
HETATM   23  F   UNK N   1      35.487  12.545  18.170  0.00  0.00    -0.166 F 
HETATM   24  F   UNK N   1      34.026  13.590  16.832  0.00  0.00    -0.166 F 
ENDBRANCH  18  21
ENDBRANCH  10  14
ENDBRANCH   1   8
BRANCH   4  25
HETATM   25  O   UNK N   1      31.862  15.764   7.411  0.00  0.00    -0.311 OA
BRANCH  25  26
HETATM   26  C   UNK N   1      31.784  16.406   6.220  0.00  0.00     0.079 A 
HETATM   27  C   UNK N   1      32.883  17.042   5.631  0.00  0.00     0.054 A 
HETATM   28  C   UNK N   1      32.734  17.678   4.402  0.00  0.00     0.091 A 
HETATM   29  N   UNK N   1      31.526  17.679   3.780  0.00  0.00    -0.361 N 
HETATM   30  C   UNK N   1      30.434  17.073   4.322  0.00  0.00     0.103 A 
ATOM     31  HN  UNK N   1      31.435  18.149   2.879  1.00  0.00     0.165 HD
HETATM   32  C   UNK N   1      30.555  16.427   5.559  0.00  0.00     0.072 A 
BRANCH  30  33
HETATM   33  C   UNK N   1      29.115  17.080   3.624  0.00  0.00     0.267 C 
HETATM   34  N   UNK N   1      28.161  18.023   3.849  0.00  0.00    -0.360 N 
HETATM   35  C   UNK N   1      28.293  19.122   4.772  0.00  0.00     0.149 C 
HETATM   36  H   UNK N   1      27.319  17.950   3.344  0.00  0.00     0.162 HD
HETATM   37  O   UNK N   1      28.879  16.200   2.810  0.00  0.00    -0.266 OA
ENDBRANCH  30  33
ENDBRANCH  25  26
ENDBRANCH   4  25
TORSDOF 6
ENDMDL
