REMARK  6 active torsions:
REMARK  status: ('A' for Active; 'I' for Inactive)
REMARK    1  A    between atoms: C_18  and  C_9 
REMARK    2  A    between atoms: N_25  and  C_9 
REMARK    3  A    between atoms: C_14  and  C_10 
REMARK    4  A    between atoms: O_26  and  C_10 
REMARK    5  A    between atoms: C_18  and  C_13 
REMARK    6  A    between atoms: O_26  and  C_18 
ROOT
HETATM    1  C   UNK N   1       2.063  -0.461  -0.510  0.00  0.00     0.174 C 
ENDROOT
BRANCH   1   2
HETATM    2  C   UNK N   1       1.701  -1.822  -1.145  0.00  0.00     0.166 C 
BRANCH   2   3
HETATM    3  N   UNK N   1       0.610  -2.546  -0.511  0.00  0.00    -0.349 N 
HETATM    4  C   UNK N   1       0.723  -3.673   0.210  0.00  0.00     0.108 A 
HETATM    5  C   UNK N   1      -0.554  -4.104   0.510  0.00  0.00     0.106 A 
HETATM    6  N   UNK N   1      -1.440  -3.250  -0.049  0.00  0.00    -0.361 N 
HETATM    7  C   UNK N   1      -0.703  -2.317  -0.678  0.00  0.00     0.182 A 
ATOM      8  HN  UNK N   1      -2.457  -3.302  -0.002  1.00  0.00     0.166 HD
ENDBRANCH   2   3
ENDBRANCH   1   2
BRANCH   1   9
HETATM    9  C   UNK N   1       0.946   0.455  -0.085  0.00  0.00    -0.006 A 
HETATM   10  C   UNK N   1       0.099   0.117   0.982  0.00  0.00     0.013 A 
HETATM   11  C   UNK N   1      -0.978   0.946   1.318  0.00  0.00     0.024 A 
HETATM   12  C   UNK N   1      -1.207   2.121   0.597  0.00  0.00     0.035 A 
HETATM   13  C   UNK N   1      -0.351   2.477  -0.446  0.00  0.00     0.048 A 
HETATM   14 Cl   UNK N   1      -2.576   3.142   0.984  0.00  0.00    -0.084 Cl
HETATM   15  C   UNK N   1       0.723   1.653  -0.790  0.00  0.00     0.044 A 
HETATM   16 Cl   UNK N   1       1.765   2.134  -2.120  0.00  0.00    -0.084 Cl
ENDBRANCH   1   9
BRANCH   1  17
HETATM   17  O   UNK N   1       3.173  -0.510   0.349  0.00  0.00    -0.375 OA
BRANCH  17  18
HETATM   18  C   UNK N   1       4.242  -0.514  -0.562  0.00  0.00     0.210 C 
BRANCH  18  19
HETATM   19  C   UNK N   1       5.536   0.046  -0.048  0.00  0.00     0.009 A 
HETATM   20  C   UNK N   1       5.651   1.392   0.361  0.00  0.00     0.044 A 
HETATM   21  C   UNK N   1       6.894   1.895   0.759  0.00  0.00     0.024 A 
HETATM   22 Cl   UNK N   1       4.272   2.478   0.364  0.00  0.00    -0.084 Cl
HETATM   23  C   UNK N   1       8.023   1.075   0.755  0.00  0.00     0.003 A 
HETATM   24  C   UNK N   1       7.916  -0.257   0.358  0.00  0.00     0.024 A 
HETATM   25  C   UNK N   1       6.682  -0.776  -0.043  0.00  0.00     0.044 A 
HETATM   26 Cl   UNK N   1       6.603  -2.456  -0.559  0.00  0.00    -0.084 Cl
ENDBRANCH  18  19
ENDBRANCH  17  18
ENDBRANCH   1  17
TORSDOF 6
