MODEL 1
REMARK VINA RESULT:      -6.8      0.000      0.000
REMARK  5 active torsions:
REMARK  status: ('A' for Active; 'I' for Inactive)
REMARK    1  A    between atoms: C_14  and  C_13 
REMARK    2  A    between atoms: N_22  and  C_13 
REMARK    3  A    between atoms: N_20  and  C_14 
REMARK    4  A    between atoms: S_26  and  C_15 
REMARK    5  A    between atoms: S_26  and  N_21 
ROOT
HETATM    1  C   UNK N   1      21.035  13.334  10.382  0.00  0.00     0.002 A 
HETATM    2  C   UNK N   1      22.276  12.721  10.270  0.00  0.00     0.002 A 
HETATM    3  C   UNK N   1      20.611  14.226   9.398  0.00  0.00     0.031 A 
HETATM    4  C   UNK N   1      23.083  12.996   9.169  0.00  0.00     0.021 A 
HETATM    5  C   UNK N   1      23.343  17.140   4.217  0.00  0.00     0.026 A 
HETATM    6  C   UNK N   1      23.809  16.053   4.943  0.00  0.00     0.023 A 
HETATM    7  C   UNK N   1      21.295  17.102   5.490  0.00  0.00     0.055 A 
HETATM    8  C   UNK N   1      22.087  17.669   4.483  0.00  0.00     0.076 A 
HETATM    9  C   UNK N   1      21.407  14.518   8.271  0.00  0.00     0.052 A 
HETATM   10  C   UNK N   1      21.756  15.992   6.248  0.00  0.00     0.053 A 
HETATM   11  C   UNK N   1      22.664  13.886   8.170  0.00  0.00     0.032 A 
HETATM   12  C   UNK N   1      23.040  15.482   5.961  0.00  0.00     0.032 A 
HETATM   13  N   UNK N   1      20.918  15.466   7.296  0.00  0.00    -0.343 N 
HETATM   14  S   UNK N   1      23.782  14.096   6.800  0.00  0.00    -0.086 SA
ENDROOT
BRANCH   8  15
HETATM   15  S   UNK N   1      21.587  19.176   3.644  0.00  0.00     0.243 S 
HETATM   16  O   UNK N   1      22.798  20.089   3.382  0.00  0.00    -0.206 OA
HETATM   17  O   UNK N   1      20.765  20.053   4.600  0.00  0.00    -0.206 OA
BRANCH  15  18
HETATM   18  N   UNK N   1      20.651  19.156   2.135  0.00  0.00    -0.215 NA
HETATM   19  C   UNK N   1      20.785  20.452   1.497  0.00  0.00     0.129 C 
HETATM   20  C   UNK N   1      19.243  18.989   2.466  0.00  0.00     0.129 C 
ENDBRANCH  15  18
ENDBRANCH   8  15
BRANCH  13  21
HETATM   21  C   UNK N   1      19.596  16.049   7.470  0.00  0.00     0.164 C 
BRANCH  21  22
HETATM   22  C   UNK N   1      19.454  16.818   8.796  0.00  0.00     0.236 C 
HETATM   23  C   UNK N   1      19.892  18.263   8.573  0.00  0.00     0.044 C 
BRANCH  22  24
HETATM   24  N   UNK N   1      18.058  16.780   9.258  0.00  0.00     0.085 N 
HETATM   25  C   UNK N   1      17.152  16.898   8.121  0.00  0.00     0.310 C 
HETATM   26  C   UNK N   1      17.804  17.952  10.080  0.00  0.00     0.310 C 
ENDBRANCH  22  24
ENDBRANCH  21  22
ENDBRANCH  13  21
TORSDOF 5
ENDMDL
MODEL 2
REMARK VINA RESULT:      -6.7      8.416     11.012
REMARK  5 active torsions:
REMARK  status: ('A' for Active; 'I' for Inactive)
REMARK    1  A    between atoms: C_14  and  C_13 
REMARK    2  A    between atoms: N_22  and  C_13 
REMARK    3  A    between atoms: N_20  and  C_14 
REMARK    4  A    between atoms: S_26  and  C_15 
REMARK    5  A    between atoms: S_26  and  N_21 
ROOT
HETATM    1  C   UNK N   1      26.694  20.529   4.214  0.00  0.00     0.002 A 
HETATM    2  C   UNK N   1      26.486  21.194   5.415  0.00  0.00     0.002 A 
HETATM    3  C   UNK N   1      27.465  19.368   4.189  0.00  0.00     0.031 A 
HETATM    4  C   UNK N   1      27.042  20.689   6.587  0.00  0.00     0.021 A 
HETATM    5  C   UNK N   1      31.309  16.198   8.429  0.00  0.00     0.026 A 
HETATM    6  C   UNK N   1      30.376  17.194   8.685  0.00  0.00     0.023 A 
HETATM    7  C   UNK N   1      30.599  16.137   6.125  0.00  0.00     0.055 A 
HETATM    8  C   UNK N   1      31.425  15.663   7.153  0.00  0.00     0.076 A 
HETATM    9  C   UNK N   1      28.035  18.832   5.362  0.00  0.00     0.052 A 
HETATM   10  C   UNK N   1      29.643  17.159   6.365  0.00  0.00     0.053 A 
HETATM   11  C   UNK N   1      27.813  19.518   6.575  0.00  0.00     0.032 A 
HETATM   12  C   UNK N   1      29.554  17.690   7.669  0.00  0.00     0.032 A 
HETATM   13  N   UNK N   1      28.840  17.636   5.267  0.00  0.00    -0.343 N 
HETATM   14  S   UNK N   1      28.413  18.969   8.159  0.00  0.00    -0.086 SA
ENDROOT
BRANCH   8  15
HETATM   15  S   UNK N   1      32.753  14.501   6.819  0.00  0.00     0.243 S 
HETATM   16  O   UNK N   1      32.512  13.756   5.493  0.00  0.00    -0.206 OA
HETATM   17  O   UNK N   1      32.687  13.337   7.820  0.00  0.00    -0.206 OA
BRANCH  15  18
HETATM   18  N   UNK N   1      34.460  14.988   6.807  0.00  0.00    -0.215 NA
HETATM   19  C   UNK N   1      34.902  15.136   8.182  0.00  0.00     0.129 C 
HETATM   20  C   UNK N   1      34.562  16.300   6.185  0.00  0.00     0.129 C 
ENDBRANCH  15  18
ENDBRANCH   8  15
BRANCH  13  21
HETATM   21  C   UNK N   1      28.993  16.982   3.975  0.00  0.00     0.164 C 
BRANCH  21  22
HETATM   22  C   UNK N   1      28.125  15.717   3.842  0.00  0.00     0.236 C 
HETATM   23  C   UNK N   1      26.934  16.034   2.940  0.00  0.00     0.044 C 
BRANCH  22  24
HETATM   24  N   UNK N   1      28.915  14.618   3.266  0.00  0.00     0.085 N 
HETATM   25  C   UNK N   1      28.363  14.229   1.973  0.00  0.00     0.310 C 
HETATM   26  C   UNK N   1      28.775  13.446   4.116  0.00  0.00     0.310 C 
ENDBRANCH  22  24
ENDBRANCH  21  22
ENDBRANCH  13  21
TORSDOF 5
ENDMDL
MODEL 3
REMARK VINA RESULT:      -6.6     14.808     17.204
REMARK  5 active torsions:
REMARK  status: ('A' for Active; 'I' for Inactive)
REMARK    1  A    between atoms: C_14  and  C_13 
REMARK    2  A    between atoms: N_22  and  C_13 
REMARK    3  A    between atoms: N_20  and  C_14 
REMARK    4  A    between atoms: S_26  and  C_15 
REMARK    5  A    between atoms: S_26  and  N_21 
ROOT
HETATM    1  C   UNK N   1      25.782  26.135  -7.562  0.00  0.00     0.002 A 
HETATM    2  C   UNK N   1      25.198  26.706  -6.439  0.00  0.00     0.002 A 
HETATM    3  C   UNK N   1      26.766  25.159  -7.411  0.00  0.00     0.031 A 
HETATM    4  C   UNK N   1      25.595  26.293  -5.171  0.00  0.00     0.021 A 
HETATM    5  C   UNK N   1      30.235  22.731  -2.423  0.00  0.00     0.026 A 
HETATM    6  C   UNK N   1      29.083  23.504  -2.380  0.00  0.00     0.023 A 
HETATM    7  C   UNK N   1      30.040  22.591  -4.824  0.00  0.00     0.055 A 
HETATM    8  C   UNK N   1      30.718  22.268  -3.640  0.00  0.00     0.076 A 
HETATM    9  C   UNK N   1      27.183  24.719  -6.137  0.00  0.00     0.052 A 
HETATM   10  C   UNK N   1      28.863  23.386  -4.801  0.00  0.00     0.053 A 
HETATM   11  C   UNK N   1      26.579  25.308  -5.007  0.00  0.00     0.032 A 
HETATM   12  C   UNK N   1      28.401  23.848  -3.551  0.00  0.00     0.032 A 
HETATM   13  N   UNK N   1      28.221  23.719  -6.047  0.00  0.00    -0.343 N 
HETATM   14  S   UNK N   1      26.943  24.848  -3.325  0.00  0.00    -0.086 SA
ENDROOT
BRANCH   8  15
HETATM   15  S   UNK N   1      32.299  21.416  -3.676  0.00  0.00     0.243 S 
HETATM   16  O   UNK N   1      32.867  21.248  -2.255  0.00  0.00    -0.206 OA
HETATM   17  O   UNK N   1      33.363  22.325  -4.308  0.00  0.00    -0.206 OA
BRANCH  15  18
HETATM   18  N   UNK N   1      32.512  19.847  -4.480  0.00  0.00    -0.215 NA
HETATM   19  C   UNK N   1      33.811  19.317  -4.108  0.00  0.00     0.129 C 
HETATM   20  C   UNK N   1      32.538  20.064  -5.919  0.00  0.00     0.129 C 
ENDBRANCH  15  18
ENDBRANCH   8  15
BRANCH  13  21
HETATM   21  C   UNK N   1      28.768  23.148  -7.270  0.00  0.00     0.164 C 
BRANCH  21  22
HETATM   22  C   UNK N   1      28.297  21.703  -7.516  0.00  0.00     0.236 C 
HETATM   23  C   UNK N   1      27.033  21.740  -8.371  0.00  0.00     0.044 C 
BRANCH  22  24
HETATM   24  N   UNK N   1      29.348  20.936  -8.202  0.00  0.00     0.085 N 
HETATM   25  C   UNK N   1      29.071  20.876  -9.633  0.00  0.00     0.310 C 
HETATM   26  C   UNK N   1      29.300  19.558  -7.739  0.00  0.00     0.310 C 
ENDBRANCH  22  24
ENDBRANCH  21  22
ENDBRANCH  13  21
TORSDOF 5
ENDMDL
MODEL 4
REMARK VINA RESULT:      -6.5     12.495     14.886
REMARK  5 active torsions:
REMARK  status: ('A' for Active; 'I' for Inactive)
REMARK    1  A    between atoms: C_14  and  C_13 
REMARK    2  A    between atoms: N_22  and  C_13 
REMARK    3  A    between atoms: N_20  and  C_14 
REMARK    4  A    between atoms: S_26  and  C_15 
REMARK    5  A    between atoms: S_26  and  N_21 
ROOT
HETATM    1  C   UNK N   1      34.468   9.874  13.095  0.00  0.00     0.002 A 
HETATM    2  C   UNK N   1      34.853  10.511  14.267  0.00  0.00     0.002 A 
HETATM    3  C   UNK N   1      34.465  10.578  11.891  0.00  0.00     0.031 A 
HETATM    4  C   UNK N   1      35.242  11.848  14.228  0.00  0.00     0.021 A 
HETATM    5  C   UNK N   1      35.189  16.833  10.117  0.00  0.00     0.026 A 
HETATM    6  C   UNK N   1      35.501  16.237  11.331  0.00  0.00     0.023 A 
HETATM    7  C   UNK N   1      34.665  14.666   9.197  0.00  0.00     0.055 A 
HETATM    8  C   UNK N   1      34.773  16.055   9.045  0.00  0.00     0.076 A 
HETATM    9  C   UNK N   1      34.859  11.931  11.824  0.00  0.00     0.052 A 
HETATM   10  C   UNK N   1      34.974  14.038  10.433  0.00  0.00     0.053 A 
HETATM   11  C   UNK N   1      35.249  12.564  13.023  0.00  0.00     0.032 A 
HETATM   12  C   UNK N   1      35.386  14.855  11.507  0.00  0.00     0.032 A 
HETATM   13  N   UNK N   1      34.814  12.610  10.550  0.00  0.00    -0.343 N 
HETATM   14  S   UNK N   1      35.819  14.247  13.125  0.00  0.00    -0.086 SA
ENDROOT
BRANCH   8  15
HETATM   15  S   UNK N   1      34.218  16.872   7.545  0.00  0.00     0.243 S 
HETATM   16  O   UNK N   1      34.931  16.297   6.308  0.00  0.00    -0.206 OA
HETATM   17  O   UNK N   1      34.728  18.321   7.525  0.00  0.00    -0.206 OA
BRANCH  15  18
HETATM   18  N   UNK N   1      32.500  16.994   7.112  0.00  0.00    -0.215 NA
HETATM   19  C   UNK N   1      31.773  17.491   8.265  0.00  0.00     0.129 C 
HETATM   20  C   UNK N   1      31.997  15.657   6.836  0.00  0.00     0.129 C 
ENDBRANCH  15  18
ENDBRANCH   8  15
BRANCH  13  21
HETATM   21  C   UNK N   1      34.423  11.868   9.360  0.00  0.00     0.164 C 
BRANCH  21  22
HETATM   22  C   UNK N   1      35.611  11.165   8.678  0.00  0.00     0.236 C 
HETATM   23  C   UNK N   1      35.202   9.736   8.333  0.00  0.00     0.044 C 
BRANCH  22  24
HETATM   24  N   UNK N   1      35.995  11.889   7.457  0.00  0.00     0.085 N 
HETATM   25  C   UNK N   1      36.133  10.955   6.345  0.00  0.00     0.310 C 
HETATM   26  C   UNK N   1      37.318  12.463   7.648  0.00  0.00     0.310 C 
ENDBRANCH  22  24
ENDBRANCH  21  22
ENDBRANCH  13  21
TORSDOF 5
ENDMDL
MODEL 5
REMARK VINA RESULT:      -6.3     13.652     16.039
REMARK  5 active torsions:
REMARK  status: ('A' for Active; 'I' for Inactive)
REMARK    1  A    between atoms: C_14  and  C_13 
REMARK    2  A    between atoms: N_22  and  C_13 
REMARK    3  A    between atoms: N_20  and  C_14 
REMARK    4  A    between atoms: S_26  and  C_15 
REMARK    5  A    between atoms: S_26  and  N_21 
ROOT
HETATM    1  C   UNK N   1      37.010  10.424  13.397  0.00  0.00     0.002 A 
HETATM    2  C   UNK N   1      36.903  11.219  14.531  0.00  0.00     0.002 A 
HETATM    3  C   UNK N   1      36.857  10.994  12.134  0.00  0.00     0.031 A 
HETATM    4  C   UNK N   1      36.653  12.582  14.396  0.00  0.00     0.021 A 
HETATM    5  C   UNK N   1      34.937  16.802   9.812  0.00  0.00     0.026 A 
HETATM    6  C   UNK N   1      35.313  16.469  11.107  0.00  0.00     0.023 A 
HETATM    7  C   UNK N   1      35.572  14.596   9.070  0.00  0.00     0.055 A 
HETATM    8  C   UNK N   1      35.066  15.873   8.789  0.00  0.00     0.076 A 
HETATM    9  C   UNK N   1      36.607  12.373  11.969  0.00  0.00     0.052 A 
HETATM   10  C   UNK N   1      35.956  14.235  10.389  0.00  0.00     0.053 A 
HETATM   11  C   UNK N   1      36.504  13.167  13.131  0.00  0.00     0.032 A 
HETATM   12  C   UNK N   1      35.806  15.197  11.410  0.00  0.00     0.032 A 
HETATM   13  N   UNK N   1      36.439  12.899  10.634  0.00  0.00    -0.343 N 
HETATM   14  S   UNK N   1      36.239  14.928  13.118  0.00  0.00    -0.086 SA
ENDROOT
BRANCH   8  15
HETATM   15  S   UNK N   1      34.415  16.278   7.165  0.00  0.00     0.243 S 
HETATM   16  O   UNK N   1      35.313  15.705   6.053  0.00  0.00    -0.206 OA
HETATM   17  O   UNK N   1      34.563  17.785   6.908  0.00  0.00    -0.206 OA
BRANCH  15  18
HETATM   18  N   UNK N   1      32.746  15.902   6.691  0.00  0.00    -0.215 NA
HETATM   19  C   UNK N   1      31.911  17.044   7.019  0.00  0.00     0.129 C 
HETATM   20  C   UNK N   1      32.275  14.787   7.499  0.00  0.00     0.129 C 
ENDBRANCH  15  18
ENDBRANCH   8  15
BRANCH  13  21
HETATM   21  C   UNK N   1      36.589  12.008   9.493  0.00  0.00     0.164 C 
BRANCH  21  22
HETATM   22  C   UNK N   1      38.039  11.938   8.978  0.00  0.00     0.236 C 
HETATM   23  C   UNK N   1      38.464  10.474   8.911  0.00  0.00     0.044 C 
BRANCH  22  24
HETATM   24  N   UNK N   1      38.134  12.553   7.646  0.00  0.00     0.085 N 
HETATM   25  C   UNK N   1      38.845  11.663   6.734  0.00  0.00     0.310 C 
HETATM   26  C   UNK N   1      38.956  13.750   7.739  0.00  0.00     0.310 C 
ENDBRANCH  22  24
ENDBRANCH  21  22
ENDBRANCH  13  21
TORSDOF 5
ENDMDL
MODEL 6
REMARK VINA RESULT:      -6.3     14.650     16.751
REMARK  5 active torsions:
REMARK  status: ('A' for Active; 'I' for Inactive)
REMARK    1  A    between atoms: C_14  and  C_13 
REMARK    2  A    between atoms: N_22  and  C_13 
REMARK    3  A    between atoms: N_20  and  C_14 
REMARK    4  A    between atoms: S_26  and  C_15 
REMARK    5  A    between atoms: S_26  and  N_21 
ROOT
HETATM    1  C   UNK N   1      31.593  19.646  -8.730  0.00  0.00     0.002 A 
HETATM    2  C   UNK N   1      30.639  19.226  -9.647  0.00  0.00     0.002 A 
HETATM    3  C   UNK N   1      31.232  20.521  -7.706  0.00  0.00     0.031 A 
HETATM    4  C   UNK N   1      29.326  19.676  -9.530  0.00  0.00     0.021 A 
HETATM    5  C   UNK N   1      25.949  24.086  -6.228  0.00  0.00     0.026 A 
HETATM    6  C   UNK N   1      26.060  23.037  -7.131  0.00  0.00     0.023 A 
HETATM    7  C   UNK N   1      28.211  23.681  -5.493  0.00  0.00     0.055 A 
HETATM    8  C   UNK N   1      27.018  24.412  -5.404  0.00  0.00     0.076 A 
HETATM    9  C   UNK N   1      29.909  20.988  -7.563  0.00  0.00     0.052 A 
HETATM   10  C   UNK N   1      28.346  22.609  -6.415  0.00  0.00     0.053 A 
HETATM   11  C   UNK N   1      28.951  20.550  -8.501  0.00  0.00     0.032 A 
HETATM   12  C   UNK N   1      27.246  22.306  -7.245  0.00  0.00     0.032 A 
HETATM   13  N   UNK N   1      29.603  21.909  -6.492  0.00  0.00    -0.343 N 
HETATM   14  S   UNK N   1      27.228  20.996  -8.453  0.00  0.00    -0.086 SA
ENDROOT
BRANCH   8  15
HETATM   15  S   UNK N   1      26.900  25.876  -4.371  0.00  0.00     0.243 S 
HETATM   16  O   UNK N   1      28.298  26.421  -4.026  0.00  0.00    -0.206 OA
HETATM   17  O   UNK N   1      26.390  25.486  -2.975  0.00  0.00    -0.206 OA
BRANCH  15  18
HETATM   18  N   UNK N   1      25.921  27.284  -4.829  0.00  0.00    -0.215 NA
HETATM   19  C   UNK N   1      26.684  28.083  -5.771  0.00  0.00     0.129 C 
HETATM   20  C   UNK N   1      25.711  28.107  -3.647  0.00  0.00     0.129 C 
ENDBRANCH  15  18
ENDBRANCH   8  15
BRANCH  13  21
HETATM   21  C   UNK N   1      30.652  22.285  -5.555  0.00  0.00     0.164 C 
BRANCH  21  22
HETATM   22  C   UNK N   1      30.508  21.590  -4.189  0.00  0.00     0.236 C 
HETATM   23  C   UNK N   1      31.383  20.340  -4.181  0.00  0.00     0.044 C 
BRANCH  22  24
HETATM   24  N   UNK N   1      30.919  22.501  -3.110  0.00  0.00     0.085 N 
HETATM   25  C   UNK N   1      29.769  22.850  -2.285  0.00  0.00     0.310 C 
HETATM   26  C   UNK N   1      31.368  23.753  -3.700  0.00  0.00     0.310 C 
ENDBRANCH  22  24
ENDBRANCH  21  22
ENDBRANCH  13  21
TORSDOF 5
ENDMDL
MODEL 7
REMARK VINA RESULT:      -6.3     14.745     16.679
REMARK  5 active torsions:
REMARK  status: ('A' for Active; 'I' for Inactive)
REMARK    1  A    between atoms: C_14  and  C_13 
REMARK    2  A    between atoms: N_22  and  C_13 
REMARK    3  A    between atoms: N_20  and  C_14 
REMARK    4  A    between atoms: S_26  and  C_15 
REMARK    5  A    between atoms: S_26  and  N_21 
ROOT
HETATM    1  C   UNK N   1      33.901  21.827  -4.823  0.00  0.00     0.002 A 
HETATM    2  C   UNK N   1      34.182  20.649  -5.503  0.00  0.00     0.002 A 
HETATM    3  C   UNK N   1      32.619  22.371  -4.878  0.00  0.00     0.031 A 
HETATM    4  C   UNK N   1      33.175  20.016  -6.226  0.00  0.00     0.021 A 
HETATM    5  C   UNK N   1      27.168  21.191  -8.299  0.00  0.00     0.026 A 
HETATM    6  C   UNK N   1      28.286  20.382  -8.147  0.00  0.00     0.023 A 
HETATM    7  C   UNK N   1      28.082  22.741  -6.692  0.00  0.00     0.055 A 
HETATM    8  C   UNK N   1      27.057  22.370  -7.574  0.00  0.00     0.076 A 
HETATM    9  C   UNK N   1      31.580  21.746  -5.600  0.00  0.00     0.052 A 
HETATM   10  C   UNK N   1      29.236  21.930  -6.527  0.00  0.00     0.053 A 
HETATM   11  C   UNK N   1      31.880  20.549  -6.283  0.00  0.00     0.032 A 
HETATM   12  C   UNK N   1      29.325  20.742  -7.284  0.00  0.00     0.032 A 
HETATM   13  N   UNK N   1      30.278  22.371  -5.634  0.00  0.00    -0.343 N 
HETATM   14  S   UNK N   1      30.690  19.599  -7.205  0.00  0.00    -0.086 SA
ENDROOT
BRANCH   8  15
HETATM   15  S   UNK N   1      25.683  23.473  -7.919  0.00  0.00     0.243 S 
HETATM   16  O   UNK N   1      25.193  24.162  -6.632  0.00  0.00    -0.206 OA
HETATM   17  O   UNK N   1      24.441  22.652  -8.297  0.00  0.00    -0.206 OA
BRANCH  15  18
HETATM   18  N   UNK N   1      25.774  24.745  -9.154  0.00  0.00    -0.215 NA
HETATM   19  C   UNK N   1      26.121  24.127 -10.421  0.00  0.00     0.129 C 
HETATM   20  C   UNK N   1      26.863  25.648  -8.810  0.00  0.00     0.129 C 
ENDBRANCH  15  18
ENDBRANCH   8  15
BRANCH  13  21
HETATM   21  C   UNK N   1      30.054  23.594  -4.876  0.00  0.00     0.164 C 
BRANCH  21  22
HETATM   22  C   UNK N   1      29.145  23.378  -3.652  0.00  0.00     0.236 C 
HETATM   23  C   UNK N   1      30.020  23.058  -2.443  0.00  0.00     0.044 C 
BRANCH  22  24
HETATM   24  N   UNK N   1      28.348  24.587  -3.393  0.00  0.00     0.085 N 
HETATM   25  C   UNK N   1      26.926  24.278  -3.490  0.00  0.00     0.310 C 
HETATM   26  C   UNK N   1      28.608  25.555  -4.447  0.00  0.00     0.310 C 
ENDBRANCH  22  24
ENDBRANCH  21  22
ENDBRANCH  13  21
TORSDOF 5
ENDMDL
MODEL 8
REMARK VINA RESULT:      -6.2     15.330     17.042
REMARK  5 active torsions:
REMARK  status: ('A' for Active; 'I' for Inactive)
REMARK    1  A    between atoms: C_14  and  C_13 
REMARK    2  A    between atoms: N_22  and  C_13 
REMARK    3  A    between atoms: N_20  and  C_14 
REMARK    4  A    between atoms: S_26  and  C_15 
REMARK    5  A    between atoms: S_26  and  N_21 
ROOT
HETATM    1  C   UNK N   1      25.420  27.544  -5.441  0.00  0.00     0.002 A 
HETATM    2  C   UNK N   1      25.570  27.674  -4.067  0.00  0.00     0.002 A 
HETATM    3  C   UNK N   1      26.008  26.468  -6.104  0.00  0.00     0.031 A 
HETATM    4  C   UNK N   1      26.301  26.723  -3.361  0.00  0.00     0.021 A 
HETATM    5  C   UNK N   1      30.246  21.739  -4.528  0.00  0.00     0.026 A 
HETATM    6  C   UNK N   1      29.530  22.577  -3.682  0.00  0.00     0.023 A 
HETATM    7  C   UNK N   1      29.043  22.634  -6.418  0.00  0.00     0.055 A 
HETATM    8  C   UNK N   1      30.007  21.760  -5.895  0.00  0.00     0.076 A 
HETATM    9  C   UNK N   1      26.748  25.487  -5.411  0.00  0.00     0.052 A 
HETATM   10  C   UNK N   1      28.305  23.502  -5.570  0.00  0.00     0.053 A 
HETATM   11  C   UNK N   1      26.890  25.633  -4.015  0.00  0.00     0.032 A 
HETATM   12  C   UNK N   1      28.576  23.465  -4.186  0.00  0.00     0.032 A 
HETATM   13  N   UNK N   1      27.349  24.406  -6.158  0.00  0.00    -0.343 N 
HETATM   14  S   UNK N   1      27.748  24.473  -2.971  0.00  0.00    -0.086 SA
ENDROOT
BRANCH   8  15
HETATM   15  S   UNK N   1      31.065  20.790  -6.974  0.00  0.00     0.243 S 
HETATM   16  O   UNK N   1      32.079  19.968  -6.158  0.00  0.00    -0.206 OA
HETATM   17  O   UNK N   1      32.006  21.721  -7.752  0.00  0.00    -0.206 OA
BRANCH  15  18
HETATM   18  N   UNK N   1      30.410  19.686  -8.201  0.00  0.00    -0.215 NA
HETATM   19  C   UNK N   1      30.070  20.462  -9.379  0.00  0.00     0.129 C 
HETATM   20  C   UNK N   1      29.171  19.114  -7.696  0.00  0.00     0.129 C 
ENDBRANCH  15  18
ENDBRANCH   8  15
BRANCH  13  21
HETATM   21  C   UNK N   1      27.127  24.323  -7.595  0.00  0.00     0.164 C 
BRANCH  21  22
HETATM   22  C   UNK N   1      25.784  23.660  -7.952  0.00  0.00     0.236 C 
HETATM   23  C   UNK N   1      25.282  24.249  -9.268  0.00  0.00     0.044 C 
BRANCH  22  24
HETATM   24  N   UNK N   1      25.956  22.205  -8.084  0.00  0.00     0.085 N 
HETATM   25  C   UNK N   1      25.984  21.831  -9.494  0.00  0.00     0.310 C 
HETATM   26  C   UNK N   1      24.785  21.543  -7.531  0.00  0.00     0.310 C 
ENDBRANCH  22  24
ENDBRANCH  21  22
ENDBRANCH  13  21
TORSDOF 5
ENDMDL
MODEL 9
REMARK VINA RESULT:      -6.1     12.971     15.465
REMARK  5 active torsions:
REMARK  status: ('A' for Active; 'I' for Inactive)
REMARK    1  A    between atoms: C_14  and  C_13 
REMARK    2  A    between atoms: N_22  and  C_13 
REMARK    3  A    between atoms: N_20  and  C_14 
REMARK    4  A    between atoms: S_26  and  C_15 
REMARK    5  A    between atoms: S_26  and  N_21 
ROOT
HETATM    1  C   UNK N   1      34.637  10.062  16.102  0.00  0.00     0.002 A 
HETATM    2  C   UNK N   1      35.284  10.928  16.975  0.00  0.00     0.002 A 
HETATM    3  C   UNK N   1      34.506  10.405  14.757  0.00  0.00     0.031 A 
HETATM    4  C   UNK N   1      35.803  12.128  16.497  0.00  0.00     0.021 A 
HETATM    5  C   UNK N   1      35.593  15.756  11.153  0.00  0.00     0.026 A 
HETATM    6  C   UNK N   1      36.040  15.472  12.437  0.00  0.00     0.023 A 
HETATM    7  C   UNK N   1      34.688  13.527  10.984  0.00  0.00     0.055 A 
HETATM    8  C   UNK N   1      34.919  14.789  10.421  0.00  0.00     0.076 A 
HETATM    9  C   UNK N   1      35.027  11.612  14.246  0.00  0.00     0.052 A 
HETATM   10  C   UNK N   1      35.132  13.219  12.298  0.00  0.00     0.053 A 
HETATM   11  C   UNK N   1      35.682  12.479  15.146  0.00  0.00     0.032 A 
HETATM   12  C   UNK N   1      35.807  14.225  13.022  0.00  0.00     0.032 A 
HETATM   13  N   UNK N   1      34.841  11.918  12.847  0.00  0.00    -0.343 N 
HETATM   14  S   UNK N   1      36.441  14.020  14.675  0.00  0.00    -0.086 SA
ENDROOT
BRANCH   8  15
HETATM   15  S   UNK N   1      34.208  15.243   8.835  0.00  0.00     0.243 S 
HETATM   16  O   UNK N   1      33.330  14.107   8.279  0.00  0.00    -0.206 OA
HETATM   17  O   UNK N   1      35.313  15.302   7.770  0.00  0.00    -0.206 OA
BRANCH  15  18
HETATM   18  N   UNK N   1      33.280  16.739   8.605  0.00  0.00    -0.215 NA
HETATM   19  C   UNK N   1      32.318  16.520   7.540  0.00  0.00     0.129 C 
HETATM   20  C   UNK N   1      34.188  17.781   8.148  0.00  0.00     0.129 C 
ENDBRANCH  15  18
ENDBRANCH   8  15
BRANCH  13  21
HETATM   21  C   UNK N   1      34.174  10.950  11.988  0.00  0.00     0.164 C 
BRANCH  21  22
HETATM   22  C   UNK N   1      35.151  10.205  11.060  0.00  0.00     0.236 C 
HETATM   23  C   UNK N   1      35.561   8.896  11.729  0.00  0.00     0.044 C 
BRANCH  22  24
HETATM   24  N   UNK N   1      34.510   9.931   9.764  0.00  0.00     0.085 N 
HETATM   25  C   UNK N   1      35.153  10.710   8.713  0.00  0.00     0.310 C 
HETATM   26  C   UNK N   1      33.135  10.404   9.813  0.00  0.00     0.310 C 
ENDBRANCH  22  24
ENDBRANCH  21  22
ENDBRANCH  13  21
TORSDOF 5
ENDMDL
