MODEL 1
REMARK VINA RESULT:      -5.9      0.000      0.000
REMARK  18 active torsions:
REMARK  status: ('A' for Active; 'I' for Inactive)
REMARK    1  A    between atoms: C_7  and  C_2 
REMARK    2  A    between atoms: O_27  and  C_2 
REMARK    3  A    between atoms: C_7  and  C_3 
REMARK    4  A    between atoms: O_28  and  C_3 
REMARK    5  A    between atoms: C_8  and  C_4 
REMARK    6  A    between atoms: O_29  and  C_4 
REMARK    7  A    between atoms: C_8  and  C_5 
REMARK    8  A    between atoms: O_30  and  C_5 
REMARK    9  A    between atoms: C_15  and  C_6 
REMARK   10  A    between atoms: C_6  and  O_31 
REMARK   11  A    between atoms: N_21  and  C_7 
REMARK   12  A    between atoms: N_23  and  C_8 
REMARK   13  A    between atoms: C_16  and  C_9 
REMARK   14  A    between atoms: C_17  and  C_10 
REMARK   15  A    between atoms: N_25  and  C_14 
REMARK   16  A    between atoms: O_32  and  C_15 
REMARK   17  A    between atoms: O_33  and  C_16 
REMARK   18  A    between atoms: O_34  and  C_17 
ROOT
HETATM    1  C   UNK N   1      23.135  15.072   6.263  0.00  0.00     0.051 A 
HETATM    2  C   UNK N   1      22.598  17.309   5.309  0.00  0.00     0.051 A 
HETATM    3  C   UNK N   1      22.195  16.121   6.026  0.00  0.00     0.038 A 
HETATM    4  C   UNK N   1      24.468  15.205   5.812  0.00  0.00     0.050 A 
HETATM    5  C   UNK N   1      23.971  17.429   4.923  0.00  0.00     0.050 A 
HETATM    6  C   UNK N   1      24.885  16.395   5.186  0.00  0.00     0.069 A 
HETATM    7  I   UNK N   1      20.155  15.787   6.690  0.00  0.00    -0.042 I 
HETATM    8  I   UNK N   1      25.909  13.617   6.072  0.00  0.00    -0.041 I 
HETATM    9  I   UNK N   1      24.820  19.136   3.908  0.00  0.00    -0.041 I 
ENDROOT
BRANCH   1  10
HETATM   10  C   UNK N   1      22.716  13.824   6.981  0.00  0.00     0.149 C 
HETATM   11  N   UNK N   1      22.845  13.738   8.267  0.00  0.00    -0.361 N 
ATOM     12  HN  UNK N   1      23.259  14.533   8.753  1.00  0.00     0.162 HD
BRANCH  11  13
HETATM   13  C   UNK N   1      22.442  12.593   9.071  0.00  0.00     0.130 C 
BRANCH  13  14
HETATM   14  C   UNK N   1      21.360  12.926  10.095  0.00  0.00     0.191 C 
BRANCH  14  15
HETATM   15  O   UNK N   1      21.354  11.982  11.120  0.00  0.00    -0.399 OA
HETATM   16  H   UNK N   1      21.789  11.815  11.971  0.00  0.00     0.209 HD
ENDBRANCH  14  15
ENDBRANCH  13  14
BRANCH  13  17
HETATM   17  C   UNK N   1      23.640  11.945   9.745  0.00  0.00     0.191 C 
BRANCH  17  18
HETATM   18  O   UNK N   1      24.185  12.825  10.679  0.00  0.00    -0.399 OA
HETATM   19  H   UNK N   1      24.450  13.734  10.467  0.00  0.00     0.209 HD
ENDBRANCH  17  18
ENDBRANCH  13  17
ENDBRANCH  11  13
BRANCH  10  20
HETATM   20  O   UNK N   1      22.211  12.785   6.283  0.00  0.00    -0.346 OA
HETATM   21  H   UNK N   1      21.501  12.504   5.741  0.00  0.00     0.219 HD
ENDBRANCH  10  20
ENDBRANCH   1  10
BRANCH   2  22
HETATM   22  C   UNK N   1      21.597  18.394   4.921  0.00  0.00     0.149 C 
HETATM   23  N   UNK N   1      21.188  18.515   3.707  0.00  0.00    -0.361 N 
ATOM     24  HN  UNK N   1      21.501  17.818   3.031  1.00  0.00     0.162 HD
BRANCH  23  25
HETATM   25  C   UNK N   1      20.314  19.571   3.231  0.00  0.00     0.130 C 
BRANCH  25  26
HETATM   26  C   UNK N   1      19.046  19.015   2.598  0.00  0.00     0.191 C 
BRANCH  26  27
HETATM   27  O   UNK N   1      19.348  17.945   1.757  0.00  0.00    -0.399 OA
HETATM   28  H   UNK N   1      19.320  17.033   2.084  0.00  0.00     0.209 HD
ENDBRANCH  26  27
ENDBRANCH  25  26
BRANCH  25  29
HETATM   29  C   UNK N   1      21.051  20.380   2.178  0.00  0.00     0.191 C 
BRANCH  29  30
HETATM   30  O   UNK N   1      21.545  21.559   2.735  0.00  0.00    -0.399 OA
HETATM   31  H   UNK N   1      21.389  22.497   2.929  0.00  0.00     0.209 HD
ENDBRANCH  29  30
ENDBRANCH  25  29
ENDBRANCH  23  25
BRANCH  22  32
HETATM   32  O   UNK N   1      21.190  19.302   5.825  0.00  0.00    -0.346 OA
HETATM   33  H   UNK N   1      21.094  19.072   6.729  0.00  0.00     0.219 HD
ENDBRANCH  22  32
ENDBRANCH   2  22
BRANCH   6  34
HETATM   34  N   UNK N   1      26.239  16.562   4.768  0.00  0.00    -0.336 N 
HETATM   35  C   UNK N   1      27.190  16.984   5.540  0.00  0.00     0.145 C 
ATOM     36  HN  UNK N   1      26.473  16.335   3.803  1.00  0.00     0.168 HD
BRANCH  35  37
HETATM   37  C   UNK N   1      28.590  17.071   4.998  0.00  0.00     0.188 C 
HETATM   38  C   UNK N   1      29.592  17.452   6.075  0.00  0.00     0.048 C 
BRANCH  37  39
HETATM   39  O   UNK N   1      28.637  18.019   3.975  0.00  0.00    -0.388 OA
HETATM   40  H   UNK N   1      28.204  18.880   4.085  0.00  0.00     0.210 HD
ENDBRANCH  37  39
ENDBRANCH  35  37
BRANCH  35  41
HETATM   41  O   UNK N   1      26.929  17.354   6.815  0.00  0.00    -0.347 OA
HETATM   42  H   UNK N   1      27.035  17.915   7.558  0.00  0.00     0.219 HD
ENDBRANCH  35  41
ENDBRANCH   6  34
TORSDOF 18
ENDMDL
MODEL 2
REMARK VINA RESULT:      -5.9      0.910      7.029
REMARK  18 active torsions:
REMARK  status: ('A' for Active; 'I' for Inactive)
REMARK    1  A    between atoms: C_7  and  C_2 
REMARK    2  A    between atoms: O_27  and  C_2 
REMARK    3  A    between atoms: C_7  and  C_3 
REMARK    4  A    between atoms: O_28  and  C_3 
REMARK    5  A    between atoms: C_8  and  C_4 
REMARK    6  A    between atoms: O_29  and  C_4 
REMARK    7  A    between atoms: C_8  and  C_5 
REMARK    8  A    between atoms: O_30  and  C_5 
REMARK    9  A    between atoms: C_15  and  C_6 
REMARK   10  A    between atoms: C_6  and  O_31 
REMARK   11  A    between atoms: N_21  and  C_7 
REMARK   12  A    between atoms: N_23  and  C_8 
REMARK   13  A    between atoms: C_16  and  C_9 
REMARK   14  A    between atoms: C_17  and  C_10 
REMARK   15  A    between atoms: N_25  and  C_14 
REMARK   16  A    between atoms: O_32  and  C_15 
REMARK   17  A    between atoms: O_33  and  C_16 
REMARK   18  A    between atoms: O_34  and  C_17 
ROOT
HETATM    1  C   UNK N   1      22.730  17.643   4.730  0.00  0.00     0.051 A 
HETATM    2  C   UNK N   1      23.322  15.459   5.770  0.00  0.00     0.051 A 
HETATM    3  C   UNK N   1      22.331  16.432   5.374  0.00  0.00     0.038 A 
HETATM    4  C   UNK N   1      24.097  17.880   4.461  0.00  0.00     0.050 A 
HETATM    5  C   UNK N   1      24.688  15.711   5.425  0.00  0.00     0.050 A 
HETATM    6  C   UNK N   1      25.057  16.898   4.770  0.00  0.00     0.069 A 
HETATM    7  I   UNK N   1      20.217  16.197   5.813  0.00  0.00    -0.042 I 
HETATM    8  I   UNK N   1      24.764  19.728   3.563  0.00  0.00    -0.041 I 
HETATM    9  I   UNK N   1      26.332  14.375   5.846  0.00  0.00    -0.041 I 
ENDROOT
BRANCH   1  10
HETATM   10  C   UNK N   1      21.708  18.670   4.343  0.00  0.00     0.149 C 
HETATM   11  N   UNK N   1      21.319  18.770   3.112  0.00  0.00    -0.361 N 
ATOM     12  HN  UNK N   1      21.750  18.147   2.430  1.00  0.00     0.162 HD
BRANCH  11  13
HETATM   13  C   UNK N   1      20.312  19.704   2.629  0.00  0.00     0.130 C 
BRANCH  13  14
HETATM   14  C   UNK N   1      18.953  19.054   2.387  0.00  0.00     0.191 C 
BRANCH  14  15
HETATM   15  O   UNK N   1      19.110  17.812   1.774  0.00  0.00    -0.399 OA
HETATM   16  H   UNK N   1      19.109  16.870   2.005  0.00  0.00     0.209 HD
ENDBRANCH  14  15
ENDBRANCH  13  14
BRANCH  13  17
HETATM   17  C   UNK N   1      20.789  20.433   1.383  0.00  0.00     0.191 C 
BRANCH  17  18
HETATM   18  O   UNK N   1      20.576  19.633   0.261  0.00  0.00    -0.399 OA
HETATM   19  H   UNK N   1      21.141  18.880   0.025  0.00  0.00     0.209 HD
ENDBRANCH  17  18
ENDBRANCH  13  17
ENDBRANCH  11  13
BRANCH  10  20
HETATM   20  O   UNK N   1      21.199  19.497   5.281  0.00  0.00    -0.346 OA
HETATM   21  H   UNK N   1      21.343  20.291   5.757  0.00  0.00     0.219 HD
ENDBRANCH  10  20
ENDBRANCH   1  10
BRANCH   2  22
HETATM   22  C   UNK N   1      22.955  14.215   6.574  0.00  0.00     0.149 C 
HETATM   23  N   UNK N   1      22.998  14.221   7.860  0.00  0.00    -0.361 N 
ATOM     24  HN  UNK N   1      23.217  15.104   8.323  1.00  0.00     0.162 HD
BRANCH  23  25
HETATM   25  C   UNK N   1      22.757  13.062   8.701  0.00  0.00     0.130 C 
BRANCH  25  26
HETATM   26  C   UNK N   1      21.898  13.407   9.910  0.00  0.00     0.191 C 
BRANCH  26  27
HETATM   27  O   UNK N   1      21.487  12.246  10.564  0.00  0.00    -0.399 OA
HETATM   28  H   UNK N   1      21.141  12.282  11.469  0.00  0.00     0.209 HD
ENDBRANCH  26  27
ENDBRANCH  25  26
BRANCH  25  29
HETATM   29  C   UNK N   1      24.090  12.537   9.205  0.00  0.00     0.191 C 
BRANCH  29  30
HETATM   30  O   UNK N   1      24.337  13.008  10.494  0.00  0.00    -0.399 OA
HETATM   31  H   UNK N   1      24.431  13.780  11.075  0.00  0.00     0.209 HD
ENDBRANCH  29  30
ENDBRANCH  25  29
ENDBRANCH  23  25
BRANCH  22  32
HETATM   32  O   UNK N   1      22.662  13.060   5.952  0.00  0.00    -0.346 OA
HETATM   33  H   UNK N   1      21.903  12.986   5.408  0.00  0.00     0.219 HD
ENDBRANCH  22  32
ENDBRANCH   2  22
BRANCH   6  34
HETATM   34  N   UNK N   1      26.435  17.104   4.461  0.00  0.00    -0.336 N 
HETATM   35  C   UNK N   1      27.276  17.694   5.249  0.00  0.00     0.145 C 
ATOM     36  HN  UNK N   1      26.779  16.767   3.563  1.00  0.00     0.168 HD
BRANCH  35  37
HETATM   37  C   UNK N   1      28.716  17.808   4.833  0.00  0.00     0.188 C 
HETATM   38  C   UNK N   1      29.664  17.494   5.978  0.00  0.00     0.048 C 
BRANCH  37  39
HETATM   39  O   UNK N   1      28.969  19.101   4.374  0.00  0.00    -0.388 OA
HETATM   40  H   UNK N   1      29.537  19.700   4.885  0.00  0.00     0.210 HD
ENDBRANCH  37  39
ENDBRANCH  35  37
BRANCH  35  41
HETATM   41  O   UNK N   1      26.865  18.213   6.430  0.00  0.00    -0.347 OA
HETATM   42  H   UNK N   1      26.206  18.515   7.023  0.00  0.00     0.219 HD
ENDBRANCH  35  41
ENDBRANCH   6  34
TORSDOF 18
ENDMDL
MODEL 3
REMARK VINA RESULT:      -5.8      1.437      5.706
REMARK  18 active torsions:
REMARK  status: ('A' for Active; 'I' for Inactive)
REMARK    1  A    between atoms: C_7  and  C_2 
REMARK    2  A    between atoms: O_27  and  C_2 
REMARK    3  A    between atoms: C_7  and  C_3 
REMARK    4  A    between atoms: O_28  and  C_3 
REMARK    5  A    between atoms: C_8  and  C_4 
REMARK    6  A    between atoms: O_29  and  C_4 
REMARK    7  A    between atoms: C_8  and  C_5 
REMARK    8  A    between atoms: O_30  and  C_5 
REMARK    9  A    between atoms: C_15  and  C_6 
REMARK   10  A    between atoms: C_6  and  O_31 
REMARK   11  A    between atoms: N_21  and  C_7 
REMARK   12  A    between atoms: N_23  and  C_8 
REMARK   13  A    between atoms: C_16  and  C_9 
REMARK   14  A    between atoms: C_17  and  C_10 
REMARK   15  A    between atoms: N_25  and  C_14 
REMARK   16  A    between atoms: O_32  and  C_15 
REMARK   17  A    between atoms: O_33  and  C_16 
REMARK   18  A    between atoms: O_34  and  C_17 
ROOT
HETATM    1  C   UNK N   1      22.866  15.456   5.895  0.00  0.00     0.051 A 
HETATM    2  C   UNK N   1      24.852  16.811   5.247  0.00  0.00     0.051 A 
HETATM    3  C   UNK N   1      24.275  15.687   5.946  0.00  0.00     0.038 A 
HETATM    4  C   UNK N   1      22.038  16.320   5.142  0.00  0.00     0.050 A 
HETATM    5  C   UNK N   1      23.987  17.625   4.449  0.00  0.00     0.050 A 
HETATM    6  C   UNK N   1      22.607  17.367   4.393  0.00  0.00     0.069 A 
HETATM    7  I   UNK N   1      25.449  14.352   7.193  0.00  0.00    -0.042 I 
HETATM    8  I   UNK N   1      19.893  16.065   5.095  0.00  0.00    -0.041 I 
HETATM    9  I   UNK N   1      24.629  19.311   3.262  0.00  0.00    -0.041 I 
ENDROOT
BRANCH   1  10
HETATM   10  C   UNK N   1      22.256  14.308   6.642  0.00  0.00     0.149 C 
HETATM   11  N   UNK N   1      21.952  14.434   7.895  0.00  0.00    -0.361 N 
ATOM     12  HN  UNK N   1      22.165  15.325   8.344  1.00  0.00     0.162 HD
BRANCH  11  13
HETATM   13  C   UNK N   1      21.327  13.403   8.710  0.00  0.00     0.130 C 
BRANCH  13  14
HETATM   14  C   UNK N   1      20.353  13.959   9.745  0.00  0.00     0.191 C 
BRANCH  14  15
HETATM   15  O   UNK N   1      19.909  12.944  10.590  0.00  0.00    -0.399 OA
HETATM   16  H   UNK N   1      20.108  12.018  10.798  0.00  0.00     0.209 HD
ENDBRANCH  14  15
ENDBRANCH  13  14
BRANCH  13  17
HETATM   17  C   UNK N   1      22.369  12.518   9.373  0.00  0.00     0.191 C 
BRANCH  17  18
HETATM   18  O   UNK N   1      22.880  13.159  10.501  0.00  0.00    -0.399 OA
HETATM   19  H   UNK N   1      22.332  13.661  11.125  0.00  0.00     0.209 HD
ENDBRANCH  17  18
ENDBRANCH  13  17
ENDBRANCH  11  13
BRANCH  10  20
HETATM   20  O   UNK N   1      22.032  13.137   6.009  0.00  0.00    -0.346 OA
HETATM   21  H   UNK N   1      21.627  12.296   6.081  0.00  0.00     0.219 HD
ENDBRANCH  10  20
ENDBRANCH   1  10
BRANCH   2  22
HETATM   22  C   UNK N   1      26.330  17.171   5.380  0.00  0.00     0.149 C 
HETATM   23  N   UNK N   1      26.730  18.012   6.268  0.00  0.00    -0.361 N 
ATOM     24  HN  UNK N   1      26.037  18.375   6.923  1.00  0.00     0.162 HD
BRANCH  23  25
HETATM   25  C   UNK N   1      28.097  18.481   6.404  0.00  0.00     0.130 C 
BRANCH  25  26
HETATM   26  C   UNK N   1      28.462  18.749   7.858  0.00  0.00     0.191 C 
BRANCH  26  27
HETATM   27  O   UNK N   1      27.339  19.155   8.577  0.00  0.00    -0.399 OA
HETATM   28  H   UNK N   1      26.454  19.112   8.183  0.00  0.00     0.209 HD
ENDBRANCH  26  27
ENDBRANCH  25  26
BRANCH  25  29
HETATM   29  C   UNK N   1      28.248  19.782   5.633  0.00  0.00     0.191 C 
BRANCH  29  30
HETATM   30  O   UNK N   1      28.564  19.517   4.301  0.00  0.00    -0.399 OA
HETATM   31  H   UNK N   1      28.316  19.622   3.368  0.00  0.00     0.209 HD
ENDBRANCH  29  30
ENDBRANCH  25  29
ENDBRANCH  23  25
BRANCH  22  32
HETATM   32  O   UNK N   1      27.233  16.680   4.513  0.00  0.00    -0.346 OA
HETATM   33  H   UNK N   1      27.853  17.245   4.094  0.00  0.00     0.219 HD
ENDBRANCH  22  32
ENDBRANCH   2  22
BRANCH   6  34
HETATM   34  N   UNK N   1      21.788  18.216   3.591  0.00  0.00    -0.336 N 
HETATM   35  C   UNK N   1      21.131  19.234   4.048  0.00  0.00     0.145 C 
ATOM     36  HN  UNK N   1      21.715  18.009   2.596  1.00  0.00     0.168 HD
BRANCH  35  37
HETATM   37  C   UNK N   1      20.340  20.085   3.093  0.00  0.00     0.188 C 
HETATM   38  C   UNK N   1      20.398  19.547   1.673  0.00  0.00     0.048 C 
BRANCH  37  39
HETATM   39  O   UNK N   1      20.838  21.389   3.107  0.00  0.00    -0.388 OA
HETATM   40  H   UNK N   1      20.237  22.144   3.007  0.00  0.00     0.210 HD
ENDBRANCH  37  39
ENDBRANCH  35  37
BRANCH  35  41
HETATM   41  O   UNK N   1      21.144  19.526   5.369  0.00  0.00    -0.347 OA
HETATM   42  H   UNK N   1      21.551  19.550   6.213  0.00  0.00     0.219 HD
ENDBRANCH  35  41
ENDBRANCH   6  34
TORSDOF 18
ENDMDL
MODEL 4
REMARK VINA RESULT:      -5.6      1.581      7.864
REMARK  18 active torsions:
REMARK  status: ('A' for Active; 'I' for Inactive)
REMARK    1  A    between atoms: C_7  and  C_2 
REMARK    2  A    between atoms: O_27  and  C_2 
REMARK    3  A    between atoms: C_7  and  C_3 
REMARK    4  A    between atoms: O_28  and  C_3 
REMARK    5  A    between atoms: C_8  and  C_4 
REMARK    6  A    between atoms: O_29  and  C_4 
REMARK    7  A    between atoms: C_8  and  C_5 
REMARK    8  A    between atoms: O_30  and  C_5 
REMARK    9  A    between atoms: C_15  and  C_6 
REMARK   10  A    between atoms: C_6  and  O_31 
REMARK   11  A    between atoms: N_21  and  C_7 
REMARK   12  A    between atoms: N_23  and  C_8 
REMARK   13  A    between atoms: C_16  and  C_9 
REMARK   14  A    between atoms: C_17  and  C_10 
REMARK   15  A    between atoms: N_25  and  C_14 
REMARK   16  A    between atoms: O_32  and  C_15 
REMARK   17  A    between atoms: O_33  and  C_16 
REMARK   18  A    between atoms: O_34  and  C_17 
ROOT
HETATM    1  C   UNK N   1      22.463  17.502   4.764  0.00  0.00     0.051 A 
HETATM    2  C   UNK N   1      24.704  16.727   5.524  0.00  0.00     0.051 A 
HETATM    3  C   UNK N   1      23.874  17.701   4.855  0.00  0.00     0.038 A 
HETATM    4  C   UNK N   1      21.875  16.357   5.348  0.00  0.00     0.050 A 
HETATM    5  C   UNK N   1      24.062  15.613   6.153  0.00  0.00     0.050 A 
HETATM    6  C   UNK N   1      22.669  15.447   6.072  0.00  0.00     0.069 A 
HETATM    7  I   UNK N   1      24.690  19.450   3.858  0.00  0.00    -0.042 I 
HETATM    8  I   UNK N   1      19.758  15.964   5.172  0.00  0.00    -0.041 I 
HETATM    9  I   UNK N   1      25.082  14.071   7.269  0.00  0.00    -0.041 I 
ENDROOT
BRANCH   1  10
HETATM   10  C   UNK N   1      21.600  18.495   4.045  0.00  0.00     0.149 C 
HETATM   11  N   UNK N   1      21.387  18.373   2.773  0.00  0.00    -0.361 N 
ATOM     12  HN  UNK N   1      21.846  17.599   2.292  1.00  0.00     0.162 HD
BRANCH  11  13
HETATM   13  C   UNK N   1      20.543  19.254   1.980  0.00  0.00     0.130 C 
BRANCH  13  14
HETATM   14  C   UNK N   1      21.243  20.543   1.559  0.00  0.00     0.191 C 
BRANCH  14  15
HETATM   15  O   UNK N   1      21.240  21.462   2.607  0.00  0.00    -0.399 OA
HETATM   16  H   UNK N   1      21.614  22.329   2.828  0.00  0.00     0.209 HD
ENDBRANCH  14  15
ENDBRANCH  13  14
BRANCH  13  17
HETATM   17  C   UNK N   1      19.238  19.559   2.697  0.00  0.00     0.191 C 
BRANCH  17  18
HETATM   18  O   UNK N   1      18.273  18.620   2.336  0.00  0.00    -0.399 OA
HETATM   19  H   UNK N   1      17.532  18.815   1.741  0.00  0.00     0.209 HD
ENDBRANCH  17  18
ENDBRANCH  13  17
ENDBRANCH  11  13
BRANCH  10  20
HETATM   20  O   UNK N   1      21.049  19.523   4.725  0.00  0.00    -0.346 OA
HETATM   21  H   UNK N   1      20.919  19.892   5.576  0.00  0.00     0.219 HD
ENDBRANCH  10  20
ENDBRANCH   1  10
BRANCH   2  22
HETATM   22  C   UNK N   1      26.227  16.834   5.532  0.00  0.00     0.149 C 
HETATM   23  N   UNK N   1      26.834  17.592   6.376  0.00  0.00    -0.361 N 
ATOM     24  HN  UNK N   1      26.268  18.062   7.083  1.00  0.00     0.162 HD
BRANCH  23  25
HETATM   25  C   UNK N   1      28.266  17.826   6.395  0.00  0.00     0.130 C 
BRANCH  25  26
HETATM   26  C   UNK N   1      28.734  18.376   7.735  0.00  0.00     0.191 C 
BRANCH  26  27
HETATM   27  O   UNK N   1      27.645  18.801   8.495  0.00  0.00    -0.399 OA
HETATM   28  H   UNK N   1      26.768  18.901   8.094  0.00  0.00     0.209 HD
ENDBRANCH  26  27
ENDBRANCH  25  26
BRANCH  25  29
HETATM   29  C   UNK N   1      28.611  18.845   5.322  0.00  0.00     0.191 C 
BRANCH  29  30
HETATM   30  O   UNK N   1      29.193  18.210   4.224  0.00  0.00    -0.399 OA
HETATM   31  H   UNK N   1      29.070  17.617   3.466  0.00  0.00     0.209 HD
ENDBRANCH  29  30
ENDBRANCH  25  29
ENDBRANCH  23  25
BRANCH  22  32
HETATM   32  O   UNK N   1      26.960  16.204   4.598  0.00  0.00    -0.346 OA
HETATM   33  H   UNK N   1      27.270  15.330   4.737  0.00  0.00     0.219 HD
ENDBRANCH  22  32
ENDBRANCH   2  22
BRANCH   6  34
HETATM   34  N   UNK N   1      22.081  14.313   6.707  0.00  0.00    -0.336 N 
HETATM   35  C   UNK N   1      21.516  14.345   7.872  0.00  0.00     0.145 C 
ATOM     36  HN  UNK N   1      22.106  13.422   6.214  1.00  0.00     0.168 HD
BRANCH  35  37
HETATM   37  C   UNK N   1      20.886  13.093   8.416  0.00  0.00     0.188 C 
HETATM   38  C   UNK N   1      21.513  12.670   9.734  0.00  0.00     0.048 C 
BRANCH  37  39
HETATM   39  O   UNK N   1      21.029  12.058   7.491  0.00  0.00    -0.388 OA
HETATM   40  H   UNK N   1      21.727  12.094   6.819  0.00  0.00     0.210 HD
ENDBRANCH  37  39
ENDBRANCH  35  37
BRANCH  35  41
HETATM   41  O   UNK N   1      21.501  15.486   8.599  0.00  0.00    -0.347 OA
HETATM   42  H   UNK N   1      21.391  15.965   9.397  0.00  0.00     0.219 HD
ENDBRANCH  35  41
ENDBRANCH   6  34
TORSDOF 18
ENDMDL
MODEL 5
REMARK VINA RESULT:      -5.6      6.233     10.593
REMARK  18 active torsions:
REMARK  status: ('A' for Active; 'I' for Inactive)
REMARK    1  A    between atoms: C_7  and  C_2 
REMARK    2  A    between atoms: O_27  and  C_2 
REMARK    3  A    between atoms: C_7  and  C_3 
REMARK    4  A    between atoms: O_28  and  C_3 
REMARK    5  A    between atoms: C_8  and  C_4 
REMARK    6  A    between atoms: O_29  and  C_4 
REMARK    7  A    between atoms: C_8  and  C_5 
REMARK    8  A    between atoms: O_30  and  C_5 
REMARK    9  A    between atoms: C_15  and  C_6 
REMARK   10  A    between atoms: C_6  and  O_31 
REMARK   11  A    between atoms: N_21  and  C_7 
REMARK   12  A    between atoms: N_23  and  C_8 
REMARK   13  A    between atoms: C_16  and  C_9 
REMARK   14  A    between atoms: C_17  and  C_10 
REMARK   15  A    between atoms: N_25  and  C_14 
REMARK   16  A    between atoms: O_32  and  C_15 
REMARK   17  A    between atoms: O_33  and  C_16 
REMARK   18  A    between atoms: O_34  and  C_17 
ROOT
HETATM    1  C   UNK N   1      29.418  16.756   6.597  0.00  0.00     0.051 A 
HETATM    2  C   UNK N   1      31.285  15.800   7.938  0.00  0.00     0.051 A 
HETATM    3  C   UNK N   1      30.108  16.631   7.841  0.00  0.00     0.038 A 
HETATM    4  C   UNK N   1      29.877  16.048   5.462  0.00  0.00     0.050 A 
HETATM    5  C   UNK N   1      31.681  15.055   6.782  0.00  0.00     0.050 A 
HETATM    6  C   UNK N   1      30.975  15.174   5.573  0.00  0.00     0.069 A 
HETATM    7  I   UNK N   1      29.369  17.818   9.503  0.00  0.00    -0.042 I 
HETATM    8  I   UNK N   1      28.920  16.263   3.538  0.00  0.00    -0.041 I 
HETATM    9  I   UNK N   1      33.359  13.697   6.706  0.00  0.00    -0.041 I 
ENDROOT
BRANCH   1  10
HETATM   10  C   UNK N   1      28.212  17.640   6.482  0.00  0.00     0.149 C 
HETATM   11  N   UNK N   1      28.343  18.878   6.125  0.00  0.00    -0.361 N 
ATOM     12  HN  UNK N   1      29.289  19.220   5.954  1.00  0.00     0.162 HD
BRANCH  11  13
HETATM   13  C   UNK N   1      27.245  19.816   5.948  0.00  0.00     0.130 C 
BRANCH  13  14
HETATM   14  C   UNK N   1      27.232  20.477   4.572  0.00  0.00     0.191 C 
BRANCH  14  15
HETATM   15  O   UNK N   1      27.996  19.738   3.670  0.00  0.00    -0.399 OA
HETATM   16  H   UNK N   1      27.942  19.398   2.764  0.00  0.00     0.209 HD
ENDBRANCH  14  15
ENDBRANCH  13  14
BRANCH  13  17
HETATM   17  C   UNK N   1      27.234  20.864   7.048  0.00  0.00     0.191 C 
BRANCH  17  18
HETATM   18  O   UNK N   1      26.138  20.654   7.885  0.00  0.00    -0.399 OA
HETATM   19  H   UNK N   1      25.435  20.013   7.695  0.00  0.00     0.209 HD
ENDBRANCH  17  18
ENDBRANCH  13  17
ENDBRANCH  11  13
BRANCH  10  20
HETATM   20  O   UNK N   1      26.987  17.145   6.759  0.00  0.00    -0.346 OA
HETATM   21  H   UNK N   1      26.248  16.692   6.402  0.00  0.00     0.219 HD
ENDBRANCH  10  20
ENDBRANCH   1  10
BRANCH   2  22
HETATM   22  C   UNK N   1      32.127  15.740   9.210  0.00  0.00     0.149 C 
HETATM   23  N   UNK N   1      33.337  16.177   9.226  0.00  0.00    -0.361 N 
ATOM     24  HN  UNK N   1      33.688  16.629   8.381  1.00  0.00     0.162 HD
BRANCH  23  25
HETATM   25  C   UNK N   1      34.238  16.076  10.359  0.00  0.00     0.130 C 
BRANCH  25  26
HETATM   26  C   UNK N   1      35.494  16.913  10.162  0.00  0.00     0.191 C 
BRANCH  26  27
HETATM   27  O   UNK N   1      36.580  16.323  10.808  0.00  0.00    -0.399 OA
HETATM   28  H   UNK N   1      37.475  16.397  10.444  0.00  0.00     0.209 HD
ENDBRANCH  26  27
ENDBRANCH  25  26
BRANCH  25  29
HETATM   29  C   UNK N   1      34.658  14.625  10.523  0.00  0.00     0.191 C 
BRANCH  29  30
HETATM   30  O   UNK N   1      34.254  14.144  11.768  0.00  0.00    -0.399 OA
HETATM   31  H   UNK N   1      34.498  13.961  12.689  0.00  0.00     0.209 HD
ENDBRANCH  29  30
ENDBRANCH  25  29
ENDBRANCH  23  25
BRANCH  22  32
HETATM   32  O   UNK N   1      31.649  15.148  10.319  0.00  0.00    -0.346 OA
HETATM   33  H   UNK N   1      31.107  15.620  10.921  0.00  0.00     0.219 HD
ENDBRANCH  22  32
ENDBRANCH   2  22
BRANCH   6  34
HETATM   34  N   UNK N   1      31.420  14.418   4.448  0.00  0.00    -0.336 N 
HETATM   35  C   UNK N   1      30.937  13.264   4.113  0.00  0.00     0.145 C 
ATOM     36  HN  UNK N   1      32.163  14.810   3.872  1.00  0.00     0.168 HD
BRANCH  35  37
HETATM   37  C   UNK N   1      31.453  12.586   2.874  0.00  0.00     0.188 C 
HETATM   38  C   UNK N   1      32.789  13.158   2.429  0.00  0.00     0.048 C 
BRANCH  37  39
HETATM   39  O   UNK N   1      30.528  12.733   1.840  0.00  0.00    -0.388 OA
HETATM   40  H   UNK N   1      30.157  13.605   1.635  0.00  0.00     0.210 HD
ENDBRANCH  37  39
ENDBRANCH  35  37
BRANCH  35  41
HETATM   41  O   UNK N   1      29.988  12.668   4.871  0.00  0.00    -0.347 OA
HETATM   42  H   UNK N   1      29.671  12.300   5.672  0.00  0.00     0.219 HD
ENDBRANCH  35  41
ENDBRANCH   6  34
TORSDOF 18
ENDMDL
MODEL 6
REMARK VINA RESULT:      -5.6      6.205      8.766
REMARK  18 active torsions:
REMARK  status: ('A' for Active; 'I' for Inactive)
REMARK    1  A    between atoms: C_7  and  C_2 
REMARK    2  A    between atoms: O_27  and  C_2 
REMARK    3  A    between atoms: C_7  and  C_3 
REMARK    4  A    between atoms: O_28  and  C_3 
REMARK    5  A    between atoms: C_8  and  C_4 
REMARK    6  A    between atoms: O_29  and  C_4 
REMARK    7  A    between atoms: C_8  and  C_5 
REMARK    8  A    between atoms: O_30  and  C_5 
REMARK    9  A    between atoms: C_15  and  C_6 
REMARK   10  A    between atoms: C_6  and  O_31 
REMARK   11  A    between atoms: N_21  and  C_7 
REMARK   12  A    between atoms: N_23  and  C_8 
REMARK   13  A    between atoms: C_16  and  C_9 
REMARK   14  A    between atoms: C_17  and  C_10 
REMARK   15  A    between atoms: N_25  and  C_14 
REMARK   16  A    between atoms: O_32  and  C_15 
REMARK   17  A    between atoms: O_33  and  C_16 
REMARK   18  A    between atoms: O_34  and  C_17 
ROOT
HETATM    1  C   UNK N   1      31.408  15.825   7.828  0.00  0.00     0.051 A 
HETATM    2  C   UNK N   1      29.558  16.795   6.472  0.00  0.00     0.051 A 
HETATM    3  C   UNK N   1      30.304  16.723   7.706  0.00  0.00     0.038 A 
HETATM    4  C   UNK N   1      31.783  15.018   6.729  0.00  0.00     0.050 A 
HETATM    5  C   UNK N   1      30.008  16.005   5.366  0.00  0.00     0.050 A 
HETATM    6  C   UNK N   1      31.110  15.144   5.499  0.00  0.00     0.069 A 
HETATM    7  I   UNK N   1      29.760  17.862   9.473  0.00  0.00    -0.042 I 
HETATM    8  I   UNK N   1      33.391  13.584   6.883  0.00  0.00    -0.041 I 
HETATM    9  I   UNK N   1      29.100  15.998   3.406  0.00  0.00    -0.041 I 
ENDROOT
BRANCH   1  10
HETATM   10  C   UNK N   1      32.168  15.725   9.116  0.00  0.00     0.149 C 
HETATM   11  N   UNK N   1      33.405  16.103   9.174  0.00  0.00    -0.361 N 
ATOM     12  HN  UNK N   1      33.835  16.441   8.312  1.00  0.00     0.162 HD
BRANCH  11  13
HETATM   13  C   UNK N   1      34.229  16.083  10.373  0.00  0.00     0.130 C 
BRANCH  13  14
HETATM   14  C   UNK N   1      35.414  17.043  10.307  0.00  0.00     0.191 C 
BRANCH  14  15
HETATM   15  O   UNK N   1      36.567  16.427  10.791  0.00  0.00    -0.399 OA
HETATM   16  H   UNK N   1      37.523  16.583  10.835  0.00  0.00     0.209 HD
ENDBRANCH  14  15
ENDBRANCH  13  14
BRANCH  13  17
HETATM   17  C   UNK N   1      34.696  14.674  10.698  0.00  0.00     0.191 C 
BRANCH  17  18
HETATM   18  O   UNK N   1      33.953  14.168  11.764  0.00  0.00    -0.399 OA
HETATM   19  H   UNK N   1      34.029  13.254  12.083  0.00  0.00     0.209 HD
ENDBRANCH  17  18
ENDBRANCH  13  17
ENDBRANCH  11  13
BRANCH  10  20
HETATM   20  O   UNK N   1      31.562  15.231  10.217  0.00  0.00    -0.346 OA
HETATM   21  H   UNK N   1      31.329  15.413  11.106  0.00  0.00     0.219 HD
ENDBRANCH  10  20
ENDBRANCH   1  10
BRANCH   2  22
HETATM   22  C   UNK N   1      28.296  17.643   6.341  0.00  0.00     0.149 C 
HETATM   23  N   UNK N   1      28.350  18.849   5.897  0.00  0.00    -0.361 N 
ATOM     24  HN  UNK N   1      29.254  19.193   5.570  1.00  0.00     0.162 HD
BRANCH  23  25
HETATM   25  C   UNK N   1      27.220  19.756   5.827  0.00  0.00     0.130 C 
BRANCH  25  26
HETATM   26  C   UNK N   1      26.863  20.109   4.389  0.00  0.00     0.191 C 
BRANCH  26  27
HETATM   27  O   UNK N   1      27.924  19.809   3.535  0.00  0.00    -0.399 OA
HETATM   28  H   UNK N   1      28.813  20.157   3.706  0.00  0.00     0.209 HD
ENDBRANCH  26  27
ENDBRANCH  25  26
BRANCH  25  29
HETATM   29  C   UNK N   1      27.577  21.042   6.553  0.00  0.00     0.191 C 
BRANCH  29  30
HETATM   30  O   UNK N   1      26.487  21.913   6.553  0.00  0.00    -0.399 OA
HETATM   31  H   UNK N   1      25.994  22.602   6.079  0.00  0.00     0.209 HD
ENDBRANCH  29  30
ENDBRANCH  25  29
ENDBRANCH  23  25
BRANCH  22  32
HETATM   32  O   UNK N   1      27.111  17.175   6.769  0.00  0.00    -0.346 OA
HETATM   33  H   UNK N   1      26.648  17.601   7.464  0.00  0.00     0.219 HD
ENDBRANCH  22  32
ENDBRANCH   2  22
BRANCH   6  34
HETATM   34  N   UNK N   1      31.509  14.370   4.369  0.00  0.00    -0.336 N 
HETATM   35  C   UNK N   1      32.473  14.697   3.569  0.00  0.00     0.145 C 
ATOM     36  HN  UNK N   1      31.005  13.505   4.180  1.00  0.00     0.168 HD
BRANCH  35  37
HETATM   37  C   UNK N   1      32.834  13.773   2.439  0.00  0.00     0.188 C 
HETATM   38  C   UNK N   1      33.079  12.354   2.924  0.00  0.00     0.048 C 
BRANCH  37  39
HETATM   39  O   UNK N   1      33.984  14.241   1.801  0.00  0.00    -0.388 OA
HETATM   40  H   UNK N   1      34.816  13.748   1.869  0.00  0.00     0.210 HD
ENDBRANCH  37  39
ENDBRANCH  35  37
BRANCH  35  41
HETATM   41  O   UNK N   1      33.142  15.861   3.737  0.00  0.00    -0.347 OA
HETATM   42  H   UNK N   1      33.654  16.581   3.424  0.00  0.00     0.219 HD
ENDBRANCH  35  41
ENDBRANCH   6  34
TORSDOF 18
ENDMDL
MODEL 7
REMARK VINA RESULT:      -5.5      5.938      9.432
REMARK  18 active torsions:
REMARK  status: ('A' for Active; 'I' for Inactive)
REMARK    1  A    between atoms: C_7  and  C_2 
REMARK    2  A    between atoms: O_27  and  C_2 
REMARK    3  A    between atoms: C_7  and  C_3 
REMARK    4  A    between atoms: O_28  and  C_3 
REMARK    5  A    between atoms: C_8  and  C_4 
REMARK    6  A    between atoms: O_29  and  C_4 
REMARK    7  A    between atoms: C_8  and  C_5 
REMARK    8  A    between atoms: O_30  and  C_5 
REMARK    9  A    between atoms: C_15  and  C_6 
REMARK   10  A    between atoms: C_6  and  O_31 
REMARK   11  A    between atoms: N_21  and  C_7 
REMARK   12  A    between atoms: N_23  and  C_8 
REMARK   13  A    between atoms: C_16  and  C_9 
REMARK   14  A    between atoms: C_17  and  C_10 
REMARK   15  A    between atoms: N_25  and  C_14 
REMARK   16  A    between atoms: O_32  and  C_15 
REMARK   17  A    between atoms: O_33  and  C_16 
REMARK   18  A    between atoms: O_34  and  C_17 
ROOT
HETATM    1  C   UNK N   1      29.432  16.670   6.397  0.00  0.00     0.051 A 
HETATM    2  C   UNK N   1      30.651  14.750   5.383  0.00  0.00     0.051 A 
HETATM    3  C   UNK N   1      29.478  15.589   5.465  0.00  0.00     0.038 A 
HETATM    4  C   UNK N   1      30.546  16.932   7.228  0.00  0.00     0.050 A 
HETATM    5  C   UNK N   1      31.778  15.086   6.199  0.00  0.00     0.050 A 
HETATM    6  C   UNK N   1      31.721  16.168   7.094  0.00  0.00     0.069 A 
HETATM    7  I   UNK N   1      27.689  15.222   4.290  0.00  0.00    -0.042 I 
HETATM    8  I   UNK N   1      30.500  18.502   8.710  0.00  0.00    -0.041 I 
HETATM    9  I   UNK N   1      33.660  14.026   6.199  0.00  0.00    -0.041 I 
ENDROOT
BRANCH   1  10
HETATM   10  C   UNK N   1      28.207  17.527   6.507  0.00  0.00     0.149 C 
HETATM   11  N   UNK N   1      28.094  18.599   5.789  0.00  0.00    -0.361 N 
ATOM     12  HN  UNK N   1      28.874  18.839   5.177  1.00  0.00     0.162 HD
BRANCH  11  13
HETATM   13  C   UNK N   1      26.940  19.485   5.788  0.00  0.00     0.130 C 
BRANCH  13  14
HETATM   14  C   UNK N   1      26.596  20.026   4.402  0.00  0.00     0.191 C 
BRANCH  14  15
HETATM   15  O   UNK N   1      27.676  19.866   3.535  0.00  0.00    -0.399 OA
HETATM   16  H   UNK N   1      28.517  19.386   3.487  0.00  0.00     0.209 HD
ENDBRANCH  14  15
ENDBRANCH  13  14
BRANCH  13  17
HETATM   17  C   UNK N   1      27.117  20.622   6.780  0.00  0.00     0.191 C 
BRANCH  17  18
HETATM   18  O   UNK N   1      26.720  20.203   8.050  0.00  0.00    -0.399 OA
HETATM   19  H   UNK N   1      26.013  20.631   8.557  0.00  0.00     0.209 HD
ENDBRANCH  17  18
ENDBRANCH  13  17
ENDBRANCH  11  13
BRANCH  10  20
HETATM   20  O   UNK N   1      27.222  17.184   7.364  0.00  0.00    -0.346 OA
HETATM   21  H   UNK N   1      26.545  17.514   7.920  0.00  0.00     0.219 HD
ENDBRANCH  10  20
ENDBRANCH   1  10
BRANCH   2  22
HETATM   22  C   UNK N   1      30.694  13.508   4.497  0.00  0.00     0.149 C 
HETATM   23  N   UNK N   1      31.125  13.572   3.286  0.00  0.00    -0.361 N 
ATOM     24  HN  UNK N   1      31.503  14.464   2.965  1.00  0.00     0.162 HD
BRANCH  23  25
HETATM   25  C   UNK N   1      31.115  12.467   2.346  0.00  0.00     0.130 C 
BRANCH  25  26
HETATM   26  C   UNK N   1      32.365  12.448   1.477  0.00  0.00     0.191 C 
BRANCH  26  27
HETATM   27  O   UNK N   1      33.150  13.574   1.726  0.00  0.00    -0.399 OA
HETATM   28  H   UNK N   1      32.829  14.462   1.506  0.00  0.00     0.209 HD
ENDBRANCH  26  27
ENDBRANCH  25  26
BRANCH  25  29
HETATM   29  C   UNK N   1      29.909  12.612   1.433  0.00  0.00     0.191 C 
BRANCH  29  30
HETATM   30  O   UNK N   1      28.754  12.189   2.090  0.00  0.00    -0.399 OA
HETATM   31  H   UNK N   1      28.369  11.793   2.888  0.00  0.00     0.209 HD
ENDBRANCH  29  30
ENDBRANCH  25  29
ENDBRANCH  23  25
BRANCH  22  32
HETATM   32  O   UNK N   1      30.198  12.338   4.936  0.00  0.00    -0.346 OA
HETATM   33  H   UNK N   1      29.391  12.306   5.412  0.00  0.00     0.219 HD
ENDBRANCH  22  32
ENDBRANCH   2  22
BRANCH   6  34
HETATM   34  N   UNK N   1      32.868  16.452   7.893  0.00  0.00    -0.336 N 
HETATM   35  C   UNK N   1      33.798  17.288   7.556  0.00  0.00     0.145 C 
ATOM     36  HN  UNK N   1      32.962  15.967   8.784  1.00  0.00     0.168 HD
BRANCH  35  37
HETATM   37  C   UNK N   1      34.936  17.540   8.506  0.00  0.00     0.188 C 
HETATM   38  C   UNK N   1      34.685  16.916   9.869  0.00  0.00     0.048 C 
BRANCH  37  39
HETATM   39  O   UNK N   1      35.117  18.915   8.663  0.00  0.00    -0.388 OA
HETATM   40  H   UNK N   1      34.725  19.536   8.029  0.00  0.00     0.210 HD
ENDBRANCH  37  39
ENDBRANCH  35  37
BRANCH  35  41
HETATM   41  O   UNK N   1      33.757  17.919   6.360  0.00  0.00    -0.347 OA
HETATM   42  H   UNK N   1      33.486  17.993   5.466  0.00  0.00     0.219 HD
ENDBRANCH  35  41
ENDBRANCH   6  34
TORSDOF 18
ENDMDL
MODEL 8
REMARK VINA RESULT:      -5.5      6.380     10.636
REMARK  18 active torsions:
REMARK  status: ('A' for Active; 'I' for Inactive)
REMARK    1  A    between atoms: C_7  and  C_2 
REMARK    2  A    between atoms: O_27  and  C_2 
REMARK    3  A    between atoms: C_7  and  C_3 
REMARK    4  A    between atoms: O_28  and  C_3 
REMARK    5  A    between atoms: C_8  and  C_4 
REMARK    6  A    between atoms: O_29  and  C_4 
REMARK    7  A    between atoms: C_8  and  C_5 
REMARK    8  A    between atoms: O_30  and  C_5 
REMARK    9  A    between atoms: C_15  and  C_6 
REMARK   10  A    between atoms: C_6  and  O_31 
REMARK   11  A    between atoms: N_21  and  C_7 
REMARK   12  A    between atoms: N_23  and  C_8 
REMARK   13  A    between atoms: C_16  and  C_9 
REMARK   14  A    between atoms: C_17  and  C_10 
REMARK   15  A    between atoms: N_25  and  C_14 
REMARK   16  A    between atoms: O_32  and  C_15 
REMARK   17  A    between atoms: O_33  and  C_16 
REMARK   18  A    between atoms: O_34  and  C_17 
ROOT
HETATM    1  C   UNK N   1      31.161  14.616   5.749  0.00  0.00     0.051 A 
HETATM    2  C   UNK N   1      31.731  15.665   7.934  0.00  0.00     0.051 A 
HETATM    3  C   UNK N   1      31.916  14.614   6.961  0.00  0.00     0.038 A 
HETATM    4  C   UNK N   1      30.244  15.661   5.492  0.00  0.00     0.050 A 
HETATM    5  C   UNK N   1      30.837  16.735   7.609  0.00  0.00     0.050 A 
HETATM    6  C   UNK N   1      30.120  16.730   6.400  0.00  0.00     0.069 A 
HETATM    7  I   UNK N   1      33.240  12.925   7.297  0.00  0.00    -0.042 I 
HETATM    8  I   UNK N   1      29.018  15.670   3.714  0.00  0.00    -0.041 I 
HETATM    9  I   UNK N   1      30.452  18.446   8.868  0.00  0.00    -0.041 I 
ENDROOT
BRANCH   1  10
HETATM   10  C   UNK N   1      31.327  13.512   4.748  0.00  0.00     0.149 C 
HETATM   11  N   UNK N   1      30.634  12.423   4.858  0.00  0.00    -0.361 N 
ATOM     12  HN  UNK N   1      30.002  12.346   5.655  1.00  0.00     0.162 HD
BRANCH  11  13
HETATM   13  C   UNK N   1      30.687  11.303   3.930  0.00  0.00     0.130 C 
BRANCH  13  14
HETATM   14  C   UNK N   1      29.616  11.367   2.845  0.00  0.00     0.191 C 
BRANCH  14  15
HETATM   15  O   UNK N   1      28.364  11.602   3.410  0.00  0.00    -0.399 OA
HETATM   16  H   UNK N   1      27.538  12.067   3.205  0.00  0.00     0.209 HD
ENDBRANCH  14  15
ENDBRANCH  13  14
BRANCH  13  17
HETATM   17  C   UNK N   1      30.629   9.975   4.666  0.00  0.00     0.191 C 
BRANCH  17  18
HETATM   18  O   UNK N   1      29.623  10.018   5.632  0.00  0.00    -0.399 OA
HETATM   19  H   UNK N   1      29.376  10.824   6.112  0.00  0.00     0.209 HD
ENDBRANCH  17  18
ENDBRANCH  13  17
ENDBRANCH  11  13
BRANCH  10  20
HETATM   20  O   UNK N   1      32.208  13.651   3.735  0.00  0.00    -0.346 OA
HETATM   21  H   UNK N   1      32.349  14.040   2.895  0.00  0.00     0.219 HD
ENDBRANCH  10  20
ENDBRANCH   1  10
BRANCH   2  22
HETATM   22  C   UNK N   1      32.419  15.633   9.296  0.00  0.00     0.149 C 
HETATM   23  N   UNK N   1      33.655  15.968   9.423  0.00  0.00    -0.361 N 
ATOM     24  HN  UNK N   1      34.136  16.322   8.596  1.00  0.00     0.162 HD
BRANCH  23  25
HETATM   25  C   UNK N   1      34.413  15.879  10.657  0.00  0.00     0.130 C 
BRANCH  25  26
HETATM   26  C   UNK N   1      35.624  16.802  10.647  0.00  0.00     0.191 C 
BRANCH  26  27
HETATM   27  O   UNK N   1      36.785  16.087  10.942  0.00  0.00    -0.399 OA
HETATM   28  H   UNK N   1      36.920  15.193  10.592  0.00  0.00     0.209 HD
ENDBRANCH  26  27
ENDBRANCH  25  26
BRANCH  25  29
HETATM   29  C   UNK N   1      34.908  14.453  10.827  0.00  0.00     0.191 C 
BRANCH  29  30
HETATM   30  O   UNK N   1      34.203  13.816  11.848  0.00  0.00    -0.399 OA
HETATM   31  H   UNK N   1      33.388  13.362  12.115  0.00  0.00     0.209 HD
ENDBRANCH  29  30
ENDBRANCH  25  29
ENDBRANCH  23  25
BRANCH  22  32
HETATM   32  O   UNK N   1      31.770  15.170  10.379  0.00  0.00    -0.346 OA
HETATM   33  H   UNK N   1      32.180  15.168  11.222  0.00  0.00     0.219 HD
ENDBRANCH  22  32
ENDBRANCH   2  22
BRANCH   6  34
HETATM   34  N   UNK N   1      29.233  17.814   6.130  0.00  0.00    -0.336 N 
HETATM   35  C   UNK N   1      27.993  17.848   6.502  0.00  0.00     0.145 C 
ATOM     36  HN  UNK N   1      29.599  18.613   5.613  1.00  0.00     0.168 HD
BRANCH  35  37
HETATM   37  C   UNK N   1      27.171  19.070   6.202  0.00  0.00     0.188 C 
HETATM   38  C   UNK N   1      27.789  19.912   5.098  0.00  0.00     0.048 C 
BRANCH  37  39
HETATM   39  O   UNK N   1      27.052  19.848   7.354  0.00  0.00    -0.388 OA
HETATM   40  H   UNK N   1      27.688  19.750   8.080  0.00  0.00     0.210 HD
ENDBRANCH  37  39
ENDBRANCH  35  37
BRANCH  35  41
HETATM   41  O   UNK N   1      27.438  16.793   7.142  0.00  0.00    -0.347 OA
HETATM   42  H   UNK N   1      27.233  15.883   7.226  0.00  0.00     0.219 HD
ENDBRANCH  35  41
ENDBRANCH   6  34
TORSDOF 18
ENDMDL
MODEL 9
REMARK VINA RESULT:      -5.5      2.218      7.284
REMARK  18 active torsions:
REMARK  status: ('A' for Active; 'I' for Inactive)
REMARK    1  A    between atoms: C_7  and  C_2 
REMARK    2  A    between atoms: O_27  and  C_2 
REMARK    3  A    between atoms: C_7  and  C_3 
REMARK    4  A    between atoms: O_28  and  C_3 
REMARK    5  A    between atoms: C_8  and  C_4 
REMARK    6  A    between atoms: O_29  and  C_4 
REMARK    7  A    between atoms: C_8  and  C_5 
REMARK    8  A    between atoms: O_30  and  C_5 
REMARK    9  A    between atoms: C_15  and  C_6 
REMARK   10  A    between atoms: C_6  and  O_31 
REMARK   11  A    between atoms: N_21  and  C_7 
REMARK   12  A    between atoms: N_23  and  C_8 
REMARK   13  A    between atoms: C_16  and  C_9 
REMARK   14  A    between atoms: C_17  and  C_10 
REMARK   15  A    between atoms: N_25  and  C_14 
REMARK   16  A    between atoms: O_32  and  C_15 
REMARK   17  A    between atoms: O_33  and  C_16 
REMARK   18  A    between atoms: O_34  and  C_17 
ROOT
HETATM    1  C   UNK N   1      25.098  17.218   4.720  0.00  0.00     0.051 A 
HETATM    2  C   UNK N   1      23.461  15.344   4.607  0.00  0.00     0.051 A 
HETATM    3  C   UNK N   1      24.754  15.859   4.995  0.00  0.00     0.038 A 
HETATM    4  C   UNK N   1      24.163  18.066   4.083  0.00  0.00     0.050 A 
HETATM    5  C   UNK N   1      22.524  16.252   4.019  0.00  0.00     0.050 A 
HETATM    6  C   UNK N   1      22.874  17.591   3.777  0.00  0.00     0.069 A 
HETATM    7  I   UNK N   1      26.285  14.617   5.905  0.00  0.00    -0.042 I 
HETATM    8  I   UNK N   1      24.660  20.105   3.571  0.00  0.00    -0.041 I 
HETATM    9  I   UNK N   1      20.513  15.733   3.424  0.00  0.00    -0.041 I 
ENDROOT
BRANCH   1  10
HETATM   10  C   UNK N   1      26.449  17.750   5.094  0.00  0.00     0.149 C 
HETATM   11  N   UNK N   1      26.650  18.246   6.274  0.00  0.00    -0.361 N 
ATOM     12  HN  UNK N   1      25.855  18.278   6.912  1.00  0.00     0.162 HD
BRANCH  11  13
HETATM   13  C   UNK N   1      27.923  18.759   6.757  0.00  0.00     0.130 C 
BRANCH  13  14
HETATM   14  C   UNK N   1      28.392  18.091   8.048  0.00  0.00     0.191 C 
BRANCH  14  15
HETATM   15  O   UNK N   1      27.491  18.343   9.081  0.00  0.00    -0.399 OA
HETATM   16  H   UNK N   1      26.842  19.013   9.346  0.00  0.00     0.209 HD
ENDBRANCH  14  15
ENDBRANCH  13  14
BRANCH  13  17
HETATM   17  C   UNK N   1      27.884  20.269   6.917  0.00  0.00     0.191 C 
BRANCH  17  18
HETATM   18  O   UNK N   1      26.615  20.663   7.340  0.00  0.00    -0.399 OA
HETATM   19  H   UNK N   1      26.000  21.172   6.787  0.00  0.00     0.209 HD
ENDBRANCH  17  18
ENDBRANCH  13  17
ENDBRANCH  11  13
BRANCH  10  20
HETATM   20  O   UNK N   1      27.456  17.719   4.195  0.00  0.00    -0.346 OA
HETATM   21  H   UNK N   1      28.331  18.004   4.020  0.00  0.00     0.219 HD
ENDBRANCH  10  20
ENDBRANCH   1  10
BRANCH   2  22
HETATM   22  C   UNK N   1      23.101  13.870   4.763  0.00  0.00     0.149 C 
HETATM   23  N   UNK N   1      22.737  13.393   5.902  0.00  0.00    -0.361 N 
ATOM     24  HN  UNK N   1      22.631  14.048   6.677  1.00  0.00     0.162 HD
BRANCH  23  25
HETATM   25  C   UNK N   1      22.467  11.991   6.163  0.00  0.00     0.130 C 
BRANCH  25  26
HETATM   26  C   UNK N   1      21.446  11.808   7.277  0.00  0.00     0.191 C 
BRANCH  26  27
HETATM   27  O   UNK N   1      20.670  12.957   7.422  0.00  0.00    -0.399 OA
HETATM   28  H   UNK N   1      20.634  13.429   8.269  0.00  0.00     0.209 HD
ENDBRANCH  26  27
ENDBRANCH  25  26
BRANCH  25  29
HETATM   29  C   UNK N   1      23.758  11.315   6.592  0.00  0.00     0.191 C 
BRANCH  29  30
HETATM   30  O   UNK N   1      24.362  10.694   5.498  0.00  0.00    -0.399 OA
HETATM   31  H   UNK N   1      24.606  10.751   4.561  0.00  0.00     0.209 HD
ENDBRANCH  29  30
ENDBRANCH  25  29
ENDBRANCH  23  25
BRANCH  22  32
HETATM   32  O   UNK N   1      23.240  13.019   3.732  0.00  0.00    -0.346 OA
HETATM   33  H   UNK N   1      23.928  13.131   3.105  0.00  0.00     0.219 HD
ENDBRANCH  22  32
ENDBRANCH   2  22
BRANCH   6  34
HETATM   34  N   UNK N   1      21.905  18.451   3.178  0.00  0.00    -0.336 N 
HETATM   35  C   UNK N   1      21.152  19.269   3.842  0.00  0.00     0.145 C 
ATOM     36  HN  UNK N   1      21.799  18.419   2.165  1.00  0.00     0.168 HD
BRANCH  35  37
HETATM   37  C   UNK N   1      20.202  20.161   3.093  0.00  0.00     0.188 C 
HETATM   38  C   UNK N   1      20.713  20.492   1.700  0.00  0.00     0.048 C 
BRANCH  37  39
HETATM   39  O   UNK N   1      20.017  21.348   3.803  0.00  0.00    -0.388 OA
HETATM   40  H   UNK N   1      20.137  22.205   3.365  0.00  0.00     0.210 HD
ENDBRANCH  37  39
ENDBRANCH  35  37
BRANCH  35  41
HETATM   41  O   UNK N   1      21.207  19.314   5.193  0.00  0.00    -0.347 OA
HETATM   42  H   UNK N   1      21.668  19.307   6.008  0.00  0.00     0.219 HD
ENDBRANCH  35  41
ENDBRANCH   6  34
TORSDOF 18
ENDMDL
