MODEL 1
REMARK VINA RESULT:      -6.8      0.000      0.000
REMARK  4 active torsions:
REMARK  status: ('A' for Active; 'I' for Inactive)
REMARK    1  A    between atoms: C_9  and  C_6 
REMARK    2  A    between atoms: C_13  and  C_6 
REMARK    3  A    between atoms: N_18  and  C_9 
REMARK    4  A    between atoms: O_19  and  C_14 
ROOT
HETATM    1  C   UNK N   1      20.308  15.233   8.806  0.00  0.00     0.070 C 
HETATM    2  C   UNK N   1      20.342  16.746   6.753  0.00  0.00     0.070 C 
HETATM    3  C   UNK N   1      20.538  14.209   7.691  0.00  0.00     0.275 C 
HETATM    4  C   UNK N   1      21.688  16.061   6.520  0.00  0.00     0.275 C 
HETATM    5  C   UNK N   1      18.406  16.853   8.365  0.00  0.00     0.162 A 
HETATM    6  C   UNK N   1      19.542  18.397   9.478  0.00  0.00     0.258 A 
HETATM    7  C   UNK N   1      19.927  16.601   8.223  0.00  0.00     0.090 A 
HETATM    8  N   UNK N   1      18.365  18.036   9.178  0.00  0.00    -0.348 N 
ATOM      9  HN  UNK N   1      17.514  18.515   9.470  1.00  0.00     0.163 HD
HETATM   10  N   UNK N   1      21.645  14.611   6.798  0.00  0.00     0.088 N 
HETATM   11  O   UNK N   1      20.495  17.610   8.974  0.00  0.00    -0.304 OA
ENDROOT
BRANCH  10  12
HETATM   12  C   UNK N   1      22.909  14.286   7.448  0.00  0.00     0.277 C 
BRANCH  12  13
HETATM   13  C   UNK N   1      23.017  12.801   7.790  0.00  0.00     0.068 C 
BRANCH  13  14
HETATM   14  C   UNK N   1      23.300  12.553   9.238  0.00  0.00    -0.057 A 
HETATM   15  C   UNK N   1      22.262  12.246  10.131  0.00  0.00     0.007 A 
HETATM   16  C   UNK N   1      22.547  11.959  11.468  0.00  0.00     0.001 A 
HETATM   17  C   UNK N   1      23.871  11.956  11.916  0.00  0.00     0.000 A 
HETATM   18  C   UNK N   1      24.910  12.247  11.027  0.00  0.00     0.001 A 
HETATM   19  C   UNK N   1      24.625  12.545   9.690  0.00  0.00     0.007 A 
ENDBRANCH  13  14
ENDBRANCH  12  13
ENDBRANCH  10  12
BRANCH   6  20
HETATM   20  O   UNK N   1      19.801  19.485  10.224  0.00  0.00    -0.327 OA
HETATM   21  H   UNK N   1      20.022  19.495  11.135  0.00  0.00     0.221 HD
ENDBRANCH   6  20
TORSDOF 4
ENDMDL
MODEL 2
REMARK VINA RESULT:      -6.4     12.357     15.110
REMARK  4 active torsions:
REMARK  status: ('A' for Active; 'I' for Inactive)
REMARK    1  A    between atoms: C_9  and  C_6 
REMARK    2  A    between atoms: C_13  and  C_6 
REMARK    3  A    between atoms: N_18  and  C_9 
REMARK    4  A    between atoms: O_19  and  C_14 
ROOT
HETATM    1  C   UNK N   1      35.558  12.753  11.401  0.00  0.00     0.070 C 
HETATM    2  C   UNK N   1      36.038  15.139  12.163  0.00  0.00     0.070 C 
HETATM    3  C   UNK N   1      36.904  12.569  12.109  0.00  0.00     0.275 C 
HETATM    4  C   UNK N   1      36.173  14.462  13.526  0.00  0.00     0.275 C 
HETATM    5  C   UNK N   1      35.499  14.672   9.744  0.00  0.00     0.162 A 
HETATM    6  C   UNK N   1      33.365  14.974  10.260  0.00  0.00     0.258 A 
HETATM    7  C   UNK N   1      35.240  14.242  11.209  0.00  0.00     0.090 A 
HETATM    8  N   UNK N   1      34.202  15.119   9.320  0.00  0.00    -0.348 N 
ATOM      9  HN  UNK N   1      33.986  15.496   8.398  1.00  0.00     0.163 HD
HETATM   10  N   UNK N   1      36.901  13.179  13.456  0.00  0.00     0.088 N 
HETATM   11  O   UNK N   1      33.887  14.461  11.376  0.00  0.00    -0.304 OA
ENDROOT
BRANCH  10  12
HETATM   12  C   UNK N   1      36.219  12.276  14.375  0.00  0.00     0.277 C 
BRANCH  12  13
HETATM   13  C   UNK N   1      35.201  13.004  15.251  0.00  0.00     0.068 C 
BRANCH  13  14
HETATM   14  C   UNK N   1      35.315  12.648  16.700  0.00  0.00    -0.057 A 
HETATM   15  C   UNK N   1      35.109  13.613  17.696  0.00  0.00     0.007 A 
HETATM   16  C   UNK N   1      35.161  13.254  19.045  0.00  0.00     0.001 A 
HETATM   17  C   UNK N   1      35.395  11.924  19.405  0.00  0.00     0.000 A 
HETATM   18  C   UNK N   1      35.587  10.955  18.416  0.00  0.00     0.001 A 
HETATM   19  C   UNK N   1      35.546  11.316  17.065  0.00  0.00     0.007 A 
ENDBRANCH  13  14
ENDBRANCH  12  13
ENDBRANCH  10  12
BRANCH   6  20
HETATM   20  O   UNK N   1      32.072  15.323  10.143  0.00  0.00    -0.327 OA
HETATM   21  H   UNK N   1      31.654  16.056  10.551  0.00  0.00     0.221 HD
ENDBRANCH   6  20
TORSDOF 4
ENDMDL
MODEL 3
REMARK VINA RESULT:      -6.4      9.425     11.833
REMARK  4 active torsions:
REMARK  status: ('A' for Active; 'I' for Inactive)
REMARK    1  A    between atoms: C_9  and  C_6 
REMARK    2  A    between atoms: C_13  and  C_6 
REMARK    3  A    between atoms: N_18  and  C_9 
REMARK    4  A    between atoms: O_19  and  C_14 
ROOT
HETATM    1  C   UNK N   1      32.732  16.578   6.185  0.00  0.00     0.070 C 
HETATM    2  C   UNK N   1      31.608  16.949   8.444  0.00  0.00     0.070 C 
HETATM    3  C   UNK N   1      31.452  15.754   6.014  0.00  0.00     0.275 C 
HETATM    4  C   UNK N   1      30.442  17.399   7.563  0.00  0.00     0.275 C 
HETATM    5  C   UNK N   1      33.989  16.127   8.341  0.00  0.00     0.162 A 
HETATM    6  C   UNK N   1      34.622  18.251   8.347  0.00  0.00     0.258 A 
HETATM    7  C   UNK N   1      32.917  17.004   7.648  0.00  0.00     0.090 A 
HETATM    8  N   UNK N   1      34.976  17.095   8.727  0.00  0.00    -0.348 N 
ATOM      9  HN  UNK N   1      35.836  16.883   9.232  1.00  0.00     0.163 HD
HETATM   10  N   UNK N   1      30.249  16.529   6.386  0.00  0.00     0.088 N 
HETATM   11  O   UNK N   1      33.452  18.275   7.706  0.00  0.00    -0.304 OA
ENDROOT
BRANCH  10  12
HETATM   12  C   UNK N   1      29.905  17.415   5.280  0.00  0.00     0.277 C 
BRANCH  12  13
HETATM   13  C   UNK N   1      28.415  17.370   4.946  0.00  0.00     0.068 C 
BRANCH  13  14
HETATM   14  C   UNK N   1      27.738  18.694   5.116  0.00  0.00    -0.057 A 
HETATM   15  C   UNK N   1      27.781  19.371   6.343  0.00  0.00     0.007 A 
HETATM   16  C   UNK N   1      27.194  20.632   6.471  0.00  0.00     0.001 A 
HETATM   17  C   UNK N   1      26.583  21.234   5.368  0.00  0.00     0.000 A 
HETATM   18  C   UNK N   1      26.550  20.570   4.139  0.00  0.00     0.001 A 
HETATM   19  C   UNK N   1      27.127  19.302   4.012  0.00  0.00     0.007 A 
ENDBRANCH  13  14
ENDBRANCH  12  13
ENDBRANCH  10  12
BRANCH   6  20
HETATM   20  O   UNK N   1      35.356  19.352   8.586  0.00  0.00    -0.327 OA
HETATM   21  H   UNK N   1      35.390  19.834   9.389  0.00  0.00     0.221 HD
ENDBRANCH   6  20
TORSDOF 4
ENDMDL
MODEL 4
REMARK VINA RESULT:      -6.3     13.426     15.490
REMARK  4 active torsions:
REMARK  status: ('A' for Active; 'I' for Inactive)
REMARK    1  A    between atoms: C_9  and  C_6 
REMARK    2  A    between atoms: C_13  and  C_6 
REMARK    3  A    between atoms: N_18  and  C_9 
REMARK    4  A    between atoms: O_19  and  C_14 
ROOT
HETATM    1  C   UNK N   1      34.895  13.914  12.383  0.00  0.00     0.070 C 
HETATM    2  C   UNK N   1      36.452  13.401  10.429  0.00  0.00     0.070 C 
HETATM    3  C   UNK N   1      35.080  12.402  12.544  0.00  0.00     0.275 C 
HETATM    4  C   UNK N   1      37.307  12.782  11.534  0.00  0.00     0.275 C 
HETATM    5  C   UNK N   1      34.299  14.652  10.031  0.00  0.00     0.162 A 
HETATM    6  C   UNK N   1      35.430  16.523  10.395  0.00  0.00     0.258 A 
HETATM    7  C   UNK N   1      35.449  14.392  11.034  0.00  0.00     0.090 A 
HETATM    8  N   UNK N   1      34.461  16.047   9.732  0.00  0.00    -0.348 N 
ATOM      9  HN  UNK N   1      33.881  16.577   9.083  1.00  0.00     0.163 HD
HETATM   10  N   UNK N   1      36.507  12.017  12.512  0.00  0.00     0.088 N 
HETATM   11  O   UNK N   1      36.040  15.631  11.178  0.00  0.00    -0.304 OA
ENDROOT
BRANCH  10  12
HETATM   12  C   UNK N   1      37.092  12.295  13.818  0.00  0.00     0.277 C 
BRANCH  12  13
HETATM   13  C   UNK N   1      36.053  12.252  14.937  0.00  0.00     0.068 C 
BRANCH  13  14
HETATM   14  C   UNK N   1      36.207  13.368  15.922  0.00  0.00    -0.057 A 
HETATM   15  C   UNK N   1      37.071  14.442  15.662  0.00  0.00     0.007 A 
HETATM   16  C   UNK N   1      37.161  15.506  16.563  0.00  0.00     0.001 A 
HETATM   17  C   UNK N   1      36.372  15.514  17.716  0.00  0.00     0.000 A 
HETATM   18  C   UNK N   1      35.498  14.453  17.973  0.00  0.00     0.001 A 
HETATM   19  C   UNK N   1      35.415  13.382  17.077  0.00  0.00     0.007 A 
ENDBRANCH  13  14
ENDBRANCH  12  13
ENDBRANCH  10  12
BRANCH   6  20
HETATM   20  O   UNK N   1      35.815  17.808  10.302  0.00  0.00    -0.327 OA
HETATM   21  H   UNK N   1      36.694  18.130  10.345  0.00  0.00     0.221 HD
ENDBRANCH   6  20
TORSDOF 4
ENDMDL
MODEL 5
REMARK VINA RESULT:      -6.3     14.267     15.952
REMARK  4 active torsions:
REMARK  status: ('A' for Active; 'I' for Inactive)
REMARK    1  A    between atoms: C_9  and  C_6 
REMARK    2  A    between atoms: C_13  and  C_6 
REMARK    3  A    between atoms: N_18  and  C_9 
REMARK    4  A    between atoms: O_19  and  C_14 
ROOT
HETATM    1  C   UNK N   1      35.032  12.635  13.065  0.00  0.00     0.070 C 
HETATM    2  C   UNK N   1      36.813  11.713  11.489  0.00  0.00     0.070 C 
HETATM    3  C   UNK N   1      34.961  11.139  13.386  0.00  0.00     0.275 C 
HETATM    4  C   UNK N   1      37.362  11.114  12.784  0.00  0.00     0.275 C 
HETATM    5  C   UNK N   1      34.971  13.179  10.589  0.00  0.00     0.162 A 
HETATM    6  C   UNK N   1      36.284  14.917  10.998  0.00  0.00     0.258 A 
HETATM    7  C   UNK N   1      35.878  12.885  11.809  0.00  0.00     0.090 A 
HETATM    8  N   UNK N   1      35.386  14.500  10.208  0.00  0.00    -0.348 N 
ATOM      9  HN  UNK N   1      35.012  15.025   9.418  1.00  0.00     0.163 HD
HETATM   10  N   UNK N   1      36.300  10.572  13.656  0.00  0.00     0.088 N 
HETATM   11  O   UNK N   1      36.610  14.046  11.955  0.00  0.00    -0.304 OA
ENDROOT
BRANCH  10  12
HETATM   12  C   UNK N   1      36.683  10.915  15.021  0.00  0.00     0.277 C 
BRANCH  12  13
HETATM   13  C   UNK N   1      35.652  10.444  16.045  0.00  0.00     0.068 C 
BRANCH  13  14
HETATM   14  C   UNK N   1      35.441  11.424  17.156  0.00  0.00    -0.057 A 
HETATM   15  C   UNK N   1      35.515  11.018  18.497  0.00  0.00     0.007 A 
HETATM   16  C   UNK N   1      35.375  11.955  19.524  0.00  0.00     0.001 A 
HETATM   17  C   UNK N   1      35.183  13.305  19.217  0.00  0.00     0.000 A 
HETATM   18  C   UNK N   1      35.123  13.717  17.883  0.00  0.00     0.001 A 
HETATM   19  C   UNK N   1      35.252  12.778  16.854  0.00  0.00     0.007 A 
ENDBRANCH  13  14
ENDBRANCH  12  13
ENDBRANCH  10  12
BRANCH   6  20
HETATM   20  O   UNK N   1      36.864  16.123  10.870  0.00  0.00    -0.327 OA
HETATM   21  H   UNK N   1      36.584  16.921  11.273  0.00  0.00     0.221 HD
ENDBRANCH   6  20
TORSDOF 4
ENDMDL
MODEL 6
REMARK VINA RESULT:      -6.3     12.941     14.846
REMARK  4 active torsions:
REMARK  status: ('A' for Active; 'I' for Inactive)
REMARK    1  A    between atoms: C_9  and  C_6 
REMARK    2  A    between atoms: C_13  and  C_6 
REMARK    3  A    between atoms: N_18  and  C_9 
REMARK    4  A    between atoms: O_19  and  C_14 
ROOT
HETATM    1  C   UNK N   1      34.341  15.270  10.939  0.00  0.00     0.070 C 
HETATM    2  C   UNK N   1      36.100  14.724   9.175  0.00  0.00     0.070 C 
HETATM    3  C   UNK N   1      34.684  13.823  11.305  0.00  0.00     0.275 C 
HETATM    4  C   UNK N   1      36.928  14.353  10.405  0.00  0.00     0.275 C 
HETATM    5  C   UNK N   1      33.858  15.641   8.476  0.00  0.00     0.162 A 
HETATM    6  C   UNK N   1      34.733  17.668   8.671  0.00  0.00     0.258 A 
HETATM    7  C   UNK N   1      34.945  15.648   9.579  0.00  0.00     0.090 A 
HETATM    8  N   UNK N   1      33.882  16.999   8.012  0.00  0.00    -0.348 N 
ATOM      9  HN  UNK N   1      33.300  17.371   7.263  1.00  0.00     0.163 HD
HETATM   10  N   UNK N   1      36.144  13.618  11.418  0.00  0.00     0.088 N 
HETATM   11  O   UNK N   1      35.375  16.959   9.601  0.00  0.00    -0.304 OA
ENDROOT
BRANCH  10  12
HETATM   12  C   UNK N   1      36.585  14.121  12.714  0.00  0.00     0.277 C 
BRANCH  12  13
HETATM   13  C   UNK N   1      36.294  13.136  13.845  0.00  0.00     0.068 C 
BRANCH  13  14
HETATM   14  C   UNK N   1      36.246  13.788  15.191  0.00  0.00    -0.057 A 
HETATM   15  C   UNK N   1      35.443  13.264  16.215  0.00  0.00     0.007 A 
HETATM   16  C   UNK N   1      35.452  13.848  17.484  0.00  0.00     0.001 A 
HETATM   17  C   UNK N   1      36.280  14.944  17.743  0.00  0.00     0.000 A 
HETATM   18  C   UNK N   1      37.093  15.460  16.730  0.00  0.00     0.001 A 
HETATM   19  C   UNK N   1      37.077  14.883  15.456  0.00  0.00     0.007 A 
ENDBRANCH  13  14
ENDBRANCH  12  13
ENDBRANCH  10  12
BRANCH   6  20
HETATM   20  O   UNK N   1      34.974  18.970   8.438  0.00  0.00    -0.327 OA
HETATM   21  H   UNK N   1      35.319  19.340   7.650  0.00  0.00     0.221 HD
ENDBRANCH   6  20
TORSDOF 4
ENDMDL
MODEL 7
REMARK VINA RESULT:      -6.2      8.965     11.521
REMARK  4 active torsions:
REMARK  status: ('A' for Active; 'I' for Inactive)
REMARK    1  A    between atoms: C_9  and  C_6 
REMARK    2  A    between atoms: C_13  and  C_6 
REMARK    3  A    between atoms: N_18  and  C_9 
REMARK    4  A    between atoms: O_19  and  C_14 
ROOT
HETATM    1  C   UNK N   1      31.966  16.745   6.344  0.00  0.00     0.070 C 
HETATM    2  C   UNK N   1      31.206  17.165   8.742  0.00  0.00     0.070 C 
HETATM    3  C   UNK N   1      30.606  16.041   6.348  0.00  0.00     0.275 C 
HETATM    4  C   UNK N   1      29.974  17.735   8.039  0.00  0.00     0.275 C 
HETATM    5  C   UNK N   1      33.465  16.138   8.298  0.00  0.00     0.162 A 
HETATM    6  C   UNK N   1      34.283  18.197   8.234  0.00  0.00     0.258 A 
HETATM    7  C   UNK N   1      32.392  17.121   7.771  0.00  0.00     0.090 A 
HETATM    8  N   UNK N   1      34.581  17.006   8.550  0.00  0.00    -0.348 N 
ATOM      9  HN  UNK N   1      35.480  16.709   8.926  1.00  0.00     0.163 HD
HETATM   10  N   UNK N   1      29.541  16.911   6.893  0.00  0.00     0.088 N 
HETATM   11  O   UNK N   1      33.042  18.338   7.764  0.00  0.00    -0.304 OA
ENDROOT
BRANCH  10  12
HETATM   12  C   UNK N   1      29.129  17.847   5.854  0.00  0.00     0.277 C 
BRANCH  12  13
HETATM   13  C   UNK N   1      27.890  18.646   6.256  0.00  0.00     0.068 C 
BRANCH  13  14
HETATM   14  C   UNK N   1      27.022  19.006   5.091  0.00  0.00    -0.057 A 
HETATM   15  C   UNK N   1      25.864  18.268   4.803  0.00  0.00     0.007 A 
HETATM   16  C   UNK N   1      25.032  18.650   3.748  0.00  0.00     0.001 A 
HETATM   17  C   UNK N   1      25.339  19.784   2.991  0.00  0.00     0.000 A 
HETATM   18  C   UNK N   1      26.484  20.531   3.283  0.00  0.00     0.001 A 
HETATM   19  C   UNK N   1      27.324  20.143   4.332  0.00  0.00     0.007 A 
ENDBRANCH  13  14
ENDBRANCH  12  13
ENDBRANCH  10  12
BRANCH   6  20
HETATM   20  O   UNK N   1      35.139  19.223   8.377  0.00  0.00    -0.327 OA
HETATM   21  H   UNK N   1      36.026  19.254   8.076  0.00  0.00     0.221 HD
ENDBRANCH   6  20
TORSDOF 4
ENDMDL
MODEL 8
REMARK VINA RESULT:      -6.2      6.402      7.964
REMARK  4 active torsions:
REMARK  status: ('A' for Active; 'I' for Inactive)
REMARK    1  A    between atoms: C_9  and  C_6 
REMARK    2  A    between atoms: C_13  and  C_6 
REMARK    3  A    between atoms: N_18  and  C_9 
REMARK    4  A    between atoms: O_19  and  C_14 
ROOT
HETATM    1  C   UNK N   1      22.088  18.328   3.339  0.00  0.00     0.070 C 
HETATM    2  C   UNK N   1      19.553  18.153   3.122  0.00  0.00     0.070 C 
HETATM    3  C   UNK N   1      21.769  17.315   4.442  0.00  0.00     0.275 C 
HETATM    4  C   UNK N   1      19.868  16.663   2.998  0.00  0.00     0.275 C 
HETATM    5  C   UNK N   1      20.643  20.412   3.380  0.00  0.00     0.162 A 
HETATM    6  C   UNK N   1      20.792  20.486   1.169  0.00  0.00     0.258 A 
HETATM    7  C   UNK N   1      20.805  18.982   2.809  0.00  0.00     0.090 A 
HETATM    8  N   UNK N   1      20.642  21.219   2.192  0.00  0.00    -0.348 N 
ATOM      9  HN  UNK N   1      20.536  22.233   2.174  1.00  0.00     0.163 HD
HETATM   10  N   UNK N   1      20.909  16.219   3.948  0.00  0.00     0.088 N 
HETATM   11  O   UNK N   1      20.906  19.186   1.448  0.00  0.00    -0.304 OA
ENDROOT
BRANCH  10  12
HETATM   12  C   UNK N   1      21.740  15.267   3.222  0.00  0.00     0.277 C 
BRANCH  12  13
HETATM   13  C   UNK N   1      21.252  15.048   1.791  0.00  0.00     0.068 C 
BRANCH  13  14
HETATM   14  C   UNK N   1      21.919  13.893   1.114  0.00  0.00    -0.057 A 
HETATM   15  C   UNK N   1      23.230  14.004   0.627  0.00  0.00     0.007 A 
HETATM   16  C   UNK N   1      23.862  12.900   0.050  0.00  0.00     0.001 A 
HETATM   17  C   UNK N   1      23.197  11.673  -0.022  0.00  0.00     0.000 A 
HETATM   18  C   UNK N   1      21.896  11.552   0.476  0.00  0.00     0.001 A 
HETATM   19  C   UNK N   1      21.258  12.660   1.043  0.00  0.00     0.007 A 
ENDBRANCH  13  14
ENDBRANCH  12  13
ENDBRANCH  10  12
BRANCH   6  20
HETATM   20  O   UNK N   1      20.816  20.978  -0.081  0.00  0.00    -0.327 OA
HETATM   21  H   UNK N   1      20.090  21.337  -0.553  0.00  0.00     0.221 HD
ENDBRANCH   6  20
TORSDOF 4
ENDMDL
MODEL 9
REMARK VINA RESULT:      -6.1     10.581     13.009
REMARK  4 active torsions:
REMARK  status: ('A' for Active; 'I' for Inactive)
REMARK    1  A    between atoms: C_9  and  C_6 
REMARK    2  A    between atoms: C_13  and  C_6 
REMARK    3  A    between atoms: N_18  and  C_9 
REMARK    4  A    between atoms: O_19  and  C_14 
ROOT
HETATM    1  C   UNK N   1      34.239  16.386   9.618  0.00  0.00     0.070 C 
HETATM    2  C   UNK N   1      35.354  14.246   8.791  0.00  0.00     0.070 C 
HETATM    3  C   UNK N   1      34.316  16.659   8.112  0.00  0.00     0.275 C 
HETATM    4  C   UNK N   1      34.131  14.202   7.875  0.00  0.00     0.275 C 
HETATM    5  C   UNK N   1      36.412  15.581  10.649  0.00  0.00     0.162 A 
HETATM    6  C   UNK N   1      35.220  14.369  12.070  0.00  0.00     0.258 A 
HETATM    7  C   UNK N   1      35.075  15.155   9.994  0.00  0.00     0.090 A 
HETATM    8  N   UNK N   1      36.325  14.977  11.948  0.00  0.00    -0.348 N 
ATOM      9  HN  UNK N   1      37.045  15.030  12.668  1.00  0.00     0.163 HD
HETATM   10  N   UNK N   1      33.784  15.527   7.323  0.00  0.00     0.088 N 
HETATM   11  O   UNK N   1      34.441  14.439  10.989  0.00  0.00    -0.304 OA
ENDROOT
BRANCH  10  12
HETATM   12  C   UNK N   1      32.328  15.600   7.330  0.00  0.00     0.277 C 
BRANCH  12  13
HETATM   13  C   UNK N   1      31.815  16.960   6.860  0.00  0.00     0.068 C 
BRANCH  13  14
HETATM   14  C   UNK N   1      30.631  17.440   7.638  0.00  0.00    -0.057 A 
HETATM   15  C   UNK N   1      29.328  17.101   7.246  0.00  0.00     0.007 A 
HETATM   16  C   UNK N   1      28.234  17.507   8.015  0.00  0.00     0.001 A 
HETATM   17  C   UNK N   1      28.438  18.234   9.191  0.00  0.00     0.000 A 
HETATM   18  C   UNK N   1      29.736  18.562   9.594  0.00  0.00     0.001 A 
HETATM   19  C   UNK N   1      30.831  18.166   8.819  0.00  0.00     0.007 A 
ENDBRANCH  13  14
ENDBRANCH  12  13
ENDBRANCH  10  12
BRANCH   6  20
HETATM   20  O   UNK N   1      34.876  13.701  13.185  0.00  0.00    -0.327 OA
HETATM   21  H   UNK N   1      34.333  14.020  13.880  0.00  0.00     0.221 HD
ENDBRANCH   6  20
TORSDOF 4
ENDMDL
