MODEL 1
REMARK VINA RESULT:      -8.7      0.000      0.000
REMARK  5 active torsions:
REMARK  status: ('A' for Active; 'I' for Inactive)
REMARK    1  A    between atoms: C_5  and  N_16 
REMARK    2  A    between atoms: N_8  and  C_11 
REMARK    3  A    between atoms: N_10  and  C_26 
REMARK    4  A    between atoms: N_16  and  C_17 
REMARK    5  A    between atoms: C_28  and  N_32 
REMARK       I    between atoms: N_32  and  C_33 
ROOT
HETATM    1  C   UNK N   1      26.271  16.817   3.559  0.00  0.00     0.075 A 
HETATM    2  C   UNK N   1      26.230  15.545   2.900  0.00  0.00     0.035 C 
HETATM    3  C   UNK N   1      27.408  14.845   2.650  0.00  0.00     0.257 C 
HETATM    4  N   UNK N   1      28.633  15.364   2.987  0.00  0.00    -0.303 N 
HETATM    5  C   UNK N   1      28.751  16.643   3.492  0.00  0.00     0.128 C 
HETATM    6  C   UNK N   1      27.557  17.396   3.780  0.00  0.00     0.104 A 
HETATM    7  C   UNK N   1      27.618  18.718   4.291  0.00  0.00     0.268 A 
HETATM    8  N   UNK N   1      26.467  19.412   4.581  0.00  0.00    -0.260 N 
HETATM    9  C   UNK N   1      25.234  18.819   4.420  0.00  0.00     0.337 A 
HETATM   10  N   UNK N   1      25.122  17.513   3.951  0.00  0.00    -0.262 N 
HETATM   11  O   UNK N   1      28.696  19.265   4.462  0.00  0.00    -0.267 OA
HETATM   12  O   UNK N   1      24.234  19.445   4.737  0.00  0.00    -0.246 OA
HETATM   13  O   UNK N   1      27.343  13.742   2.121  0.00  0.00    -0.267 OA
HETATM   14  C   UNK N   1      29.771  14.486   2.780  0.00  0.00     0.161 C 
HETATM   15  C   UNK N   1      24.976  14.928   2.348  0.00  0.00     0.056 C 
ENDROOT
BRANCH  10  16
HETATM   16  C   UNK N   1      23.805  16.873   4.057  0.00  0.00     0.046 A 
HETATM   17  C   UNK N   1      22.801  17.041   3.077  0.00  0.00     0.059 A 
HETATM   18  C   UNK N   1      21.505  16.536   3.272  0.00  0.00     0.036 A 
HETATM   19  C   UNK N   1      21.205  15.863   4.465  0.00  0.00     0.029 A 
HETATM   20  C   UNK N   1      22.167  15.719   5.457  0.00  0.00     0.004 A 
HETATM   21  C   UNK N   1      23.440  16.246   5.267  0.00  0.00     0.030 A 
BRANCH  18  22
HETATM   22  N   UNK N   1      20.516  16.759   2.270  0.00  0.00    -0.327 N 
HETATM   23  C   UNK N   1      20.464  16.150   1.052  0.00  0.00     0.218 C 
HETATM   24  C   UNK N   1      19.344  16.468   0.125  0.00  0.00     0.117 C 
HETATM   25  O   UNK N   1      21.309  15.338   0.707  0.00  0.00    -0.274 OA
HETATM   26  H   UNK N   1      19.808  17.410   2.476  0.00  0.00     0.169 HD
ENDBRANCH  18  22
ENDBRANCH  10  16
BRANCH   8  27
HETATM   27  C   UNK N   1      26.553  20.807   5.076  0.00  0.00     0.098 A 
HETATM   28  C   UNK N   1      26.170  20.903   6.552  0.00  0.00     0.028 A 
HETATM   29  C   UNK N   1      27.621  20.947   6.161  0.00  0.00     0.028 A 
ENDBRANCH   8  27
BRANCH   5  30
HETATM   30  N   UNK N   1      30.025  17.261   3.790  0.00  0.00    -0.339 N 
HETATM   31  H   UNK N   1      30.318  17.825   3.037  0.00  0.00     0.167 HD
BRANCH  30  32
HETATM   32  C   UNK N   1      30.989  17.303   4.852  0.00  0.00     0.072 A 
HETATM   33  C   UNK N   1      30.663  17.143   6.202  0.00  0.00     0.034 A 
HETATM   34  C   UNK N   1      31.639  17.203   7.198  0.00  0.00     0.020 A 
HETATM   35  C   UNK N   1      32.973  17.402   6.851  0.00  0.00     0.009 A 
HETATM   36  C   UNK N   1      33.328  17.525   5.507  0.00  0.00     0.062 A 
HETATM   37  I   UNK N   1      34.439  17.507   8.355  0.00  0.00    -0.044 I 
HETATM   38  C   UNK N   1      32.344  17.475   4.511  0.00  0.00     0.144 A 
HETATM   39  F   UNK N   1      32.711  17.589   3.211  0.00  0.00    -0.204 F 
ENDBRANCH  30  32
ENDBRANCH   5  30
TORSDOF 5
ENDMDL
MODEL 2
REMARK VINA RESULT:      -8.5      1.522      1.751
REMARK  5 active torsions:
REMARK  status: ('A' for Active; 'I' for Inactive)
REMARK    1  A    between atoms: C_5  and  N_16 
REMARK    2  A    between atoms: N_8  and  C_11 
REMARK    3  A    between atoms: N_10  and  C_26 
REMARK    4  A    between atoms: N_16  and  C_17 
REMARK    5  A    between atoms: C_28  and  N_32 
REMARK       I    between atoms: N_32  and  C_33 
ROOT
HETATM    1  C   UNK N   1      25.757  15.612   3.015  0.00  0.00     0.075 A 
HETATM    2  C   UNK N   1      25.956  14.318   2.431  0.00  0.00     0.035 C 
HETATM    3  C   UNK N   1      27.246  13.831   2.226  0.00  0.00     0.257 C 
HETATM    4  N   UNK N   1      28.351  14.583   2.536  0.00  0.00    -0.303 N 
HETATM    5  C   UNK N   1      28.228  15.889   2.966  0.00  0.00     0.128 C 
HETATM    6  C   UNK N   1      26.913  16.426   3.206  0.00  0.00     0.104 A 
HETATM    7  C   UNK N   1      26.726  17.765   3.639  0.00  0.00     0.268 A 
HETATM    8  N   UNK N   1      25.464  18.253   3.885  0.00  0.00    -0.260 N 
HETATM    9  C   UNK N   1      24.362  17.437   3.754  0.00  0.00     0.337 A 
HETATM   10  N   UNK N   1      24.495  16.108   3.362  0.00  0.00    -0.262 N 
HETATM   11  O   UNK N   1      27.685  18.507   3.781  0.00  0.00    -0.267 OA
HETATM   12  O   UNK N   1      23.261  17.887   4.032  0.00  0.00    -0.246 OA
HETATM   13  O   UNK N   1      27.388  12.707   1.761  0.00  0.00    -0.267 OA
HETATM   14  C   UNK N   1      29.632  13.917   2.384  0.00  0.00     0.161 C 
HETATM   15  C   UNK N   1      24.843  13.453   1.912  0.00  0.00     0.056 C 
ENDROOT
BRANCH  10  16
HETATM   16  C   UNK N   1      23.315  15.246   3.501  0.00  0.00     0.046 A 
HETATM   17  C   UNK N   1      22.198  15.350   2.643  0.00  0.00     0.059 A 
HETATM   18  C   UNK N   1      21.027  14.613   2.885  0.00  0.00     0.036 A 
HETATM   19  C   UNK N   1      20.967  13.770   4.004  0.00  0.00     0.029 A 
HETATM   20  C   UNK N   1      22.040  13.682   4.881  0.00  0.00     0.004 A 
HETATM   21  C   UNK N   1      23.186  14.436   4.648  0.00  0.00     0.030 A 
BRANCH  18  22
HETATM   22  N   UNK N   1      19.912  14.775   2.011  0.00  0.00    -0.327 N 
HETATM   23  C   UNK N   1      19.661  14.035   0.894  0.00  0.00     0.218 C 
HETATM   24  C   UNK N   1      18.432  14.307   0.099  0.00  0.00     0.117 C 
HETATM   25  O   UNK N   1      20.415  13.144   0.535  0.00  0.00    -0.274 OA
HETATM   26  H   UNK N   1      19.267  15.484   2.233  0.00  0.00     0.169 HD
ENDBRANCH  18  22
ENDBRANCH  10  16
BRANCH   8  27
HETATM   27  C   UNK N   1      25.289  19.666   4.299  0.00  0.00     0.098 A 
HETATM   28  C   UNK N   1      26.090  20.615   3.409  0.00  0.00     0.028 A 
HETATM   29  C   UNK N   1      24.606  20.485   3.203  0.00  0.00     0.028 A 
ENDBRANCH   8  27
BRANCH   5  30
HETATM   30  N   UNK N   1      29.364  16.744   3.231  0.00  0.00    -0.339 N 
HETATM   31  H   UNK N   1      29.485  17.393   2.499  0.00  0.00     0.167 HD
BRANCH  30  32
HETATM   32  C   UNK N   1      30.367  16.935   4.240  0.00  0.00     0.072 A 
HETATM   33  C   UNK N   1      30.110  16.866   5.613  0.00  0.00     0.034 A 
HETATM   34  C   UNK N   1      31.121  17.070   6.553  0.00  0.00     0.020 A 
HETATM   35  C   UNK N   1      32.423  17.324   6.128  0.00  0.00     0.009 A 
HETATM   36  C   UNK N   1      32.711  17.360   4.763  0.00  0.00     0.062 A 
HETATM   37  I   UNK N   1      33.940  17.647   7.548  0.00  0.00    -0.044 I 
HETATM   38  C   UNK N   1      31.692  17.164   3.823  0.00  0.00     0.144 A 
HETATM   39  F   UNK N   1      31.996  17.195   2.502  0.00  0.00    -0.204 F 
ENDBRANCH  30  32
ENDBRANCH   5  30
TORSDOF 5
ENDMDL
MODEL 3
REMARK VINA RESULT:      -8.3      1.773      2.894
REMARK  5 active torsions:
REMARK  status: ('A' for Active; 'I' for Inactive)
REMARK    1  A    between atoms: C_5  and  N_16 
REMARK    2  A    between atoms: N_8  and  C_11 
REMARK    3  A    between atoms: N_10  and  C_26 
REMARK    4  A    between atoms: N_16  and  C_17 
REMARK    5  A    between atoms: C_28  and  N_32 
REMARK       I    between atoms: N_32  and  C_33 
ROOT
HETATM    1  C   UNK N   1      25.942  16.960   3.869  0.00  0.00     0.075 A 
HETATM    2  C   UNK N   1      25.778  15.654   3.302  0.00  0.00     0.035 C 
HETATM    3  C   UNK N   1      26.893  14.879   2.989  0.00  0.00     0.257 C 
HETATM    4  N   UNK N   1      28.167  15.353   3.175  0.00  0.00    -0.303 N 
HETATM    5  C   UNK N   1      28.393  16.652   3.581  0.00  0.00     0.128 C 
HETATM    6  C   UNK N   1      27.269  17.482   3.930  0.00  0.00     0.104 A 
HETATM    7  C   UNK N   1      27.441  18.829   4.344  0.00  0.00     0.268 A 
HETATM    8  N   UNK N   1      26.357  19.598   4.696  0.00  0.00    -0.260 N 
HETATM    9  C   UNK N   1      25.087  19.063   4.690  0.00  0.00     0.337 A 
HETATM   10  N   UNK N   1      24.870  17.738   4.321  0.00  0.00    -0.262 N 
HETATM   11  O   UNK N   1      28.555  19.327   4.377  0.00  0.00    -0.267 OA
HETATM   12  O   UNK N   1      24.153  19.758   5.058  0.00  0.00    -0.246 OA
HETATM   13  O   UNK N   1      26.725  13.751   2.542  0.00  0.00    -0.267 OA
HETATM   14  C   UNK N   1      29.238  14.405   2.920  0.00  0.00     0.161 C 
HETATM   15  C   UNK N   1      24.449  15.071   2.912  0.00  0.00     0.056 C 
ENDROOT
BRANCH  10  16
HETATM   16  C   UNK N   1      23.541  17.176   4.592  0.00  0.00     0.046 A 
HETATM   17  C   UNK N   1      23.265  16.409   5.746  0.00  0.00     0.059 A 
HETATM   18  C   UNK N   1      22.028  15.766   5.911  0.00  0.00     0.036 A 
HETATM   19  C   UNK N   1      21.058  15.879   4.904  0.00  0.00     0.029 A 
HETATM   20  C   UNK N   1      21.322  16.597   3.746  0.00  0.00     0.004 A 
HETATM   21  C   UNK N   1      22.560  17.209   3.579  0.00  0.00     0.030 A 
BRANCH  18  22
HETATM   22  N   UNK N   1      21.807  14.976   7.077  0.00  0.00    -0.327 N 
HETATM   23  C   UNK N   1      21.252  15.413   8.242  0.00  0.00     0.218 C 
HETATM   24  C   UNK N   1      21.058  14.453   9.363  0.00  0.00     0.117 C 
HETATM   25  O   UNK N   1      20.897  16.573   8.385  0.00  0.00    -0.274 OA
HETATM   26  H   UNK N   1      22.079  14.031   7.037  0.00  0.00     0.169 HD
ENDBRANCH  18  22
ENDBRANCH  10  16
BRANCH   8  27
HETATM   27  C   UNK N   1      26.555  21.015   5.088  0.00  0.00     0.098 A 
HETATM   28  C   UNK N   1      26.171  21.252   6.547  0.00  0.00     0.028 A 
HETATM   29  C   UNK N   1      27.623  21.146   6.173  0.00  0.00     0.028 A 
ENDBRANCH   8  27
BRANCH   5  30
HETATM   30  N   UNK N   1      29.717  17.220   3.717  0.00  0.00    -0.339 N 
HETATM   31  H   UNK N   1      29.960  17.724   2.906  0.00  0.00     0.167 HD
BRANCH  30  32
HETATM   32  C   UNK N   1      30.783  17.271   4.676  0.00  0.00     0.072 A 
HETATM   33  C   UNK N   1      32.111  17.557   4.345  0.00  0.00     0.034 A 
HETATM   34  C   UNK N   1      33.113  17.583   5.316  0.00  0.00     0.020 A 
HETATM   35  C   UNK N   1      32.793  17.345   6.651  0.00  0.00     0.009 A 
HETATM   36  C   UNK N   1      31.467  17.096   7.011  0.00  0.00     0.062 A 
HETATM   37  I   UNK N   1      34.308  17.371   8.109  0.00  0.00    -0.044 I 
HETATM   38  C   UNK N   1      30.467  17.060   6.032  0.00  0.00     0.144 A 
HETATM   39  F   UNK N   1      29.185  16.823   6.404  0.00  0.00    -0.204 F 
ENDBRANCH  30  32
ENDBRANCH   5  30
TORSDOF 5
ENDMDL
MODEL 4
REMARK VINA RESULT:      -8.0      7.848     13.229
REMARK  5 active torsions:
REMARK  status: ('A' for Active; 'I' for Inactive)
REMARK    1  A    between atoms: C_5  and  N_16 
REMARK    2  A    between atoms: N_8  and  C_11 
REMARK    3  A    between atoms: N_10  and  C_26 
REMARK    4  A    between atoms: N_16  and  C_17 
REMARK    5  A    between atoms: C_28  and  N_32 
REMARK       I    between atoms: N_32  and  C_33 
ROOT
HETATM    1  C   UNK N   1      34.799  14.103  10.240  0.00  0.00     0.075 A 
HETATM    2  C   UNK N   1      35.457  15.322  10.605  0.00  0.00     0.035 C 
HETATM    3  C   UNK N   1      35.151  16.511   9.946  0.00  0.00     0.257 C 
HETATM    4  N   UNK N   1      34.250  16.541   8.911  0.00  0.00    -0.303 N 
HETATM    5  C   UNK N   1      33.691  15.380   8.417  0.00  0.00     0.128 C 
HETATM    6  C   UNK N   1      33.968  14.132   9.080  0.00  0.00     0.104 A 
HETATM    7  C   UNK N   1      33.429  12.906   8.610  0.00  0.00     0.268 A 
HETATM    8  N   UNK N   1      33.687  11.728   9.270  0.00  0.00    -0.260 N 
HETATM    9  C   UNK N   1      34.441  11.723  10.423  0.00  0.00     0.337 A 
HETATM   10  N   UNK N   1      34.966  12.903  10.941  0.00  0.00    -0.262 N 
HETATM   11  O   UNK N   1      32.742  12.880   7.601  0.00  0.00    -0.267 OA
HETATM   12  O   UNK N   1      34.606  10.666  11.014  0.00  0.00    -0.246 OA
HETATM   13  O   UNK N   1      35.699  17.546  10.303  0.00  0.00    -0.267 OA
HETATM   14  C   UNK N   1      33.933  17.858   8.387  0.00  0.00     0.161 C 
HETATM   15  C   UNK N   1      36.565  15.406  11.617  0.00  0.00     0.056 C 
ENDROOT
BRANCH  10  16
HETATM   16  C   UNK N   1      35.527  12.849  12.297  0.00  0.00     0.046 A 
HETATM   17  C   UNK N   1      36.731  12.171  12.591  0.00  0.00     0.059 A 
HETATM   18  C   UNK N   1      37.170  12.014  13.916  0.00  0.00     0.036 A 
HETATM   19  C   UNK N   1      36.391  12.531  14.961  0.00  0.00     0.029 A 
HETATM   20  C   UNK N   1      35.186  13.169  14.696  0.00  0.00     0.004 A 
HETATM   21  C   UNK N   1      34.746  13.296  13.383  0.00  0.00     0.030 A 
BRANCH  18  22
HETATM   22  N   UNK N   1      38.374  11.293  14.167  0.00  0.00    -0.327 N 
HETATM   23  C   UNK N   1      38.458   9.976  14.507  0.00  0.00     0.218 C 
HETATM   24  C   UNK N   1      39.798   9.359  14.706  0.00  0.00     0.117 C 
HETATM   25  O   UNK N   1      37.460   9.286  14.641  0.00  0.00    -0.274 OA
HETATM   26  H   UNK N   1      39.219  11.791  14.088  0.00  0.00     0.169 HD
ENDBRANCH  18  22
ENDBRANCH  10  16
BRANCH   8  27
HETATM   27  C   UNK N   1      33.146  10.453   8.740  0.00  0.00     0.098 A 
HETATM   28  C   UNK N   1      33.417  10.308   7.243  0.00  0.00     0.028 A 
HETATM   29  C   UNK N   1      34.264   9.547   8.225  0.00  0.00     0.028 A 
ENDBRANCH   8  27
BRANCH   5  30
HETATM   30  N   UNK N   1      32.796  15.355   7.280  0.00  0.00    -0.339 N 
HETATM   31  H   UNK N   1      32.982  14.570   6.714  0.00  0.00     0.167 HD
BRANCH  30  32
HETATM   32  C   UNK N   1      31.720  16.127   6.728  0.00  0.00     0.072 A 
HETATM   33  C   UNK N   1      31.583  16.403   5.364  0.00  0.00     0.034 A 
HETATM   34  C   UNK N   1      30.522  17.169   4.879  0.00  0.00     0.020 A 
HETATM   35  C   UNK N   1      29.558  17.654   5.759  0.00  0.00     0.009 A 
HETATM   36  C   UNK N   1      29.652  17.358   7.120  0.00  0.00     0.062 A 
HETATM   37  I   UNK N   1      27.968  18.820   5.028  0.00  0.00    -0.044 I 
HETATM   38  C   UNK N   1      30.724  16.598   7.604  0.00  0.00     0.144 A 
HETATM   39  F   UNK N   1      30.791  16.316   8.928  0.00  0.00    -0.204 F 
ENDBRANCH  30  32
ENDBRANCH   5  30
TORSDOF 5
ENDMDL
MODEL 5
REMARK VINA RESULT:      -8.0      4.363      9.241
REMARK  5 active torsions:
REMARK  status: ('A' for Active; 'I' for Inactive)
REMARK    1  A    between atoms: C_5  and  N_16 
REMARK    2  A    between atoms: N_8  and  C_11 
REMARK    3  A    between atoms: N_10  and  C_26 
REMARK    4  A    between atoms: N_16  and  C_17 
REMARK    5  A    between atoms: C_28  and  N_32 
REMARK       I    between atoms: N_32  and  C_33 
ROOT
HETATM    1  C   UNK N   1      30.748  15.504   5.653  0.00  0.00     0.075 A 
HETATM    2  C   UNK N   1      31.707  14.495   5.312  0.00  0.00     0.035 C 
HETATM    3  C   UNK N   1      31.560  13.755   4.140  0.00  0.00     0.257 C 
HETATM    4  N   UNK N   1      30.484  13.940   3.308  0.00  0.00    -0.303 N 
HETATM    5  C   UNK N   1      29.454  14.792   3.653  0.00  0.00     0.128 C 
HETATM    6  C   UNK N   1      29.573  15.588   4.848  0.00  0.00     0.104 A 
HETATM    7  C   UNK N   1      28.542  16.473   5.256  0.00  0.00     0.268 A 
HETATM    8  N   UNK N   1      28.684  17.242   6.387  0.00  0.00    -0.260 N 
HETATM    9  C   UNK N   1      29.849  17.195   7.122  0.00  0.00     0.337 A 
HETATM   10  N   UNK N   1      30.902  16.366   6.746  0.00  0.00    -0.262 N 
HETATM   11  O   UNK N   1      27.505  16.550   4.616  0.00  0.00    -0.267 OA
HETATM   12  O   UNK N   1      29.963  17.930   8.091  0.00  0.00    -0.246 OA
HETATM   13  O   UNK N   1      32.413  12.925   3.851  0.00  0.00    -0.267 OA
HETATM   14  C   UNK N   1      30.509  13.191   2.065  0.00  0.00     0.161 C 
HETATM   15  C   UNK N   1      32.849  14.088   6.199  0.00  0.00     0.056 C 
ENDROOT
BRANCH  10  16
HETATM   16  C   UNK N   1      32.190  16.568   7.421  0.00  0.00     0.046 A 
HETATM   17  C   UNK N   1      32.512  15.932   8.641  0.00  0.00     0.059 A 
HETATM   18  C   UNK N   1      33.689  16.252   9.336  0.00  0.00     0.036 A 
HETATM   19  C   UNK N   1      34.550  17.228   8.813  0.00  0.00     0.029 A 
HETATM   20  C   UNK N   1      34.233  17.891   7.635  0.00  0.00     0.004 A 
HETATM   21  C   UNK N   1      33.052  17.587   6.966  0.00  0.00     0.030 A 
BRANCH  18  22
HETATM   22  N   UNK N   1      33.957  15.609  10.580  0.00  0.00    -0.327 N 
HETATM   23  C   UNK N   1      34.763  14.525  10.759  0.00  0.00     0.218 C 
HETATM   24  C   UNK N   1      34.967  13.986  12.132  0.00  0.00     0.117 C 
HETATM   25  O   UNK N   1      35.333  13.991   9.821  0.00  0.00    -0.274 OA
HETATM   26  H   UNK N   1      33.521  15.980  11.380  0.00  0.00     0.169 HD
ENDBRANCH  18  22
ENDBRANCH  10  16
BRANCH   8  27
HETATM   27  C   UNK N   1      27.578  18.131   6.818  0.00  0.00     0.098 A 
HETATM   28  C   UNK N   1      28.100  19.488   7.288  0.00  0.00     0.028 A 
HETATM   29  C   UNK N   1      27.480  19.367   5.924  0.00  0.00     0.028 A 
ENDBRANCH   8  27
BRANCH   5  30
HETATM   30  N   UNK N   1      28.265  14.962   2.847  0.00  0.00    -0.339 N 
HETATM   31  H   UNK N   1      28.196  15.892   2.527  0.00  0.00     0.167 HD
BRANCH  30  32
HETATM   32  C   UNK N   1      27.156  14.186   2.370  0.00  0.00     0.072 A 
HETATM   33  C   UNK N   1      27.127  12.788   2.378  0.00  0.00     0.034 A 
HETATM   34  C   UNK N   1      26.027  12.080   1.893  0.00  0.00     0.020 A 
HETATM   35  C   UNK N   1      24.917  12.769   1.410  0.00  0.00     0.009 A 
HETATM   36  C   UNK N   1      24.906  14.165   1.428  0.00  0.00     0.062 A 
HETATM   37  I   UNK N   1      23.266  11.699   0.665  0.00  0.00    -0.044 I 
HETATM   38  C   UNK N   1      26.017  14.871   1.907  0.00  0.00     0.144 A 
HETATM   39  F   UNK N   1      25.983  16.226   1.922  0.00  0.00    -0.204 F 
ENDBRANCH  30  32
ENDBRANCH   5  30
TORSDOF 5
ENDMDL
MODEL 6
REMARK VINA RESULT:      -7.8      3.985      8.714
REMARK  5 active torsions:
REMARK  status: ('A' for Active; 'I' for Inactive)
REMARK    1  A    between atoms: C_5  and  N_16 
REMARK    2  A    between atoms: N_8  and  C_11 
REMARK    3  A    between atoms: N_10  and  C_26 
REMARK    4  A    between atoms: N_16  and  C_17 
REMARK    5  A    between atoms: C_28  and  N_32 
REMARK       I    between atoms: N_32  and  C_33 
ROOT
HETATM    1  C   UNK N   1      28.793  15.762   4.226  0.00  0.00     0.075 A 
HETATM    2  C   UNK N   1      29.443  14.493   4.087  0.00  0.00     0.035 C 
HETATM    3  C   UNK N   1      28.932  13.534   3.214  0.00  0.00     0.257 C 
HETATM    4  N   UNK N   1      27.781  13.759   2.500  0.00  0.00    -0.303 N 
HETATM    5  C   UNK N   1      27.031  14.900   2.697  0.00  0.00     0.128 C 
HETATM    6  C   UNK N   1      27.532  15.924   3.579  0.00  0.00     0.104 A 
HETATM    7  C   UNK N   1      26.799  17.114   3.826  0.00  0.00     0.268 A 
HETATM    8  N   UNK N   1      27.303  18.090   4.653  0.00  0.00    -0.260 N 
HETATM    9  C   UNK N   1      28.549  17.947   5.224  0.00  0.00     0.337 A 
HETATM   10  N   UNK N   1      29.320  16.812   4.987  0.00  0.00    -0.262 N 
HETATM   11  O   UNK N   1      25.699  17.278   3.320  0.00  0.00    -0.267 OA
HETATM   12  O   UNK N   1      28.990  18.856   5.910  0.00  0.00    -0.246 OA
HETATM   13  O   UNK N   1      29.528  12.472   3.084  0.00  0.00    -0.267 OA
HETATM   14  C   UNK N   1      27.421  12.730   1.541  0.00  0.00     0.161 C 
HETATM   15  C   UNK N   1      30.621  14.059   4.912  0.00  0.00     0.056 C 
ENDROOT
BRANCH  10  16
HETATM   16  C   UNK N   1      30.725  16.855   5.413  0.00  0.00     0.046 A 
HETATM   17  C   UNK N   1      31.122  16.573   6.739  0.00  0.00     0.059 A 
HETATM   18  C   UNK N   1      32.451  16.759   7.153  0.00  0.00     0.036 A 
HETATM   19  C   UNK N   1      33.393  17.244   6.234  0.00  0.00     0.029 A 
HETATM   20  C   UNK N   1      33.015  17.562   4.937  0.00  0.00     0.004 A 
HETATM   21  C   UNK N   1      31.691  17.400   4.542  0.00  0.00     0.030 A 
BRANCH  18  22
HETATM   22  N   UNK N   1      32.799  16.493   8.510  0.00  0.00    -0.327 N 
HETATM   23  C   UNK N   1      33.414  15.367   8.969  0.00  0.00     0.218 C 
HETATM   24  C   UNK N   1      33.740  15.252  10.417  0.00  0.00     0.117 C 
HETATM   25  O   UNK N   1      33.716  14.453   8.217  0.00  0.00    -0.274 OA
HETATM   26  H   UNK N   1      32.574  17.183   9.174  0.00  0.00     0.169 HD
ENDBRANCH  18  22
ENDBRANCH  10  16
BRANCH   8  27
HETATM   27  C   UNK N   1      26.503  19.307   4.929  0.00  0.00     0.098 A 
HETATM   28  C   UNK N   1      27.374  20.562   4.929  0.00  0.00     0.028 A 
HETATM   29  C   UNK N   1      26.513  20.261   3.734  0.00  0.00     0.028 A 
ENDBRANCH   8  27
BRANCH   5  30
HETATM   30  N   UNK N   1      25.774  15.146   2.025  0.00  0.00    -0.339 N 
HETATM   31  H   UNK N   1      25.794  16.018   1.566  0.00  0.00     0.167 HD
BRANCH  30  32
HETATM   32  C   UNK N   1      24.507  14.503   1.824  0.00  0.00     0.072 A 
HETATM   33  C   UNK N   1      24.060  14.042   0.581  0.00  0.00     0.034 A 
HETATM   34  C   UNK N   1      22.812  13.433   0.438  0.00  0.00     0.020 A 
HETATM   35  C   UNK N   1      21.996  13.252   1.552  0.00  0.00     0.009 A 
HETATM   36  C   UNK N   1      22.437  13.670   2.809  0.00  0.00     0.062 A 
HETATM   37  I   UNK N   1      20.110  12.348   1.329  0.00  0.00    -0.044 I 
HETATM   38  C   UNK N   1      23.685  14.290   2.947  0.00  0.00     0.144 A 
HETATM   39  F   UNK N   1      24.097  14.681   4.177  0.00  0.00    -0.204 F 
ENDBRANCH  30  32
ENDBRANCH   5  30
TORSDOF 5
ENDMDL
MODEL 7
REMARK VINA RESULT:      -7.8      8.000     11.819
REMARK  5 active torsions:
REMARK  status: ('A' for Active; 'I' for Inactive)
REMARK    1  A    between atoms: C_5  and  N_16 
REMARK    2  A    between atoms: N_8  and  C_11 
REMARK    3  A    between atoms: N_10  and  C_26 
REMARK    4  A    between atoms: N_16  and  C_17 
REMARK    5  A    between atoms: C_28  and  N_32 
REMARK       I    between atoms: N_32  and  C_33 
ROOT
HETATM    1  C   UNK N   1      34.196  13.535   9.667  0.00  0.00     0.075 A 
HETATM    2  C   UNK N   1      34.321  14.902  10.078  0.00  0.00     0.035 C 
HETATM    3  C   UNK N   1      34.995  15.224  11.254  0.00  0.00     0.257 C 
HETATM    4  N   UNK N   1      35.518  14.249  12.067  0.00  0.00    -0.303 N 
HETATM    5  C   UNK N   1      35.306  12.911  11.803  0.00  0.00     0.128 C 
HETATM    6  C   UNK N   1      34.628  12.535  10.589  0.00  0.00     0.104 A 
HETATM    7  C   UNK N   1      34.374  11.176  10.271  0.00  0.00     0.268 A 
HETATM    8  N   UNK N   1      33.746  10.836   9.096  0.00  0.00    -0.260 N 
HETATM    9  C   UNK N   1      33.388  11.808   8.188  0.00  0.00     0.337 A 
HETATM   10  N   UNK N   1      33.643  13.153   8.440  0.00  0.00    -0.262 N 
HETATM   11  O   UNK N   1      34.695  10.290  11.047  0.00  0.00    -0.267 OA
HETATM   12  O   UNK N   1      32.880  11.468   7.130  0.00  0.00    -0.246 OA
HETATM   13  O   UNK N   1      35.123  16.402  11.563  0.00  0.00    -0.267 OA
HETATM   14  C   UNK N   1      36.295  14.719  13.200  0.00  0.00     0.161 C 
HETATM   15  C   UNK N   1      33.674  16.055   9.363  0.00  0.00     0.056 C 
ENDROOT
BRANCH  10  16
HETATM   16  C   UNK N   1      33.473  14.089   7.321  0.00  0.00     0.046 A 
HETATM   17  C   UNK N   1      32.207  14.579   6.931  0.00  0.00     0.059 A 
HETATM   18  C   UNK N   1      32.057  15.359   5.772  0.00  0.00     0.036 A 
HETATM   19  C   UNK N   1      33.183  15.643   4.987  0.00  0.00     0.029 A 
HETATM   20  C   UNK N   1      34.431  15.140   5.333  0.00  0.00     0.004 A 
HETATM   21  C   UNK N   1      34.566  14.346   6.467  0.00  0.00     0.030 A 
BRANCH  18  22
HETATM   22  N   UNK N   1      30.754  15.804   5.400  0.00  0.00    -0.327 N 
HETATM   23  C   UNK N   1      30.056  16.812   5.995  0.00  0.00     0.218 C 
HETATM   24  C   UNK N   1      28.714  17.180   5.467  0.00  0.00     0.117 C 
HETATM   25  O   UNK N   1      30.511  17.429   6.945  0.00  0.00    -0.274 OA
HETATM   26  H   UNK N   1      30.321  15.342   4.647  0.00  0.00     0.169 HD
ENDBRANCH  18  22
ENDBRANCH  10  16
BRANCH   8  27
HETATM   27  C   UNK N   1      33.455   9.411   8.801  0.00  0.00     0.098 A 
HETATM   28  C   UNK N   1      32.870   8.696  10.017  0.00  0.00     0.028 A 
HETATM   29  C   UNK N   1      31.958   9.119   8.899  0.00  0.00     0.028 A 
ENDBRANCH   8  27
BRANCH   5  30
HETATM   30  N   UNK N   1      35.771  11.850  12.670  0.00  0.00    -0.339 N 
HETATM   31  H   UNK N   1      36.441  11.296  12.207  0.00  0.00     0.167 HD
BRANCH  30  32
HETATM   32  C   UNK N   1      35.553  11.363  14.003  0.00  0.00     0.072 A 
HETATM   33  C   UNK N   1      34.352  10.788  14.431  0.00  0.00     0.034 A 
HETATM   34  C   UNK N   1      34.188  10.339  15.742  0.00  0.00     0.020 A 
HETATM   35  C   UNK N   1      35.242  10.437  16.646  0.00  0.00     0.009 A 
HETATM   36  C   UNK N   1      36.463  10.971  16.231  0.00  0.00     0.062 A 
HETATM   37  I   UNK N   1      34.986   9.773  18.625  0.00  0.00    -0.044 I 
HETATM   38  C   UNK N   1      36.620  11.430  14.917  0.00  0.00     0.144 A 
HETATM   39  F   UNK N   1      37.817  11.939  14.533  0.00  0.00    -0.204 F 
ENDBRANCH  30  32
ENDBRANCH   5  30
TORSDOF 5
ENDMDL
MODEL 8
REMARK VINA RESULT:      -7.8      7.835     13.119
REMARK  5 active torsions:
REMARK  status: ('A' for Active; 'I' for Inactive)
REMARK    1  A    between atoms: C_5  and  N_16 
REMARK    2  A    between atoms: N_8  and  C_11 
REMARK    3  A    between atoms: N_10  and  C_26 
REMARK    4  A    between atoms: N_16  and  C_17 
REMARK    5  A    between atoms: C_28  and  N_32 
REMARK       I    between atoms: N_32  and  C_33 
ROOT
HETATM    1  C   UNK N   1      35.120  13.086  10.125  0.00  0.00     0.075 A 
HETATM    2  C   UNK N   1      35.982  14.105  10.646  0.00  0.00     0.035 C 
HETATM    3  C   UNK N   1      35.832  15.429  10.237  0.00  0.00     0.257 C 
HETATM    4  N   UNK N   1      34.892  15.785   9.302  0.00  0.00    -0.303 N 
HETATM    5  C   UNK N   1      34.131  14.832   8.657  0.00  0.00     0.128 C 
HETATM    6  C   UNK N   1      34.243  13.454   9.061  0.00  0.00     0.104 A 
HETATM    7  C   UNK N   1      33.492  12.430   8.427  0.00  0.00     0.268 A 
HETATM    8  N   UNK N   1      33.596  11.124   8.843  0.00  0.00    -0.260 N 
HETATM    9  C   UNK N   1      34.401  10.792   9.910  0.00  0.00     0.337 A 
HETATM   10  N   UNK N   1      35.134  11.764  10.585  0.00  0.00    -0.262 N 
HETATM   11  O   UNK N   1      32.756  12.695   7.490  0.00  0.00    -0.267 OA
HETATM   12  O   UNK N   1      34.430   9.630  10.288  0.00  0.00    -0.246 OA
HETATM   13  O   UNK N   1      36.555  16.288  10.726  0.00  0.00    -0.267 OA
HETATM   14  C   UNK N   1      34.760  17.209   9.049  0.00  0.00     0.161 C 
HETATM   15  C   UNK N   1      37.143  13.835  11.561  0.00  0.00     0.056 C 
ENDROOT
BRANCH  10  16
HETATM   16  C   UNK N   1      35.752  11.374  11.859  0.00  0.00     0.046 A 
HETATM   17  C   UNK N   1      35.224  11.769  13.108  0.00  0.00     0.059 A 
HETATM   18  C   UNK N   1      35.912  11.503  14.303  0.00  0.00     0.036 A 
HETATM   19  C   UNK N   1      37.149  10.845  14.249  0.00  0.00     0.029 A 
HETATM   20  C   UNK N   1      37.703  10.481  13.029  0.00  0.00     0.004 A 
HETATM   21  C   UNK N   1      37.028  10.772  11.849  0.00  0.00     0.030 A 
BRANCH  18  22
HETATM   22  N   UNK N   1      35.356  11.950  15.538  0.00  0.00    -0.327 N 
HETATM   23  C   UNK N   1      35.687  13.099  16.191  0.00  0.00     0.218 C 
HETATM   24  C   UNK N   1      34.991  13.443  17.462  0.00  0.00     0.117 C 
HETATM   25  O   UNK N   1      36.535  13.861  15.754  0.00  0.00    -0.274 OA
HETATM   26  H   UNK N   1      34.673  11.378  15.955  0.00  0.00     0.169 HD
ENDBRANCH  18  22
ENDBRANCH  10  16
BRANCH   8  27
HETATM   27  C   UNK N   1      32.832  10.064   8.141  0.00  0.00     0.098 A 
HETATM   28  C   UNK N   1      32.991  10.169   6.625  0.00  0.00     0.028 A 
HETATM   29  C   UNK N   1      33.763   9.122   7.377  0.00  0.00     0.028 A 
ENDBRANCH   8  27
BRANCH   5  30
HETATM   30  N   UNK N   1      33.183  15.151   7.611  0.00  0.00    -0.339 N 
HETATM   31  H   UNK N   1      33.419  14.682   6.778  0.00  0.00     0.167 HD
BRANCH  30  32
HETATM   32  C   UNK N   1      32.002  15.945   7.422  0.00  0.00     0.072 A 
HETATM   33  C   UNK N   1      31.247  16.475   8.473  0.00  0.00     0.034 A 
HETATM   34  C   UNK N   1      30.099  17.232   8.234  0.00  0.00     0.020 A 
HETATM   35  C   UNK N   1      29.700  17.493   6.925  0.00  0.00     0.009 A 
HETATM   36  C   UNK N   1      30.460  17.007   5.860  0.00  0.00     0.062 A 
HETATM   37  I   UNK N   1      27.961  18.621   6.569  0.00  0.00    -0.044 I 
HETATM   38  C   UNK N   1      31.606  16.240   6.104  0.00  0.00     0.144 A 
HETATM   39  F   UNK N   1      32.333  15.784   5.054  0.00  0.00    -0.204 F 
ENDBRANCH  30  32
ENDBRANCH   5  30
TORSDOF 5
ENDMDL
MODEL 9
REMARK VINA RESULT:      -7.8      6.192     10.023
REMARK  5 active torsions:
REMARK  status: ('A' for Active; 'I' for Inactive)
REMARK    1  A    between atoms: C_5  and  N_16 
REMARK    2  A    between atoms: N_8  and  C_11 
REMARK    3  A    between atoms: N_10  and  C_26 
REMARK    4  A    between atoms: N_16  and  C_17 
REMARK    5  A    between atoms: C_28  and  N_32 
REMARK       I    between atoms: N_32  and  C_33 
ROOT
HETATM    1  C   UNK N   1      33.726  14.978   7.817  0.00  0.00     0.075 A 
HETATM    2  C   UNK N   1      33.885  16.271   8.415  0.00  0.00     0.035 C 
HETATM    3  C   UNK N   1      34.742  16.441   9.501  0.00  0.00     0.257 C 
HETATM    4  N   UNK N   1      35.419  15.381  10.050  0.00  0.00    -0.303 N 
HETATM    5  C   UNK N   1      35.199  14.090   9.613  0.00  0.00     0.128 C 
HETATM    6  C   UNK N   1      34.333  13.872   8.482  0.00  0.00     0.104 A 
HETATM    7  C   UNK N   1      34.063  12.566   7.996  0.00  0.00     0.268 A 
HETATM    8  N   UNK N   1      33.253  12.380   6.901  0.00  0.00    -0.260 N 
HETATM    9  C   UNK N   1      32.721  13.460   6.232  0.00  0.00     0.337 A 
HETATM   10  N   UNK N   1      32.982  14.762   6.651  0.00  0.00    -0.262 N 
HETATM   11  O   UNK N   1      34.534  11.589   8.556  0.00  0.00    -0.267 OA
HETATM   12  O   UNK N   1      32.049  13.261   5.232  0.00  0.00    -0.246 OA
HETATM   13  O   UNK N   1      34.890  17.563   9.970  0.00  0.00    -0.267 OA
HETATM   14  C   UNK N   1      36.366  15.710  11.100  0.00  0.00     0.161 C 
HETATM   15  C   UNK N   1      33.097  17.485   8.011  0.00  0.00     0.056 C 
ENDROOT
BRANCH  10  16
HETATM   16  C   UNK N   1      32.600  15.849   5.741  0.00  0.00     0.046 A 
HETATM   17  C   UNK N   1      31.277  16.336   5.657  0.00  0.00     0.059 A 
HETATM   18  C   UNK N   1      30.910  17.276   4.680  0.00  0.00     0.036 A 
HETATM   19  C   UNK N   1      31.875  17.726   3.767  0.00  0.00     0.029 A 
HETATM   20  C   UNK N   1      33.172  17.233   3.809  0.00  0.00     0.004 A 
HETATM   21  C   UNK N   1      33.520  16.282   4.763  0.00  0.00     0.030 A 
BRANCH  18  22
HETATM   22  N   UNK N   1      29.555  17.714   4.612  0.00  0.00    -0.327 N 
HETATM   23  C   UNK N   1      28.588  17.191   3.808  0.00  0.00     0.218 C 
HETATM   24  C   UNK N   1      27.206  17.740   3.876  0.00  0.00     0.117 C 
HETATM   25  O   UNK N   1      28.824  16.272   3.039  0.00  0.00    -0.274 OA
HETATM   26  H   UNK N   1      29.296  18.460   5.198  0.00  0.00     0.169 HD
ENDBRANCH  18  22
ENDBRANCH  10  16
BRANCH   8  27
HETATM   27  C   UNK N   1      32.951  11.005   6.433  0.00  0.00     0.098 A 
HETATM   28  C   UNK N   1      33.158  10.867   4.926  0.00  0.00     0.028 A 
HETATM   29  C   UNK N   1      34.197  10.325   5.866  0.00  0.00     0.028 A 
ENDBRANCH   8  27
BRANCH   5  30
HETATM   30  N   UNK N   1      35.831  12.934  10.210  0.00  0.00    -0.339 N 
HETATM   31  H   UNK N   1      36.329  12.425   9.530  0.00  0.00     0.167 HD
BRANCH  30  32
HETATM   32  C   UNK N   1      35.953  12.305  11.495  0.00  0.00     0.072 A 
HETATM   33  C   UNK N   1      34.875  11.748  12.190  0.00  0.00     0.034 A 
HETATM   34  C   UNK N   1      35.046  11.157  13.443  0.00  0.00     0.020 A 
HETATM   35  C   UNK N   1      36.315  11.093  14.013  0.00  0.00     0.009 A 
HETATM   36  C   UNK N   1      37.412  11.608  13.320  0.00  0.00     0.062 A 
HETATM   37  I   UNK N   1      36.566  10.215  15.908  0.00  0.00    -0.044 I 
HETATM   38  C   UNK N   1      37.235  12.209  12.067  0.00  0.00     0.144 A 
HETATM   39  F   UNK N   1      38.315  12.696  11.408  0.00  0.00    -0.204 F 
ENDBRANCH  30  32
ENDBRANCH   5  30
TORSDOF 5
ENDMDL
