MODEL 1
REMARK VINA RESULT:      -9.4      0.000      0.000
REMARK  6 active torsions:
REMARK  status: ('A' for Active; 'I' for Inactive)
REMARK    1  A    between atoms: C_1  and  S_9 
REMARK    2  A    between atoms: S_9  and  N_10 
REMARK    3  A    between atoms: N_10  and  C_11 
REMARK    4  A    between atoms: C_15  and  C_18 
REMARK    5  A    between atoms: C_21  and  C_32 
REMARK    6  A    between atoms: C_23  and  C_24 
REMARK       I    between atoms: C_29  and  N_36 
ROOT
HETATM    1  C   UNK N   1      23.674  18.148   5.066  0.00  0.00     0.066 A 
HETATM    2  N   UNK N   1      24.984  18.312   5.486  0.00  0.00    -0.351 N 
ATOM      3  HN  UNK N   1      25.410  17.721   6.200  1.00  0.00     0.166 HD
HETATM    4  C   UNK N   1      25.650  19.312   4.878  0.00  0.00     0.059 A 
HETATM    5  S   UNK N   1      24.659  20.023   3.786  0.00  0.00    -0.071 SA
HETATM    6  C   UNK N   1      23.303  19.074   4.009  0.00  0.00     0.061 A 
ENDROOT
BRANCH   1   7
HETATM    7  C   UNK N   1      22.887  17.128   5.852  0.00  0.00     0.033 A 
HETATM    8  C   UNK N   1      21.715  17.615   6.472  0.00  0.00     0.017 A 
HETATM    9  C   UNK N   1      20.853  16.786   7.184  0.00  0.00     0.003 A 
HETATM   10  C   UNK N   1      21.145  15.435   7.306  0.00  0.00     0.033 A 
HETATM   11  C   UNK N   1      22.281  14.916   6.686  0.00  0.00     0.082 A 
HETATM   12  C   UNK N   1      23.142  15.743   5.949  0.00  0.00     0.156 A 
HETATM   13  F   UNK N   1      24.179  15.158   5.334  0.00  0.00    -0.203 F 
BRANCH  11  14
HETATM   14  N   UNK N   1      22.585  13.547   6.803  0.00  0.00    -0.277 N 
HETATM   15  H   UNK N   1      22.109  12.896   6.238  0.00  0.00     0.179 HD
BRANCH  14  16
HETATM   16  S   UNK N   1      23.792  12.982   7.936  0.00  0.00     0.269 S 
HETATM   17  O   UNK N   1      24.924  14.020   7.905  0.00  0.00    -0.200 OA
HETATM   18  O   UNK N   1      24.415  11.746   7.265  0.00  0.00    -0.200 OA
BRANCH  16  19
HETATM   19  C   UNK N   1      23.078  12.611   9.535  0.00  0.00     0.156 A 
HETATM   20  C   UNK N   1      23.931  12.378  10.625  0.00  0.00     0.142 A 
HETATM   21  C   UNK N   1      23.399  12.056  11.875  0.00  0.00     0.044 A 
HETATM   22  F   UNK N   1      25.277  12.455  10.471  0.00  0.00    -0.204 F 
HETATM   23  C   UNK N   1      22.016  11.966  12.042  0.00  0.00     0.006 A 
HETATM   24  C   UNK N   1      21.163  12.197  10.960  0.00  0.00     0.044 A 
HETATM   25  C   UNK N   1      21.690  12.518   9.706  0.00  0.00     0.142 A 
HETATM   26  F   UNK N   1      20.850  12.729   8.663  0.00  0.00    -0.204 F 
ENDBRANCH  16  19
ENDBRANCH  14  16
ENDBRANCH  11  14
ENDBRANCH   1   7
BRANCH   6  27
HETATM   27  C   UNK N   1      22.102  19.342   3.154  0.00  0.00     0.070 A 
HETATM   28  C   UNK N   1      21.948  20.622   2.603  0.00  0.00     0.049 A 
HETATM   29  C   UNK N   1      20.859  20.892   1.786  0.00  0.00     0.108 A 
HETATM   30  N   UNK N   1      19.968  19.907   1.505  0.00  0.00    -0.202 N 
HETATM   31  C   UNK N   1      20.139  18.660   2.008  0.00  0.00     0.676 A 
ATOM     32  HN  UNK N   1      19.163  20.106   0.910  1.00  0.00     0.183 HD
HETATM   33  N   UNK N   1      21.199  18.377   2.817  0.00  0.00    -0.191 N 
HETATM   34  N   UNK N   1      19.209  17.648   1.687  0.00  0.00    -0.234 N 
ATOM     35  HN  UNK N   1      21.318  17.430   3.176  1.00  0.00     0.184 HD
HETATM   36  H   UNK N   1      18.714  17.611   0.838  0.00  0.00     0.174 HD
HETATM   37  H   UNK N   1      19.046  16.940   2.351  0.00  0.00     0.174 HD
ENDBRANCH   6  27
BRANCH   4  38
HETATM   38  C   UNK N   1      27.049  19.729   5.232  0.00  0.00    -0.002 C 
HETATM   39  C   UNK N   1      27.920  19.775   3.993  0.00  0.00     0.021 C 
HETATM   40  C   UNK N   1      27.672  18.763   6.226  0.00  0.00     0.021 C 
HETATM   41  C   UNK N   1      27.008  21.106   5.867  0.00  0.00     0.021 C 
ENDBRANCH   4  38
TORSDOF 6
ENDMDL
MODEL 2
REMARK VINA RESULT:      -9.2      2.957      5.081
REMARK  6 active torsions:
REMARK  status: ('A' for Active; 'I' for Inactive)
REMARK    1  A    between atoms: C_1  and  S_9 
REMARK    2  A    between atoms: S_9  and  N_10 
REMARK    3  A    between atoms: N_10  and  C_11 
REMARK    4  A    between atoms: C_15  and  C_18 
REMARK    5  A    between atoms: C_21  and  C_32 
REMARK    6  A    between atoms: C_23  and  C_24 
REMARK       I    between atoms: C_29  and  N_36 
ROOT
HETATM    1  C   UNK N   1      19.975  15.642   3.641  0.00  0.00     0.066 A 
HETATM    2  N   UNK N   1      19.470  14.445   3.160  0.00  0.00    -0.351 N 
ATOM      3  HN  UNK N   1      19.194  13.678   3.774  1.00  0.00     0.166 HD
HETATM    4  C   UNK N   1      19.371  14.373   1.819  0.00  0.00     0.059 A 
HETATM    5  S   UNK N   1      19.886  15.786   1.172  0.00  0.00    -0.071 SA
HETATM    6  C   UNK N   1      20.254  16.600   2.584  0.00  0.00     0.061 A 
ENDROOT
BRANCH   1   7
HETATM    7  C   UNK N   1      20.222  15.664   5.129  0.00  0.00     0.033 A 
HETATM    8  C   UNK N   1      19.242  16.333   5.896  0.00  0.00     0.017 A 
HETATM    9  C   UNK N   1      19.298  16.390   7.285  0.00  0.00     0.003 A 
HETATM   10  C   UNK N   1      20.350  15.783   7.956  0.00  0.00     0.033 A 
HETATM   11  C   UNK N   1      21.322  15.093   7.233  0.00  0.00     0.082 A 
HETATM   12  C   UNK N   1      21.260  15.014   5.833  0.00  0.00     0.156 A 
HETATM   13  F   UNK N   1      22.198  14.283   5.216  0.00  0.00    -0.203 F 
BRANCH  11  14
HETATM   14  N   UNK N   1      22.393  14.474   7.904  0.00  0.00    -0.277 N 
HETATM   15  H   UNK N   1      23.169  15.013   8.178  0.00  0.00     0.179 HD
BRANCH  14  16
HETATM   16  S   UNK N   1      22.367  12.761   8.259  0.00  0.00     0.269 S 
HETATM   17  O   UNK N   1      23.283  12.096   7.221  0.00  0.00    -0.200 OA
HETATM   18  O   UNK N   1      20.959  12.295   7.853  0.00  0.00    -0.200 OA
BRANCH  16  19
HETATM   19  C   UNK N   1      22.728  12.436   9.982  0.00  0.00     0.156 A 
HETATM   20  C   UNK N   1      24.062  12.243  10.374  0.00  0.00     0.142 A 
HETATM   21  C   UNK N   1      24.366  11.957  11.707  0.00  0.00     0.044 A 
HETATM   22  F   UNK N   1      25.062  12.321   9.462  0.00  0.00    -0.204 F 
HETATM   23  C   UNK N   1      23.343  11.866  12.652  0.00  0.00     0.006 A 
HETATM   24  C   UNK N   1      22.014  12.059  12.266  0.00  0.00     0.044 A 
HETATM   25  C   UNK N   1      21.702  12.343  10.934  0.00  0.00     0.142 A 
HETATM   26  F   UNK N   1      20.408  12.517  10.573  0.00  0.00    -0.204 F 
ENDBRANCH  16  19
ENDBRANCH  14  16
ENDBRANCH  11  14
ENDBRANCH   1   7
BRANCH   6  27
HETATM   27  C   UNK N   1      20.742  18.012   2.482  0.00  0.00     0.070 A 
HETATM   28  C   UNK N   1      21.743  18.437   3.366  0.00  0.00     0.049 A 
HETATM   29  C   UNK N   1      22.234  19.733   3.279  0.00  0.00     0.108 A 
HETATM   30  N   UNK N   1      21.759  20.569   2.320  0.00  0.00    -0.202 N 
HETATM   31  C   UNK N   1      20.817  20.144   1.442  0.00  0.00     0.676 A 
ATOM     32  HN  UNK N   1      22.113  21.523   2.259  1.00  0.00     0.183 HD
HETATM   33  N   UNK N   1      20.319  18.877   1.516  0.00  0.00    -0.191 N 
HETATM   34  N   UNK N   1      20.352  21.025   0.443  0.00  0.00    -0.234 N 
ATOM     35  HN  UNK N   1      19.620  18.571   0.839  1.00  0.00     0.184 HD
HETATM   36  H   UNK N   1      20.903  21.734   0.040  0.00  0.00     0.174 HD
HETATM   37  H   UNK N   1      19.423  20.927   0.133  0.00  0.00     0.174 HD
ENDBRANCH   6  27
BRANCH   4  38
HETATM   38  C   UNK N   1      18.935  13.146   1.071  0.00  0.00    -0.002 C 
HETATM   39  C   UNK N   1      20.109  12.516   0.349  0.00  0.00     0.021 C 
HETATM   40  C   UNK N   1      17.863  13.483   0.047  0.00  0.00     0.021 C 
HETATM   41  C   UNK N   1      18.356  12.147   2.055  0.00  0.00     0.021 C 
ENDBRANCH   4  38
TORSDOF 6
ENDMDL
MODEL 3
REMARK VINA RESULT:      -9.2      0.659      1.912
REMARK  6 active torsions:
REMARK  status: ('A' for Active; 'I' for Inactive)
REMARK    1  A    between atoms: C_1  and  S_9 
REMARK    2  A    between atoms: S_9  and  N_10 
REMARK    3  A    between atoms: N_10  and  C_11 
REMARK    4  A    between atoms: C_15  and  C_18 
REMARK    5  A    between atoms: C_21  and  C_32 
REMARK    6  A    between atoms: C_23  and  C_24 
REMARK       I    between atoms: C_29  and  N_36 
ROOT
HETATM    1  C   UNK N   1      23.526  18.018   5.038  0.00  0.00     0.066 A 
HETATM    2  N   UNK N   1      24.837  18.265   5.410  0.00  0.00    -0.351 N 
ATOM      3  HN  UNK N   1      25.326  17.703   6.107  1.00  0.00     0.166 HD
HETATM    4  C   UNK N   1      25.416  19.306   4.780  0.00  0.00     0.059 A 
HETATM    5  S   UNK N   1      24.341  19.952   3.727  0.00  0.00    -0.071 SA
HETATM    6  C   UNK N   1      23.057  18.918   3.997  0.00  0.00     0.061 A 
ENDROOT
BRANCH   1   7
HETATM    7  C   UNK N   1      22.836  16.950   5.850  0.00  0.00     0.033 A 
HETATM    8  C   UNK N   1      21.750  17.394   6.637  0.00  0.00     0.017 A 
HETATM    9  C   UNK N   1      20.977  16.520   7.396  0.00  0.00     0.003 A 
HETATM   10  C   UNK N   1      21.275  15.166   7.399  0.00  0.00     0.033 A 
HETATM   11  C   UNK N   1      22.325  14.688   6.616  0.00  0.00     0.082 A 
HETATM   12  C   UNK N   1      23.095  15.561   5.831  0.00  0.00     0.156 A 
HETATM   13  F   UNK N   1      24.047  15.018   5.061  0.00  0.00    -0.203 F 
BRANCH  11  14
HETATM   14  N   UNK N   1      22.635  13.316   6.611  0.00  0.00    -0.277 N 
HETATM   15  H   UNK N   1      22.141  12.710   6.013  0.00  0.00     0.179 HD
BRANCH  14  16
HETATM   16  S   UNK N   1      23.884  12.667   7.651  0.00  0.00     0.269 S 
HETATM   17  O   UNK N   1      25.102  13.586   7.479  0.00  0.00    -0.200 OA
HETATM   18  O   UNK N   1      24.319  11.356   6.975  0.00  0.00    -0.200 OA
BRANCH  16  19
HETATM   19  C   UNK N   1      23.290  12.415   9.321  0.00  0.00     0.156 A 
HETATM   20  C   UNK N   1      21.913  12.251   9.537  0.00  0.00     0.142 A 
HETATM   21  C   UNK N   1      21.423  12.084  10.834  0.00  0.00     0.044 A 
HETATM   22  F   UNK N   1      21.049  12.262   8.492  0.00  0.00    -0.204 F 
HETATM   23  C   UNK N   1      22.302  12.080  11.918  0.00  0.00     0.006 A 
HETATM   24  C   UNK N   1      23.674  12.243  11.707  0.00  0.00     0.044 A 
HETATM   25  C   UNK N   1      24.171  12.412  10.412  0.00  0.00     0.142 A 
HETATM   26  F   UNK N   1      25.503  12.579  10.224  0.00  0.00    -0.204 F 
ENDBRANCH  16  19
ENDBRANCH  14  16
ENDBRANCH  11  14
ENDBRANCH   1   7
BRANCH   6  27
HETATM   27  C   UNK N   1      21.812  19.107   3.187  0.00  0.00     0.070 A 
HETATM   28  C   UNK N   1      20.701  18.302   3.474  0.00  0.00     0.049 A 
HETATM   29  C   UNK N   1      19.524  18.472   2.757  0.00  0.00     0.108 A 
HETATM   30  N   UNK N   1      19.451  19.436   1.803  0.00  0.00    -0.202 N 
HETATM   31  C   UNK N   1      20.515  20.239   1.553  0.00  0.00     0.676 A 
ATOM     32  HN  UNK N   1      18.589  19.557   1.271  1.00  0.00     0.183 HD
HETATM   33  N   UNK N   1      21.680  20.083   2.243  0.00  0.00    -0.191 N 
HETATM   34  N   UNK N   1      20.408  21.245   0.570  0.00  0.00    -0.234 N 
ATOM     35  HN  UNK N   1      22.466  20.704   2.049  1.00  0.00     0.184 HD
HETATM   36  H   UNK N   1      19.568  21.709   0.351  0.00  0.00     0.174 HD
HETATM   37  H   UNK N   1      21.220  21.496   0.073  0.00  0.00     0.174 HD
ENDBRANCH   6  27
BRANCH   4  38
HETATM   38  C   UNK N   1      26.796  19.812   5.083  0.00  0.00    -0.002 C 
HETATM   39  C   UNK N   1      27.561  18.806   5.920  0.00  0.00     0.021 C 
HETATM   40  C   UNK N   1      26.741  21.129   5.841  0.00  0.00     0.021 C 
HETATM   41  C   UNK N   1      27.535  20.044   3.779  0.00  0.00     0.021 C 
ENDBRANCH   4  38
TORSDOF 6
ENDMDL
MODEL 4
REMARK VINA RESULT:      -9.1      1.984      2.638
REMARK  6 active torsions:
REMARK  status: ('A' for Active; 'I' for Inactive)
REMARK    1  A    between atoms: C_1  and  S_9 
REMARK    2  A    between atoms: S_9  and  N_10 
REMARK    3  A    between atoms: N_10  and  C_11 
REMARK    4  A    between atoms: C_15  and  C_18 
REMARK    5  A    between atoms: C_21  and  C_32 
REMARK    6  A    between atoms: C_23  and  C_24 
REMARK       I    between atoms: C_29  and  N_36 
ROOT
HETATM    1  C   UNK N   1      23.666  17.459   4.706  0.00  0.00     0.066 A 
HETATM    2  N   UNK N   1      24.952  17.724   5.149  0.00  0.00    -0.351 N 
ATOM      3  HN  UNK N   1      25.511  17.038   5.656  1.00  0.00     0.166 HD
HETATM    4  C   UNK N   1      25.406  18.958   4.859  0.00  0.00     0.059 A 
HETATM    5  S   UNK N   1      24.249  19.767   4.029  0.00  0.00    -0.071 SA
HETATM    6  C   UNK N   1      23.086  18.570   3.969  0.00  0.00     0.061 A 
ENDROOT
BRANCH   1   7
HETATM    7  C   UNK N   1      23.108  16.134   5.160  0.00  0.00     0.033 A 
HETATM    8  C   UNK N   1      23.847  14.997   4.763  0.00  0.00     0.017 A 
HETATM    9  C   UNK N   1      23.494  13.708   5.151  0.00  0.00     0.003 A 
HETATM   10  C   UNK N   1      22.375  13.514   5.947  0.00  0.00     0.033 A 
HETATM   11  C   UNK N   1      21.635  14.615   6.378  0.00  0.00     0.082 A 
HETATM   12  C   UNK N   1      21.999  15.918   6.008  0.00  0.00     0.156 A 
HETATM   13  F   UNK N   1      21.274  16.926   6.511  0.00  0.00    -0.203 F 
BRANCH  11  14
HETATM   14  N   UNK N   1      20.499  14.428   7.187  0.00  0.00    -0.277 N 
HETATM   15  H   UNK N   1      19.659  14.120   6.777  0.00  0.00     0.179 HD
BRANCH  14  16
HETATM   16  S   UNK N   1      20.554  14.735   8.909  0.00  0.00     0.269 S 
HETATM   17  O   UNK N   1      19.093  14.818   9.374  0.00  0.00    -0.200 OA
HETATM   18  O   UNK N   1      21.058  16.183   9.035  0.00  0.00    -0.200 OA
BRANCH  16  19
HETATM   19  C   UNK N   1      21.608  13.563   9.757  0.00  0.00     0.156 A 
HETATM   20  C   UNK N   1      22.977  13.532   9.451  0.00  0.00     0.142 A 
HETATM   21  C   UNK N   1      23.814  12.605  10.076  0.00  0.00     0.044 A 
HETATM   22  F   UNK N   1      23.495  14.392   8.540  0.00  0.00    -0.204 F 
HETATM   23  C   UNK N   1      23.289  11.709  11.009  0.00  0.00     0.006 A 
HETATM   24  C   UNK N   1      21.926  11.737  11.317  0.00  0.00     0.044 A 
HETATM   25  C   UNK N   1      21.083  12.661  10.694  0.00  0.00     0.142 A 
HETATM   26  F   UNK N   1      19.762  12.669  10.995  0.00  0.00    -0.204 F 
ENDBRANCH  16  19
ENDBRANCH  14  16
ENDBRANCH  11  14
ENDBRANCH   1   7
BRANCH   6  27
HETATM   27  C   UNK N   1      21.811  18.855   3.236  0.00  0.00     0.070 A 
HETATM   28  C   UNK N   1      20.662  18.136   3.592  0.00  0.00     0.049 A 
HETATM   29  C   UNK N   1      19.460  18.397   2.948  0.00  0.00     0.108 A 
HETATM   30  N   UNK N   1      19.402  19.366   1.998  0.00  0.00    -0.202 N 
HETATM   31  C   UNK N   1      20.506  20.086   1.682  0.00  0.00     0.676 A 
ATOM     32  HN  UNK N   1      18.522  19.553   1.519  1.00  0.00     0.183 HD
HETATM   33  N   UNK N   1      21.696  19.840   2.299  0.00  0.00    -0.191 N 
HETATM   34  N   UNK N   1      20.417  21.100   0.705  0.00  0.00    -0.234 N 
ATOM     35  HN  UNK N   1      22.514  20.400   2.057  1.00  0.00     0.184 HD
HETATM   36  H   UNK N   1      19.603  21.627   0.537  0.00  0.00     0.174 HD
HETATM   37  H   UNK N   1      21.214  21.290   0.158  0.00  0.00     0.174 HD
ENDBRANCH   6  27
BRANCH   4  38
HETATM   38  C   UNK N   1      26.732  19.497   5.313  0.00  0.00    -0.002 C 
HETATM   39  C   UNK N   1      26.538  20.706   6.206  0.00  0.00     0.021 C 
HETATM   40  C   UNK N   1      27.591  19.905   4.127  0.00  0.00     0.021 C 
HETATM   41  C   UNK N   1      27.466  18.417   6.083  0.00  0.00     0.021 C 
ENDBRANCH   4  38
TORSDOF 6
ENDMDL
MODEL 5
REMARK VINA RESULT:      -9.0      6.341      9.885
REMARK  6 active torsions:
REMARK  status: ('A' for Active; 'I' for Inactive)
REMARK    1  A    between atoms: C_1  and  S_9 
REMARK    2  A    between atoms: S_9  and  N_10 
REMARK    3  A    between atoms: N_10  and  C_11 
REMARK    4  A    between atoms: C_15  and  C_18 
REMARK    5  A    between atoms: C_21  and  C_32 
REMARK    6  A    between atoms: C_23  and  C_24 
REMARK       I    between atoms: C_29  and  N_36 
ROOT
HETATM    1  C   UNK N   1      32.267  16.493   7.924  0.00  0.00     0.066 A 
HETATM    2  N   UNK N   1      32.894  16.196   9.123  0.00  0.00    -0.351 N 
ATOM      3  HN  UNK N   1      32.435  16.313  10.027  1.00  0.00     0.166 HD
HETATM    4  C   UNK N   1      34.155  15.740   9.003  0.00  0.00     0.059 A 
HETATM    5  S   UNK N   1      34.544  15.668   7.414  0.00  0.00    -0.071 SA
HETATM    6  C   UNK N   1      33.099  16.203   6.768  0.00  0.00     0.061 A 
ENDROOT
BRANCH   1   7
HETATM    7  C   UNK N   1      30.913  17.141   8.069  0.00  0.00     0.033 A 
HETATM    8  C   UNK N   1      30.829  18.157   9.048  0.00  0.00     0.017 A 
HETATM    9  C   UNK N   1      29.665  18.889   9.262  0.00  0.00     0.003 A 
HETATM   10  C   UNK N   1      28.535  18.617   8.504  0.00  0.00     0.033 A 
HETATM   11  C   UNK N   1      28.588  17.637   7.513  0.00  0.00     0.082 A 
HETATM   12  C   UNK N   1      29.765  16.912   7.278  0.00  0.00     0.156 A 
HETATM   13  F   UNK N   1      29.754  16.030   6.269  0.00  0.00    -0.203 F 
BRANCH  11  14
HETATM   14  N   UNK N   1      27.447  17.355   6.738  0.00  0.00    -0.277 N 
HETATM   15  H   UNK N   1      26.761  16.745   7.093  0.00  0.00     0.179 HD
BRANCH  14  16
HETATM   16  S   UNK N   1      27.229  18.071   5.157  0.00  0.00     0.269 S 
HETATM   17  O   UNK N   1      28.476  18.929   4.901  0.00  0.00    -0.200 OA
HETATM   18  O   UNK N   1      26.107  19.106   5.344  0.00  0.00    -0.200 OA
BRANCH  16  19
HETATM   19  C   UNK N   1      26.828  16.838   3.922  0.00  0.00     0.156 A 
HETATM   20  C   UNK N   1      27.868  16.230   3.203  0.00  0.00     0.142 A 
HETATM   21  C   UNK N   1      27.579  15.289   2.213  0.00  0.00     0.044 A 
HETATM   22  F   UNK N   1      29.160  16.559   3.457  0.00  0.00    -0.204 F 
HETATM   23  C   UNK N   1      26.254  14.950   1.938  0.00  0.00     0.006 A 
HETATM   24  C   UNK N   1      25.214  15.553   2.652  0.00  0.00     0.044 A 
HETATM   25  C   UNK N   1      25.497  16.497   3.643  0.00  0.00     0.142 A 
HETATM   26  F   UNK N   1      24.478  17.080   4.319  0.00  0.00    -0.204 F 
ENDBRANCH  16  19
ENDBRANCH  14  16
ENDBRANCH  11  14
ENDBRANCH   1   7
BRANCH   6  27
HETATM   27  C   UNK N   1      32.968  16.262   5.277  0.00  0.00     0.070 A 
HETATM   28  C   UNK N   1      32.401  17.409   4.703  0.00  0.00     0.049 A 
HETATM   29  C   UNK N   1      32.289  17.503   3.322  0.00  0.00     0.108 A 
HETATM   30  N   UNK N   1      32.755  16.496   2.539  0.00  0.00    -0.202 N 
HETATM   31  C   UNK N   1      33.337  15.405   3.095  0.00  0.00     0.676 A 
ATOM     32  HN  UNK N   1      32.668  16.562   1.525  1.00  0.00     0.183 HD
HETATM   33  N   UNK N   1      33.450  15.292   4.448  0.00  0.00    -0.191 N 
HETATM   34  N   UNK N   1      33.830  14.380   2.259  0.00  0.00    -0.234 N 
ATOM     35  HN  UNK N   1      33.901  14.469   4.848  1.00  0.00     0.184 HD
HETATM   36  H   UNK N   1      34.185  14.536   1.355  0.00  0.00     0.174 HD
HETATM   37  H   UNK N   1      33.816  13.457   2.600  0.00  0.00     0.174 HD
ENDBRANCH   6  27
BRANCH   4  38
HETATM   38  C   UNK N   1      35.056  15.437  10.165  0.00  0.00    -0.002 C 
HETATM   39  C   UNK N   1      36.311  14.729   9.695  0.00  0.00     0.021 C 
HETATM   40  C   UNK N   1      34.355  14.553  11.183  0.00  0.00     0.021 C 
HETATM   41  C   UNK N   1      35.438  16.737  10.846  0.00  0.00     0.021 C 
ENDBRANCH   4  38
TORSDOF 6
ENDMDL
MODEL 6
REMARK VINA RESULT:      -8.9      3.080      7.043
REMARK  6 active torsions:
REMARK  status: ('A' for Active; 'I' for Inactive)
REMARK    1  A    between atoms: C_1  and  S_9 
REMARK    2  A    between atoms: S_9  and  N_10 
REMARK    3  A    between atoms: N_10  and  C_11 
REMARK    4  A    between atoms: C_15  and  C_18 
REMARK    5  A    between atoms: C_21  and  C_32 
REMARK    6  A    between atoms: C_23  and  C_24 
REMARK       I    between atoms: C_29  and  N_36 
ROOT
HETATM    1  C   UNK N   1      23.395  15.815   5.822  0.00  0.00     0.066 A 
HETATM    2  N   UNK N   1      23.269  14.926   6.877  0.00  0.00    -0.351 N 
ATOM      3  HN  UNK N   1      24.053  14.377   7.230  1.00  0.00     0.166 HD
HETATM    4  C   UNK N   1      22.030  14.842   7.399  0.00  0.00     0.059 A 
HETATM    5  S   UNK N   1      21.045  15.872   6.595  0.00  0.00    -0.071 SA
HETATM    6  C   UNK N   1      22.157  16.516   5.526  0.00  0.00     0.061 A 
ENDROOT
BRANCH   1   7
HETATM    7  C   UNK N   1      24.744  15.797   5.146  0.00  0.00     0.033 A 
HETATM    8  C   UNK N   1      24.713  15.734   3.735  0.00  0.00     0.017 A 
HETATM    9  C   UNK N   1      25.872  15.767   2.965  0.00  0.00     0.003 A 
HETATM   10  C   UNK N   1      27.108  15.856   3.588  0.00  0.00     0.033 A 
HETATM   11  C   UNK N   1      27.175  15.944   4.978  0.00  0.00     0.082 A 
HETATM   12  C   UNK N   1      26.009  15.932   5.759  0.00  0.00     0.156 A 
HETATM   13  F   UNK N   1      26.154  16.081   7.083  0.00  0.00    -0.203 F 
BRANCH  11  14
HETATM   14  N   UNK N   1      28.424  16.035   5.620  0.00  0.00    -0.277 N 
HETATM   15  H   UNK N   1      28.821  15.229   6.022  0.00  0.00     0.179 HD
BRANCH  14  16
HETATM   16  S   UNK N   1      29.283  17.556   5.715  0.00  0.00     0.269 S 
HETATM   17  O   UNK N   1      30.274  17.561   4.542  0.00  0.00    -0.200 OA
HETATM   18  O   UNK N   1      30.186  17.422   6.953  0.00  0.00    -0.200 OA
BRANCH  16  19
HETATM   19  C   UNK N   1      28.159  18.945   5.831  0.00  0.00     0.156 A 
HETATM   20  C   UNK N   1      27.615  19.481   4.653  0.00  0.00     0.142 A 
HETATM   21  C   UNK N   1      26.761  20.584   4.715  0.00  0.00     0.044 A 
HETATM   22  F   UNK N   1      27.922  18.939   3.448  0.00  0.00    -0.204 F 
HETATM   23  C   UNK N   1      26.446  21.154   5.950  0.00  0.00     0.006 A 
HETATM   24  C   UNK N   1      26.986  20.624   7.124  0.00  0.00     0.044 A 
HETATM   25  C   UNK N   1      27.842  19.521   7.069  0.00  0.00     0.142 A 
HETATM   26  F   UNK N   1      28.366  19.024   8.216  0.00  0.00    -0.204 F 
ENDBRANCH  16  19
ENDBRANCH  14  16
ENDBRANCH  11  14
ENDBRANCH   1   7
BRANCH   6  27
HETATM   27  C   UNK N   1      21.696  17.581   4.579  0.00  0.00     0.070 A 
HETATM   28  C   UNK N   1      22.587  18.612   4.251  0.00  0.00     0.049 A 
HETATM   29  C   UNK N   1      22.197  19.600   3.356  0.00  0.00     0.108 A 
HETATM   30  N   UNK N   1      20.966  19.543   2.787  0.00  0.00    -0.202 N 
HETATM   31  C   UNK N   1      20.119  18.524   3.077  0.00  0.00     0.676 A 
ATOM     32  HN  UNK N   1      20.676  20.271   2.135  1.00  0.00     0.183 HD
HETATM   33  N   UNK N   1      20.482  17.549   3.957  0.00  0.00    -0.191 N 
HETATM   34  N   UNK N   1      18.852  18.478   2.459  0.00  0.00    -0.234 N 
ATOM     35  HN  UNK N   1      19.837  16.784   4.155  1.00  0.00     0.184 HD
HETATM   36  H   UNK N   1      18.670  18.829   1.558  0.00  0.00     0.174 HD
HETATM   37  H   UNK N   1      18.107  18.072   2.958  0.00  0.00     0.174 HD
ENDBRANCH   6  27
BRANCH   4  38
HETATM   38  C   UNK N   1      21.638  13.885   8.487  0.00  0.00    -0.002 C 
HETATM   39  C   UNK N   1      20.459  14.425   9.272  0.00  0.00     0.021 C 
HETATM   40  C   UNK N   1      22.791  13.647   9.448  0.00  0.00     0.021 C 
HETATM   41  C   UNK N   1      21.257  12.556   7.863  0.00  0.00     0.021 C 
ENDBRANCH   4  38
TORSDOF 6
ENDMDL
MODEL 7
REMARK VINA RESULT:      -8.9      6.320     10.184
REMARK  6 active torsions:
REMARK  status: ('A' for Active; 'I' for Inactive)
REMARK    1  A    between atoms: C_1  and  S_9 
REMARK    2  A    between atoms: S_9  and  N_10 
REMARK    3  A    between atoms: N_10  and  C_11 
REMARK    4  A    between atoms: C_15  and  C_18 
REMARK    5  A    between atoms: C_21  and  C_32 
REMARK    6  A    between atoms: C_23  and  C_24 
REMARK       I    between atoms: C_29  and  N_36 
ROOT
HETATM    1  C   UNK N   1      32.410  16.398   7.858  0.00  0.00     0.066 A 
HETATM    2  N   UNK N   1      32.979  16.156   9.097  0.00  0.00    -0.351 N 
ATOM      3  HN  UNK N   1      32.480  16.315   9.972  1.00  0.00     0.166 HD
HETATM    4  C   UNK N   1      34.244  15.693   9.057  0.00  0.00     0.059 A 
HETATM    5  S   UNK N   1      34.705  15.547   7.493  0.00  0.00    -0.071 SA
HETATM    6  C   UNK N   1      33.294  16.054   6.756  0.00  0.00     0.061 A 
ENDROOT
BRANCH   1   7
HETATM    7  C   UNK N   1      31.053  17.054   7.910  0.00  0.00     0.033 A 
HETATM    8  C   UNK N   1      30.905  18.063   8.888  0.00  0.00     0.017 A 
HETATM    9  C   UNK N   1      29.732  18.800   9.023  0.00  0.00     0.003 A 
HETATM   10  C   UNK N   1      28.659  18.542   8.183  0.00  0.00     0.033 A 
HETATM   11  C   UNK N   1      28.778  17.570   7.190  0.00  0.00     0.082 A 
HETATM   12  C   UNK N   1      29.965  16.838   7.035  0.00  0.00     0.156 A 
HETATM   13  F   UNK N   1      30.022  15.965   6.021  0.00  0.00    -0.203 F 
BRANCH  11  14
HETATM   14  N   UNK N   1      27.695  17.301   6.332  0.00  0.00    -0.277 N 
HETATM   15  H   UNK N   1      26.963  16.721   6.644  0.00  0.00     0.179 HD
BRANCH  14  16
HETATM   16  S   UNK N   1      27.626  17.981   4.722  0.00  0.00     0.269 S 
HETATM   17  O   UNK N   1      28.219  16.919   3.785  0.00  0.00    -0.200 OA
HETATM   18  O   UNK N   1      28.684  19.098   4.720  0.00  0.00    -0.200 OA
BRANCH  16  19
HETATM   19  C   UNK N   1      25.988  18.585   4.327  0.00  0.00     0.156 A 
HETATM   20  C   UNK N   1      24.871  17.848   4.747  0.00  0.00     0.142 A 
HETATM   21  C   UNK N   1      23.583  18.281   4.424  0.00  0.00     0.044 A 
HETATM   22  F   UNK N   1      25.032  16.705   5.460  0.00  0.00    -0.204 F 
HETATM   23  C   UNK N   1      23.406  19.451   3.684  0.00  0.00     0.006 A 
HETATM   24  C   UNK N   1      24.516  20.188   3.263  0.00  0.00     0.044 A 
HETATM   25  C   UNK N   1      25.807  19.759   3.582  0.00  0.00     0.142 A 
HETATM   26  F   UNK N   1      26.874  20.479   3.158  0.00  0.00    -0.204 F 
ENDBRANCH  16  19
ENDBRANCH  14  16
ENDBRANCH  11  14
ENDBRANCH   1   7
BRANCH   6  27
HETATM   27  C   UNK N   1      33.233  16.045   5.260  0.00  0.00     0.070 A 
HETATM   28  C   UNK N   1      32.731  17.179   4.606  0.00  0.00     0.049 A 
HETATM   29  C   UNK N   1      32.686  17.210   3.219  0.00  0.00     0.108 A 
HETATM   30  N   UNK N   1      33.153  16.153   2.507  0.00  0.00    -0.202 N 
HETATM   31  C   UNK N   1      33.673  15.072   3.140  0.00  0.00     0.676 A 
ATOM     32  HN  UNK N   1      33.114  16.172   1.488  1.00  0.00     0.183 HD
HETATM   33  N   UNK N   1      33.720  15.021   4.501  0.00  0.00    -0.191 N 
HETATM   34  N   UNK N   1      34.168  13.993   2.378  0.00  0.00    -0.234 N 
ATOM     35  HN  UNK N   1      34.125  14.205   4.960  1.00  0.00     0.184 HD
HETATM   36  H   UNK N   1      34.570  14.094   1.485  0.00  0.00     0.174 HD
HETATM   37  H   UNK N   1      34.109  13.088   2.760  0.00  0.00     0.174 HD
ENDBRANCH   6  27
BRANCH   4  38
HETATM   38  C   UNK N   1      35.088  15.443  10.273  0.00  0.00    -0.002 C 
HETATM   39  C   UNK N   1      34.361  14.541  11.250  0.00  0.00     0.021 C 
HETATM   40  C   UNK N   1      35.429  16.745  10.979  0.00  0.00     0.021 C 
HETATM   41  C   UNK N   1      36.383  14.779   9.846  0.00  0.00     0.021 C 
ENDBRANCH   4  38
TORSDOF 6
ENDMDL
MODEL 8
REMARK VINA RESULT:      -8.8      2.060      3.113
REMARK  6 active torsions:
REMARK  status: ('A' for Active; 'I' for Inactive)
REMARK    1  A    between atoms: C_1  and  S_9 
REMARK    2  A    between atoms: S_9  and  N_10 
REMARK    3  A    between atoms: N_10  and  C_11 
REMARK    4  A    between atoms: C_15  and  C_18 
REMARK    5  A    between atoms: C_21  and  C_32 
REMARK    6  A    between atoms: C_23  and  C_24 
REMARK       I    between atoms: C_29  and  N_36 
ROOT
HETATM    1  C   UNK N   1      24.492  16.910   4.875  0.00  0.00     0.066 A 
HETATM    2  N   UNK N   1      25.638  17.687   4.827  0.00  0.00    -0.351 N 
ATOM      3  HN  UNK N   1      26.551  17.340   5.123  1.00  0.00     0.166 HD
HETATM    4  C   UNK N   1      25.453  18.936   4.359  0.00  0.00     0.059 A 
HETATM    5  S   UNK N   1      23.875  19.128   3.969  0.00  0.00    -0.071 SA
HETATM    6  C   UNK N   1      23.322  17.601   4.359  0.00  0.00     0.061 A 
ENDROOT
BRANCH   1   7
HETATM    7  C   UNK N   1      24.675  15.566   5.536  0.00  0.00     0.033 A 
HETATM    8  C   UNK N   1      25.537  15.554   6.655  0.00  0.00     0.017 A 
HETATM    9  C   UNK N   1      25.763  14.404   7.406  0.00  0.00     0.003 A 
HETATM   10  C   UNK N   1      25.135  13.219   7.052  0.00  0.00     0.033 A 
HETATM   11  C   UNK N   1      24.258  13.200   5.968  0.00  0.00     0.082 A 
HETATM   12  C   UNK N   1      24.010  14.361   5.220  0.00  0.00     0.156 A 
HETATM   13  F   UNK N   1      23.110  14.275   4.231  0.00  0.00    -0.203 F 
BRANCH  11  14
HETATM   14  N   UNK N   1      23.615  12.003   5.602  0.00  0.00    -0.277 N 
HETATM   15  H   UNK N   1      23.797  11.606   4.719  0.00  0.00     0.179 HD
BRANCH  14  16
HETATM   16  S   UNK N   1      22.498  11.207   6.688  0.00  0.00     0.269 S 
HETATM   17  O   UNK N   1      23.237   9.974   7.231  0.00  0.00    -0.200 OA
HETATM   18  O   UNK N   1      21.417  10.608   5.772  0.00  0.00    -0.200 OA
BRANCH  16  19
HETATM   19  C   UNK N   1      21.825  12.344   7.896  0.00  0.00     0.156 A 
HETATM   20  C   UNK N   1      21.024  13.409   7.456  0.00  0.00     0.142 A 
HETATM   21  C   UNK N   1      20.513  14.327   8.376  0.00  0.00     0.044 A 
HETATM   22  F   UNK N   1      20.748  13.560   6.137  0.00  0.00    -0.204 F 
HETATM   23  C   UNK N   1      20.798  14.186   9.735  0.00  0.00     0.006 A 
HETATM   24  C   UNK N   1      21.595  13.126  10.177  0.00  0.00     0.044 A 
HETATM   25  C   UNK N   1      22.111  12.205   9.261  0.00  0.00     0.142 A 
HETATM   26  F   UNK N   1      22.891  11.189   9.704  0.00  0.00    -0.204 F 
ENDBRANCH  16  19
ENDBRANCH  14  16
ENDBRANCH  11  14
ENDBRANCH   1   7
BRANCH   6  27
HETATM   27  C   UNK N   1      21.878  17.286   4.117  0.00  0.00     0.070 A 
HETATM   28  C   UNK N   1      21.125  16.754   5.173  0.00  0.00     0.049 A 
HETATM   29  C   UNK N   1      19.778  16.476   4.986  0.00  0.00     0.108 A 
HETATM   30  N   UNK N   1      19.195  16.748   3.790  0.00  0.00    -0.202 N 
HETATM   31  C   UNK N   1      19.916  17.297   2.782  0.00  0.00     0.676 A 
ATOM     32  HN  UNK N   1      18.207  16.537   3.649  1.00  0.00     0.183 HD
HETATM   33  N   UNK N   1      21.241  17.572   2.945  0.00  0.00    -0.191 N 
HETATM   34  N   UNK N   1      19.283  17.587   1.555  0.00  0.00    -0.234 N 
ATOM     35  HN  UNK N   1      21.765  17.997   2.180  1.00  0.00     0.184 HD
HETATM   36  H   UNK N   1      18.335  17.837   1.475  0.00  0.00     0.174 HD
HETATM   37  H   UNK N   1      19.821  17.537   0.732  0.00  0.00     0.174 HD
ENDBRANCH   6  27
BRANCH   4  38
HETATM   38  C   UNK N   1      26.530  19.981   4.299  0.00  0.00    -0.002 C 
HETATM   39  C   UNK N   1      26.418  20.788   3.021  0.00  0.00     0.021 C 
HETATM   40  C   UNK N   1      27.911  19.346   4.350  0.00  0.00     0.021 C 
HETATM   41  C   UNK N   1      26.387  20.907   5.491  0.00  0.00     0.021 C 
ENDBRANCH   4  38
TORSDOF 6
ENDMDL
MODEL 9
REMARK VINA RESULT:      -8.8      8.299     10.881
REMARK  6 active torsions:
REMARK  status: ('A' for Active; 'I' for Inactive)
REMARK    1  A    between atoms: C_1  and  S_9 
REMARK    2  A    between atoms: S_9  and  N_10 
REMARK    3  A    between atoms: N_10  and  C_11 
REMARK    4  A    between atoms: C_15  and  C_18 
REMARK    5  A    between atoms: C_21  and  C_32 
REMARK    6  A    between atoms: C_23  and  C_24 
REMARK       I    between atoms: C_29  and  N_36 
ROOT
HETATM    1  C   UNK N   1      31.733  15.780   6.093  0.00  0.00     0.066 A 
HETATM    2  N   UNK N   1      32.204  14.720   5.336  0.00  0.00    -0.351 N 
ATOM      3  HN  UNK N   1      33.102  14.271   5.516  1.00  0.00     0.166 HD
HETATM    4  C   UNK N   1      31.384  14.328   4.342  0.00  0.00     0.059 A 
HETATM    5  S   UNK N   1      30.037  15.259   4.368  0.00  0.00    -0.071 SA
HETATM    6  C   UNK N   1      30.412  16.223   5.680  0.00  0.00     0.061 A 
ENDROOT
BRANCH   1   7
HETATM    7  C   UNK N   1      32.716  16.311   7.106  0.00  0.00     0.033 A 
HETATM    8  C   UNK N   1      33.361  17.517   6.751  0.00  0.00     0.017 A 
HETATM    9  C   UNK N   1      34.251  18.162   7.603  0.00  0.00     0.003 A 
HETATM   10  C   UNK N   1      34.534  17.612   8.845  0.00  0.00     0.033 A 
HETATM   11  C   UNK N   1      33.899  16.435   9.239  0.00  0.00     0.082 A 
HETATM   12  C   UNK N   1      32.984  15.791   8.392  0.00  0.00     0.156 A 
HETATM   13  F   UNK N   1      32.370  14.698   8.867  0.00  0.00    -0.203 F 
BRANCH  11  14
HETATM   14  N   UNK N   1      34.179  15.869  10.496  0.00  0.00    -0.277 N 
HETATM   15  H   UNK N   1      33.512  15.939  11.218  0.00  0.00     0.179 HD
BRANCH  14  16
HETATM   16  S   UNK N   1      35.691  15.042  10.800  0.00  0.00     0.269 S 
HETATM   17  O   UNK N   1      36.757  16.140  10.936  0.00  0.00    -0.200 OA
HETATM   18  O   UNK N   1      36.041  14.359   9.467  0.00  0.00    -0.200 OA
BRANCH  16  19
HETATM   19  C   UNK N   1      35.550  13.879  12.153  0.00  0.00     0.156 A 
HETATM   20  C   UNK N   1      34.968  12.625  11.915  0.00  0.00     0.142 A 
HETATM   21  C   UNK N   1      34.818  11.712  12.962  0.00  0.00     0.044 A 
HETATM   22  F   UNK N   1      34.538  12.293  10.672  0.00  0.00    -0.204 F 
HETATM   23  C   UNK N   1      35.249  12.047  14.246  0.00  0.00     0.006 A 
HETATM   24  C   UNK N   1      35.829  13.295  14.487  0.00  0.00     0.044 A 
HETATM   25  C   UNK N   1      35.980  14.213  13.445  0.00  0.00     0.142 A 
HETATM   26  F   UNK N   1      36.535  15.423  13.697  0.00  0.00    -0.204 F 
ENDBRANCH  16  19
ENDBRANCH  14  16
ENDBRANCH  11  14
ENDBRANCH   1   7
BRANCH   6  27
HETATM   27  C   UNK N   1      29.407  17.242   6.121  0.00  0.00     0.070 A 
HETATM   28  C   UNK N   1      28.776  18.023   5.142  0.00  0.00     0.049 A 
HETATM   29  C   UNK N   1      27.821  18.958   5.518  0.00  0.00     0.108 A 
HETATM   30  N   UNK N   1      27.487  19.089   6.828  0.00  0.00    -0.202 N 
HETATM   31  C   UNK N   1      28.072  18.307   7.769  0.00  0.00     0.676 A 
ATOM     32  HN  UNK N   1      26.791  19.780   7.107  1.00  0.00     0.183 HD
HETATM   33  N   UNK N   1      29.015  17.387   7.419  0.00  0.00    -0.191 N 
HETATM   34  N   UNK N   1      27.695  18.449   9.121  0.00  0.00    -0.234 N 
ATOM     35  HN  UNK N   1      29.435  16.799   8.139  1.00  0.00     0.184 HD
HETATM   36  H   UNK N   1      26.795  18.722   9.412  0.00  0.00     0.174 HD
HETATM   37  H   UNK N   1      28.371  18.265   9.813  0.00  0.00     0.174 HD
ENDBRANCH   6  27
BRANCH   4  38
HETATM   38  C   UNK N   1      31.722  13.260   3.342  0.00  0.00    -0.002 C 
HETATM   39  C   UNK N   1      32.897  13.686   2.485  0.00  0.00     0.021 C 
HETATM   40  C   UNK N   1      30.540  12.970   2.431  0.00  0.00     0.021 C 
HETATM   41  C   UNK N   1      32.077  11.985   4.082  0.00  0.00     0.021 C 
ENDBRANCH   4  38
TORSDOF 6
ENDMDL
