MODEL 1
REMARK VINA RESULT:      -7.3      0.000      0.000
REMARK  7 active torsions:
REMARK  status: ('A' for Active; 'I' for Inactive)
REMARK    1  A    between atoms: C_14  and  O_21 
REMARK    2  A    between atoms: C_17  and  O_23 
REMARK    3  A    between atoms: C_17  and  C_26 
REMARK    4  A    between atoms: C_31  and  O_23 
REMARK    5  A    between atoms: C_26  and  S_28 
REMARK    6  A    between atoms: S_28  and  C_29 
REMARK    7  A    between atoms: C_31  and  C_32 
ROOT
HETATM    1  C   UNK N   1      30.328  14.950   5.816  0.00  0.00     0.052 C 
HETATM    2  C   UNK N   1      30.316  16.203   5.012  0.00  0.00     0.172 C 
HETATM    3  C   UNK N   1      31.495  17.082   5.118  0.00  0.00     0.061 C 
HETATM    4  C   UNK N   1      32.275  16.971   6.210  0.00  0.00    -0.027 C 
HETATM    5  C   UNK N   1      31.817  16.130   7.409  0.00  0.00     0.039 C 
HETATM    6  C   UNK N   1      31.165  14.861   6.876  0.00  0.00    -0.006 C 
HETATM    7  C   UNK N   1      33.670  17.515   6.208  0.00  0.00     0.201 C 
HETATM    8  C   UNK N   1      34.596  16.309   6.382  0.00  0.00     0.050 C 
HETATM    9  C   UNK N   1      34.229  15.409   7.597  0.00  0.00     0.037 C 
HETATM   10  C   UNK N   1      33.029  15.922   8.403  0.00  0.00     0.147 C 
HETATM   11  C   UNK N   1      35.508  15.179   8.432  0.00  0.00     0.005 C 
HETATM   12  C   UNK N   1      35.427  14.859   9.976  0.00  0.00     0.003 C 
HETATM   13  C   UNK N   1      33.979  14.966  10.546  0.00  0.00     0.048 C 
HETATM   14  C   UNK N   1      32.815  14.889   9.534  0.00  0.00     0.160 C 
HETATM   15  C   UNK N   1      36.173  13.977   7.778  0.00  0.00     0.013 C 
HETATM   16  C   UNK N   1      36.966  13.296   8.838  0.00  0.00     0.027 C 
HETATM   17  C   UNK N   1      36.165  13.452  10.155  0.00  0.00     0.152 C 
HETATM   18  O   UNK N   1      29.471  16.394   4.154  0.00  0.00    -0.289 OA
HETATM   19  C   UNK N   1      30.707  16.901   8.124  0.00  0.00     0.028 C 
HETATM   20  F   UNK N   1      33.345  17.151   8.973  0.00  0.00    -0.238 F 
HETATM   21  C   UNK N   1      36.179  15.980  10.690  0.00  0.00     0.019 C 
HETATM   22  C   UNK N   1      38.307  14.027   8.861  0.00  0.00     0.014 C 
HETATM   23  F   UNK N   1      33.983  18.181   5.035  0.00  0.00    -0.245 F 
ENDROOT
BRANCH  17  24
HETATM   24  O   UNK N   1      37.130  13.225  11.139  0.00  0.00    -0.294 OA
BRANCH  24  25
HETATM   25  C   UNK N   1      37.332  12.253  12.063  0.00  0.00     0.318 C 
HETATM   26  O   UNK N   1      37.839  11.189  11.762  0.00  0.00    -0.257 OA
BRANCH  25  27
HETATM   27  C   UNK N   1      36.937  12.546  13.456  0.00  0.00     0.149 A 
HETATM   28  C   UNK N   1      36.988  11.645  14.497  0.00  0.00     0.045 A 
HETATM   29  C   UNK N   1      36.591  12.347  15.617  0.00  0.00     0.027 A 
HETATM   30  C   UNK N   1      36.320  13.635  15.188  0.00  0.00     0.143 A 
HETATM   31  O   UNK N   1      36.539  13.715  13.894  0.00  0.00    -0.317 OA
ENDBRANCH  25  27
ENDBRANCH  24  25
ENDBRANCH  17  24
BRANCH  17  32
HETATM   32  C   UNK N   1      35.118  12.380  10.405  0.00  0.00     0.224 C 
HETATM   33  O   UNK N   1      34.401  12.501  11.390  0.00  0.00    -0.282 OA
BRANCH  32  34
HETATM   34  S   UNK N   1      34.910  10.923   9.377  0.00  0.00    -0.058 SA
BRANCH  34  35
HETATM   35  C   UNK N   1      33.237  11.432   8.847  0.00  0.00     0.304 C 
HETATM   36  F   UNK N   1      33.309  12.223   7.712  0.00  0.00    -0.244 F 
ENDBRANCH  34  35
ENDBRANCH  32  34
ENDBRANCH  17  32
BRANCH  14  37
HETATM   37  O   UNK N   1      31.612  15.105  10.207  0.00  0.00    -0.392 OA
HETATM   38  H   UNK N   1      31.294  15.870  10.712  0.00  0.00     0.210 HD
ENDBRANCH  14  37
TORSDOF 7
ENDMDL
MODEL 2
REMARK VINA RESULT:      -7.1      2.914      8.074
REMARK  7 active torsions:
REMARK  status: ('A' for Active; 'I' for Inactive)
REMARK    1  A    between atoms: C_14  and  O_21 
REMARK    2  A    between atoms: C_17  and  O_23 
REMARK    3  A    between atoms: C_17  and  C_26 
REMARK    4  A    between atoms: C_31  and  O_23 
REMARK    5  A    between atoms: C_26  and  S_28 
REMARK    6  A    between atoms: S_28  and  C_29 
REMARK    7  A    between atoms: C_31  and  C_32 
ROOT
HETATM    1  C   UNK N   1      34.487  10.063  15.364  0.00  0.00     0.052 C 
HETATM    2  C   UNK N   1      35.091  10.534  16.641  0.00  0.00     0.172 C 
HETATM    3  C   UNK N   1      35.871  11.785  16.596  0.00  0.00     0.061 C 
HETATM    4  C   UNK N   1      36.372  12.179  15.410  0.00  0.00    -0.027 C 
HETATM    5  C   UNK N   1      36.334  11.236  14.199  0.00  0.00     0.039 C 
HETATM    6  C   UNK N   1      34.988  10.524  14.195  0.00  0.00    -0.006 C 
HETATM    7  C   UNK N   1      36.810  13.595  15.202  0.00  0.00     0.201 C 
HETATM    8  C   UNK N   1      35.890  14.171  14.122  0.00  0.00     0.050 C 
HETATM    9  C   UNK N   1      35.811  13.297  12.837  0.00  0.00     0.037 C 
HETATM   10  C   UNK N   1      36.695  12.044  12.888  0.00  0.00     0.147 C 
HETATM   11  C   UNK N   1      36.066  14.209  11.617  0.00  0.00     0.005 C 
HETATM   12  C   UNK N   1      36.650  13.625  10.271  0.00  0.00     0.003 C 
HETATM   13  C   UNK N   1      37.067  12.127  10.386  0.00  0.00     0.048 C 
HETATM   14  C   UNK N   1      36.457  11.312  11.548  0.00  0.00     0.160 C 
HETATM   15  C   UNK N   1      34.696  14.778  11.280  0.00  0.00     0.013 C 
HETATM   16  C   UNK N   1      34.703  15.080   9.822  0.00  0.00     0.027 C 
HETATM   17  C   UNK N   1      35.566  13.982   9.151  0.00  0.00     0.152 C 
HETATM   18  O   UNK N   1      34.786  10.028  17.708  0.00  0.00    -0.289 OA
HETATM   19  C   UNK N   1      37.382  10.146  14.422  0.00  0.00     0.028 C 
HETATM   20  F   UNK N   1      38.032  12.423  12.961  0.00  0.00    -0.238 F 
HETATM   21  C   UNK N   1      37.971  14.349  10.022  0.00  0.00     0.019 C 
HETATM   22  C   UNK N   1      35.312  16.476   9.709  0.00  0.00     0.014 C 
HETATM   23  F   UNK N   1      36.718  14.359  16.352  0.00  0.00    -0.245 F 
ENDROOT
BRANCH  17  24
HETATM   24  O   UNK N   1      35.909  14.558   7.924  0.00  0.00    -0.294 OA
BRANCH  24  25
HETATM   25  C   UNK N   1      35.324  14.604   6.702  0.00  0.00     0.318 C 
HETATM   26  O   UNK N   1      35.610  13.804   5.832  0.00  0.00    -0.257 OA
BRANCH  25  27
HETATM   27  C   UNK N   1      34.305  15.649   6.475  0.00  0.00     0.149 A 
HETATM   28  C   UNK N   1      32.945  15.466   6.604  0.00  0.00     0.045 A 
HETATM   29  C   UNK N   1      32.379  16.702   6.362  0.00  0.00     0.027 A 
HETATM   30  C   UNK N   1      33.430  17.562   6.099  0.00  0.00     0.143 A 
HETATM   31  O   UNK N   1      34.562  16.898   6.177  0.00  0.00    -0.317 OA
ENDBRANCH  25  27
ENDBRANCH  24  25
ENDBRANCH  17  24
BRANCH  17  32
HETATM   32  C   UNK N   1      34.820  12.715   8.772  0.00  0.00     0.224 C 
HETATM   33  O   UNK N   1      35.450  11.827   8.212  0.00  0.00    -0.282 OA
BRANCH  32  34
HETATM   34  S   UNK N   1      33.063  12.467   9.044  0.00  0.00    -0.058 SA
BRANCH  34  35
HETATM   35  C   UNK N   1      33.298  10.723   9.535  0.00  0.00     0.304 C 
HETATM   36  F   UNK N   1      33.419  10.621  10.912  0.00  0.00    -0.244 F 
ENDBRANCH  34  35
ENDBRANCH  32  34
ENDBRANCH  17  32
BRANCH  14  37
HETATM   37  O   UNK N   1      37.020  10.035  11.552  0.00  0.00    -0.392 OA
HETATM   38  H   UNK N   1      37.642   9.616  12.168  0.00  0.00     0.210 HD
ENDBRANCH  14  37
TORSDOF 7
ENDMDL
MODEL 3
REMARK VINA RESULT:      -7.0      3.642      6.146
REMARK  7 active torsions:
REMARK  status: ('A' for Active; 'I' for Inactive)
REMARK    1  A    between atoms: C_14  and  O_21 
REMARK    2  A    between atoms: C_17  and  O_23 
REMARK    3  A    between atoms: C_17  and  C_26 
REMARK    4  A    between atoms: C_31  and  O_23 
REMARK    5  A    between atoms: C_26  and  S_28 
REMARK    6  A    between atoms: S_28  and  C_29 
REMARK    7  A    between atoms: C_31  and  C_32 
ROOT
HETATM    1  C   UNK N   1      26.158  13.791   4.844  0.00  0.00     0.052 C 
HETATM    2  C   UNK N   1      25.887  13.378   3.440  0.00  0.00     0.172 C 
HETATM    3  C   UNK N   1      26.998  13.496   2.477  0.00  0.00     0.061 C 
HETATM    4  C   UNK N   1      27.999  14.350   2.764  0.00  0.00    -0.027 C 
HETATM    5  C   UNK N   1      27.868  15.337   3.932  0.00  0.00     0.039 C 
HETATM    6  C   UNK N   1      27.207  14.609   5.094  0.00  0.00    -0.006 C 
HETATM    7  C   UNK N   1      29.320  14.234   2.069  0.00  0.00     0.201 C 
HETATM    8  C   UNK N   1      30.344  13.895   3.154  0.00  0.00     0.050 C 
HETATM    9  C   UNK N   1      30.309  14.864   4.371  0.00  0.00     0.037 C 
HETATM   10  C   UNK N   1      29.277  15.990   4.233  0.00  0.00     0.147 C 
HETATM   11  C   UNK N   1      31.750  15.348   4.645  0.00  0.00     0.005 C 
HETATM   12  C   UNK N   1      32.024  16.732   5.353  0.00  0.00     0.003 C 
HETATM   13  C   UNK N   1      30.728  17.571   5.576  0.00  0.00     0.048 C 
HETATM   14  C   UNK N   1      29.382  16.814   5.537  0.00  0.00     0.160 C 
HETATM   15  C   UNK N   1      32.341  14.278   5.550  0.00  0.00     0.013 C 
HETATM   16  C   UNK N   1      33.388  14.942   6.373  0.00  0.00     0.027 C 
HETATM   17  C   UNK N   1      32.878  16.377   6.657  0.00  0.00     0.152 C 
HETATM   18  O   UNK N   1      24.867  12.779   3.144  0.00  0.00    -0.289 OA
HETATM   19  C   UNK N   1      26.887  16.431   3.511  0.00  0.00     0.028 C 
HETATM   20  F   UNK N   1      29.621  16.805   3.159  0.00  0.00    -0.238 F 
HETATM   21  C   UNK N   1      32.832  17.571   4.366  0.00  0.00     0.019 C 
HETATM   22  C   UNK N   1      34.649  14.911   5.512  0.00  0.00     0.014 C 
HETATM   23  F   UNK N   1      29.328  13.252   1.093  0.00  0.00    -0.245 F 
ENDROOT
BRANCH  17  24
HETATM   24  O   UNK N   1      34.046  17.062   7.005  0.00  0.00    -0.294 OA
BRANCH  24  25
HETATM   25  C   UNK N   1      34.487  17.674   8.132  0.00  0.00     0.318 C 
HETATM   26  O   UNK N   1      34.511  18.886   8.227  0.00  0.00    -0.257 OA
BRANCH  25  27
HETATM   27  C   UNK N   1      34.912  16.810   9.252  0.00  0.00     0.149 A 
HETATM   28  C   UNK N   1      35.367  15.516   9.122  0.00  0.00     0.045 A 
HETATM   29  C   UNK N   1      35.706  15.110  10.397  0.00  0.00     0.027 A 
HETATM   30  C   UNK N   1      35.435  16.184  11.227  0.00  0.00     0.143 A 
HETATM   31  O   UNK N   1      34.964  17.179  10.507  0.00  0.00    -0.317 OA
ENDBRANCH  25  27
ENDBRANCH  24  25
ENDBRANCH  17  24
BRANCH  17  32
HETATM   32  C   UNK N   1      31.986  16.517   7.879  0.00  0.00     0.224 C 
HETATM   33  O   UNK N   1      31.679  15.496   8.481  0.00  0.00    -0.282 OA
BRANCH  32  34
HETATM   34  S   UNK N   1      31.314  18.079   8.455  0.00  0.00    -0.058 SA
BRANCH  34  35
HETATM   35  C   UNK N   1      29.880  17.268   9.243  0.00  0.00     0.304 C 
HETATM   36  F   UNK N   1      29.057  18.213   9.838  0.00  0.00    -0.244 F 
ENDBRANCH  34  35
ENDBRANCH  32  34
ENDBRANCH  17  32
BRANCH  14  37
HETATM   37  O   UNK N   1      28.340  17.734   5.650  0.00  0.00    -0.392 OA
HETATM   38  H   UNK N   1      28.185  18.445   6.293  0.00  0.00     0.210 HD
ENDBRANCH  14  37
TORSDOF 7
ENDMDL
MODEL 4
REMARK VINA RESULT:      -6.9     18.478     21.198
REMARK  7 active torsions:
REMARK  status: ('A' for Active; 'I' for Inactive)
REMARK    1  A    between atoms: C_14  and  O_21 
REMARK    2  A    between atoms: C_17  and  O_23 
REMARK    3  A    between atoms: C_17  and  C_26 
REMARK    4  A    between atoms: C_31  and  O_23 
REMARK    5  A    between atoms: C_26  and  S_28 
REMARK    6  A    between atoms: S_28  and  C_29 
REMARK    7  A    between atoms: C_31  and  C_32 
ROOT
HETATM    1  C   UNK N   1      28.283  27.827  -3.529  0.00  0.00     0.052 C 
HETATM    2  C   UNK N   1      27.125  28.750  -3.371  0.00  0.00     0.172 C 
HETATM    3  C   UNK N   1      25.942  28.497  -4.212  0.00  0.00     0.061 C 
HETATM    4  C   UNK N   1      26.107  27.787  -5.345  0.00  0.00    -0.027 C 
HETATM    5  C   UNK N   1      27.516  27.461  -5.859  0.00  0.00     0.039 C 
HETATM    6  C   UNK N   1      28.383  27.093  -4.662  0.00  0.00    -0.006 C 
HETATM    7  C   UNK N   1      24.933  27.154  -6.024  0.00  0.00     0.201 C 
HETATM    8  C   UNK N   1      25.172  25.643  -5.967  0.00  0.00     0.050 C 
HETATM    9  C   UNK N   1      26.569  25.211  -6.499  0.00  0.00     0.037 C 
HETATM   10  C   UNK N   1      27.423  26.379  -7.007  0.00  0.00     0.147 C 
HETATM   11  C   UNK N   1      26.364  24.075  -7.525  0.00  0.00     0.005 C 
HETATM   12  C   UNK N   1      27.416  23.814  -8.673  0.00  0.00     0.003 C 
HETATM   13  C   UNK N   1      28.538  24.896  -8.730  0.00  0.00     0.048 C 
HETATM   14  C   UNK N   1      28.760  25.750  -7.462  0.00  0.00     0.160 C 
HETATM   15  C   UNK N   1      26.324  22.809  -6.683  0.00  0.00     0.013 C 
HETATM   16  C   UNK N   1      26.801  21.699  -7.552  0.00  0.00     0.027 C 
HETATM   17  C   UNK N   1      27.892  22.301  -8.473  0.00  0.00     0.152 C 
HETATM   18  O   UNK N   1      27.076  29.547  -2.449  0.00  0.00    -0.289 OA
HETATM   19  C   UNK N   1      28.115  28.748  -6.427  0.00  0.00     0.028 C 
HETATM   20  F   UNK N   1      26.804  26.960  -8.109  0.00  0.00    -0.238 F 
HETATM   21  C   UNK N   1      26.671  23.996  -9.993  0.00  0.00     0.019 C 
HETATM   22  C   UNK N   1      25.562  21.232  -8.315  0.00  0.00     0.014 C 
HETATM   23  F   UNK N   1      23.729  27.462  -5.413  0.00  0.00    -0.245 F 
ENDROOT
BRANCH  17  24
HETATM   24  O   UNK N   1      27.956  21.384  -9.526  0.00  0.00    -0.294 OA
BRANCH  24  25
HETATM   25  C   UNK N   1      28.840  21.149 -10.527  0.00  0.00     0.318 C 
HETATM   26  O   UNK N   1      29.134  22.015 -11.329  0.00  0.00    -0.257 OA
BRANCH  25  27
HETATM   27  C   UNK N   1      29.454  19.807 -10.590  0.00  0.00     0.149 A 
HETATM   28  C   UNK N   1      30.051  19.161  -9.530  0.00  0.00     0.045 A 
HETATM   29  C   UNK N   1      30.431  17.925 -10.012  0.00  0.00     0.027 A 
HETATM   30  C   UNK N   1      30.041  17.894 -11.340  0.00  0.00     0.143 A 
HETATM   31  O   UNK N   1      29.461  19.033 -11.647  0.00  0.00    -0.317 OA
ENDBRANCH  25  27
ENDBRANCH  24  25
ENDBRANCH  17  24
BRANCH  17  32
HETATM   32  C   UNK N   1      29.297  22.303  -7.895  0.00  0.00     0.224 C 
HETATM   33  O   UNK N   1      30.172  22.883  -8.523  0.00  0.00    -0.282 OA
BRANCH  32  34
HETATM   34  S   UNK N   1      29.757  21.458  -6.379  0.00  0.00    -0.058 SA
BRANCH  34  35
HETATM   35  C   UNK N   1      30.105  23.027  -5.510  0.00  0.00     0.304 C 
HETATM   36  F   UNK N   1      28.951  23.518  -4.919  0.00  0.00    -0.244 F 
ENDBRANCH  34  35
ENDBRANCH  32  34
ENDBRANCH  17  32
BRANCH  14  37
HETATM   37  O   UNK N   1      29.722  26.723  -7.732  0.00  0.00    -0.392 OA
HETATM   38  H   UNK N   1      29.959  27.534  -7.254  0.00  0.00     0.210 HD
ENDBRANCH  14  37
TORSDOF 7
ENDMDL
MODEL 5
REMARK VINA RESULT:      -6.8      5.628     11.837
REMARK  7 active torsions:
REMARK  status: ('A' for Active; 'I' for Inactive)
REMARK    1  A    between atoms: C_14  and  O_21 
REMARK    2  A    between atoms: C_17  and  O_23 
REMARK    3  A    between atoms: C_17  and  C_26 
REMARK    4  A    between atoms: C_31  and  O_23 
REMARK    5  A    between atoms: C_26  and  S_28 
REMARK    6  A    between atoms: S_28  and  C_29 
REMARK    7  A    between atoms: C_31  and  C_32 
ROOT
HETATM    1  C   UNK N   1      31.773  15.026   6.844  0.00  0.00     0.052 C 
HETATM    2  C   UNK N   1      32.205  16.003   7.881  0.00  0.00     0.172 C 
HETATM    3  C   UNK N   1      31.245  17.058   8.254  0.00  0.00     0.061 C 
HETATM    4  C   UNK N   1      30.270  17.368   7.379  0.00  0.00    -0.027 C 
HETATM    5  C   UNK N   1      30.303  16.811   5.949  0.00  0.00     0.039 C 
HETATM    6  C   UNK N   1      30.754  15.357   6.018  0.00  0.00    -0.006 C 
HETATM    7  C   UNK N   1      29.051  18.111   7.830  0.00  0.00     0.201 C 
HETATM    8  C   UNK N   1      27.870  17.162   7.613  0.00  0.00     0.050 C 
HETATM    9  C   UNK N   1      27.801  16.568   6.177  0.00  0.00     0.037 C 
HETATM   10  C   UNK N   1      28.911  17.073   5.247  0.00  0.00     0.147 C 
HETATM   11  C   UNK N   1      26.369  16.778   5.636  0.00  0.00     0.005 C 
HETATM   12  C   UNK N   1      26.089  16.869   4.085  0.00  0.00     0.003 C 
HETATM   13  C   UNK N   1      27.393  16.885   3.229  0.00  0.00     0.048 C 
HETATM   14  C   UNK N   1      28.682  16.355   3.897  0.00  0.00     0.160 C 
HETATM   15  C   UNK N   1      25.594  15.571   6.143  0.00  0.00     0.013 C 
HETATM   16  C   UNK N   1      24.489  15.333   5.174  0.00  0.00     0.027 C 
HETATM   17  C   UNK N   1      25.045  15.699   3.775  0.00  0.00     0.152 C 
HETATM   18  O   UNK N   1      33.216  15.820   8.538  0.00  0.00    -0.289 OA
HETATM   19  C   UNK N   1      31.400  17.552   5.184  0.00  0.00     0.028 C 
HETATM   20  F   UNK N   1      28.767  18.443   5.055  0.00  0.00    -0.238 F 
HETATM   21  C   UNK N   1      25.477  18.245   3.835  0.00  0.00     0.019 C 
HETATM   22  C   UNK N   1      23.357  16.252   5.630  0.00  0.00     0.014 C 
HETATM   23  F   UNK N   1      29.113  18.486   9.161  0.00  0.00    -0.245 F 
ENDROOT
BRANCH  17  24
HETATM   24  O   UNK N   1      23.887  15.900   3.019  0.00  0.00    -0.294 OA
BRANCH  24  25
HETATM   25  C   UNK N   1      22.804  15.140   2.722  0.00  0.00     0.318 C 
HETATM   26  O   UNK N   1      22.784  13.947   2.957  0.00  0.00    -0.257 OA
BRANCH  25  27
HETATM   27  C   UNK N   1      21.637  15.823   2.126  0.00  0.00     0.149 A 
HETATM   28  C   UNK N   1      20.920  16.833   2.730  0.00  0.00     0.045 A 
HETATM   29  C   UNK N   1      19.967  17.215   1.808  0.00  0.00     0.027 A 
HETATM   30  C   UNK N   1      20.161  16.412   0.698  0.00  0.00     0.143 A 
HETATM   31  O   UNK N   1      21.167  15.596   0.925  0.00  0.00    -0.317 OA
ENDBRANCH  25  27
ENDBRANCH  24  25
ENDBRANCH  17  24
BRANCH  17  32
HETATM   32  C   UNK N   1      25.770  14.576   3.053  0.00  0.00     0.224 C 
HETATM   33  O   UNK N   1      25.867  14.649   1.835  0.00  0.00    -0.282 OA
BRANCH  32  34
HETATM   34  S   UNK N   1      26.439  13.125   3.873  0.00  0.00    -0.058 SA
BRANCH  34  35
HETATM   35  C   UNK N   1      27.498  12.702   2.447  0.00  0.00     0.304 C 
HETATM   36  F   UNK N   1      28.729  13.331   2.557  0.00  0.00    -0.244 F 
ENDBRANCH  34  35
ENDBRANCH  32  34
ENDBRANCH  17  32
BRANCH  14  37
HETATM   37  O   UNK N   1      29.755  16.542   3.025  0.00  0.00    -0.392 OA
HETATM   38  H   UNK N   1      29.806  16.487   2.058  0.00  0.00     0.210 HD
ENDBRANCH  14  37
TORSDOF 7
ENDMDL
MODEL 6
REMARK VINA RESULT:      -6.8      7.862     11.247
REMARK  7 active torsions:
REMARK  status: ('A' for Active; 'I' for Inactive)
REMARK    1  A    between atoms: C_14  and  O_21 
REMARK    2  A    between atoms: C_17  and  O_23 
REMARK    3  A    between atoms: C_17  and  C_26 
REMARK    4  A    between atoms: C_31  and  O_23 
REMARK    5  A    between atoms: C_26  and  S_28 
REMARK    6  A    between atoms: S_28  and  C_29 
REMARK    7  A    between atoms: C_31  and  C_32 
ROOT
HETATM    1  C   UNK N   1      20.731  17.326   6.999  0.00  0.00     0.052 C 
HETATM    2  C   UNK N   1      19.772  16.235   6.671  0.00  0.00     0.172 C 
HETATM    3  C   UNK N   1      20.294  15.086   5.910  0.00  0.00     0.061 C 
HETATM    4  C   UNK N   1      21.414  15.260   5.183  0.00  0.00    -0.027 C 
HETATM    5  C   UNK N   1      21.987  16.668   4.966  0.00  0.00     0.039 C 
HETATM    6  C   UNK N   1      21.870  17.434   6.277  0.00  0.00    -0.006 C 
HETATM    7  C   UNK N   1      22.215  14.082   4.725  0.00  0.00     0.201 C 
HETATM    8  C   UNK N   1      23.578  14.201   5.412  0.00  0.00     0.050 C 
HETATM    9  C   UNK N   1      24.255  15.588   5.220  0.00  0.00     0.037 C 
HETATM   10  C   UNK N   1      23.441  16.558   4.354  0.00  0.00     0.147 C 
HETATM   11  C   UNK N   1      25.702  15.356   4.732  0.00  0.00     0.005 C 
HETATM   12  C   UNK N   1      26.461  16.449   3.882  0.00  0.00     0.003 C 
HETATM   13  C   UNK N   1      25.551  17.652   3.483  0.00  0.00     0.048 C 
HETATM   14  C   UNK N   1      24.263  17.866   4.308  0.00  0.00     0.160 C 
HETATM   15  C   UNK N   1      26.505  15.171   6.010  0.00  0.00     0.013 C 
HETATM   16  C   UNK N   1      27.896  15.611   5.711  0.00  0.00     0.027 C 
HETATM   17  C   UNK N   1      27.778  16.795   4.719  0.00  0.00     0.152 C 
HETATM   18  O   UNK N   1      18.665  16.194   7.181  0.00  0.00    -0.289 OA
HETATM   19  C   UNK N   1      21.078  17.395   3.974  0.00  0.00     0.028 C 
HETATM   20  F   UNK N   1      23.337  16.049   3.063  0.00  0.00    -0.238 F 
HETATM   21  C   UNK N   1      26.803  15.797   2.545  0.00  0.00     0.019 C 
HETATM   22  C   UNK N   1      28.577  14.385   5.104  0.00  0.00     0.014 C 
HETATM   23  F   UNK N   1      21.627  12.873   5.056  0.00  0.00    -0.245 F 
ENDROOT
BRANCH  17  24
HETATM   24  O   UNK N   1      29.049  16.849   4.141  0.00  0.00    -0.294 OA
BRANCH  24  25
HETATM   25  C   UNK N   1      30.303  17.028   4.622  0.00  0.00     0.318 C 
HETATM   26  O   UNK N   1      30.507  17.661   5.641  0.00  0.00    -0.257 OA
BRANCH  25  27
HETATM   27  C   UNK N   1      31.414  16.402   3.876  0.00  0.00     0.149 A 
HETATM   28  C   UNK N   1      32.545  17.061   3.444  0.00  0.00     0.045 A 
HETATM   29  C   UNK N   1      33.335  16.096   2.852  0.00  0.00     0.027 A 
HETATM   30  C   UNK N   1      32.634  14.907   2.958  0.00  0.00     0.143 A 
HETATM   31  O   UNK N   1      31.494  15.130   3.575  0.00  0.00    -0.317 OA
ENDBRANCH  25  27
ENDBRANCH  24  25
ENDBRANCH  17  24
BRANCH  17  32
HETATM   32  C   UNK N   1      27.603  18.161   5.362  0.00  0.00     0.224 C 
HETATM   33  O   UNK N   1      27.275  18.200   6.540  0.00  0.00    -0.282 OA
BRANCH  32  34
HETATM   34  S   UNK N   1      27.795  19.714   4.481  0.00  0.00    -0.058 SA
BRANCH  34  35
HETATM   35  C   UNK N   1      26.804  20.632   5.711  0.00  0.00     0.304 C 
HETATM   36  F   UNK N   1      27.452  21.800   6.079  0.00  0.00    -0.244 F 
ENDBRANCH  34  35
ENDBRANCH  32  34
ENDBRANCH  17  32
BRANCH  14  37
HETATM   37  O   UNK N   1      23.533  18.913   3.746  0.00  0.00    -0.392 OA
HETATM   38  H   UNK N   1      23.262  19.080   2.829  0.00  0.00     0.210 HD
ENDBRANCH  14  37
TORSDOF 7
ENDMDL
MODEL 7
REMARK VINA RESULT:      -6.8      2.888      4.734
REMARK  7 active torsions:
REMARK  status: ('A' for Active; 'I' for Inactive)
REMARK    1  A    between atoms: C_14  and  O_21 
REMARK    2  A    between atoms: C_17  and  O_23 
REMARK    3  A    between atoms: C_17  and  C_26 
REMARK    4  A    between atoms: C_31  and  O_23 
REMARK    5  A    between atoms: C_26  and  S_28 
REMARK    6  A    between atoms: S_28  and  C_29 
REMARK    7  A    between atoms: C_31  and  C_32 
ROOT
HETATM    1  C   UNK N   1      28.554  19.324   4.528  0.00  0.00     0.052 C 
HETATM    2  C   UNK N   1      27.384  19.684   5.375  0.00  0.00     0.172 C 
HETATM    3  C   UNK N   1      27.446  19.314   6.801  0.00  0.00     0.061 C 
HETATM    4  C   UNK N   1      28.281  18.323   7.165  0.00  0.00    -0.027 C 
HETATM    5  C   UNK N   1      28.963  17.452   6.100  0.00  0.00     0.039 C 
HETATM    6  C   UNK N   1      29.398  18.357   4.956  0.00  0.00    -0.006 C 
HETATM    7  C   UNK N   1      28.697  18.164   8.593  0.00  0.00     0.201 C 
HETATM    8  C   UNK N   1      30.210  18.394   8.624  0.00  0.00     0.050 C 
HETATM    9  C   UNK N   1      30.995  17.528   7.597  0.00  0.00     0.037 C 
HETATM   10  C   UNK N   1      30.104  16.589   6.774  0.00  0.00     0.147 C 
HETATM   11  C   UNK N   1      32.150  16.823   8.341  0.00  0.00     0.005 C 
HETATM   12  C   UNK N   1      32.751  15.462   7.812  0.00  0.00     0.003 C 
HETATM   13  C   UNK N   1      31.958  14.874   6.604  0.00  0.00     0.048 C 
HETATM   14  C   UNK N   1      31.058  15.847   5.811  0.00  0.00     0.160 C 
HETATM   15  C   UNK N   1      33.286  17.834   8.315  0.00  0.00     0.013 C 
HETATM   16  C   UNK N   1      34.554  17.056   8.373  0.00  0.00     0.027 C 
HETATM   17  C   UNK N   1      34.305  15.751   7.576  0.00  0.00     0.152 C 
HETATM   18  O   UNK N   1      26.511  20.428   4.961  0.00  0.00    -0.289 OA
HETATM   19  C   UNK N   1      27.905  16.517   5.513  0.00  0.00     0.028 C 
HETATM   20  F   UNK N   1      29.508  15.658   7.620  0.00  0.00    -0.238 F 
HETATM   21  C   UNK N   1      32.535  14.434   8.920  0.00  0.00     0.019 C 
HETATM   22  C   UNK N   1      34.803  16.813   9.861  0.00  0.00     0.014 C 
HETATM   23  F   UNK N   1      28.070  19.064   9.438  0.00  0.00    -0.245 F 
ENDROOT
BRANCH  17  24
HETATM   24  O   UNK N   1      35.311  14.900   8.043  0.00  0.00    -0.294 OA
BRANCH  24  25
HETATM   25  C   UNK N   1      35.342  13.615   8.473  0.00  0.00     0.318 C 
HETATM   26  O   UNK N   1      35.083  12.690   7.726  0.00  0.00    -0.257 OA
BRANCH  25  27
HETATM   27  C   UNK N   1      35.729  13.378   9.879  0.00  0.00     0.149 A 
HETATM   28  C   UNK N   1      36.887  13.838  10.467  0.00  0.00     0.045 A 
HETATM   29  C   UNK N   1      36.817  13.443  11.788  0.00  0.00     0.027 A 
HETATM   30  C   UNK N   1      35.618  12.764  11.923  0.00  0.00     0.143 A 
HETATM   31  O   UNK N   1      34.998  12.748  10.763  0.00  0.00    -0.317 OA
ENDBRANCH  25  27
ENDBRANCH  24  25
ENDBRANCH  17  24
BRANCH  17  32
HETATM   32  C   UNK N   1      34.563  15.847   6.082  0.00  0.00     0.224 C 
HETATM   33  O   UNK N   1      34.453  16.945   5.553  0.00  0.00    -0.282 OA
BRANCH  32  34
HETATM   34  S   UNK N   1      34.960  14.439   5.041  0.00  0.00    -0.058 SA
BRANCH  34  35
HETATM   35  C   UNK N   1      33.949  15.069   3.656  0.00  0.00     0.304 C 
HETATM   36  F   UNK N   1      32.985  14.138   3.300  0.00  0.00    -0.244 F 
ENDBRANCH  34  35
ENDBRANCH  32  34
ENDBRANCH  17  32
BRANCH  14  37
HETATM   37  O   UNK N   1      30.356  15.128   4.843  0.00  0.00    -0.392 OA
HETATM   38  H   UNK N   1      30.587  14.320   4.358  0.00  0.00     0.210 HD
ENDBRANCH  14  37
TORSDOF 7
ENDMDL
MODEL 8
REMARK VINA RESULT:      -6.8      6.989     10.486
REMARK  7 active torsions:
REMARK  status: ('A' for Active; 'I' for Inactive)
REMARK    1  A    between atoms: C_14  and  O_21 
REMARK    2  A    between atoms: C_17  and  O_23 
REMARK    3  A    between atoms: C_17  and  C_26 
REMARK    4  A    between atoms: C_31  and  O_23 
REMARK    5  A    between atoms: C_26  and  S_28 
REMARK    6  A    between atoms: S_28  and  C_29 
REMARK    7  A    between atoms: C_31  and  C_32 
ROOT
HETATM    1  C   UNK N   1      21.774  14.945   1.296  0.00  0.00     0.052 C 
HETATM    2  C   UNK N   1      20.617  15.820   1.634  0.00  0.00     0.172 C 
HETATM    3  C   UNK N   1      20.819  16.822   2.697  0.00  0.00     0.061 C 
HETATM    4  C   UNK N   1      21.810  16.616   3.586  0.00  0.00    -0.027 C 
HETATM    5  C   UNK N   1      22.545  15.269   3.630  0.00  0.00     0.039 C 
HETATM    6  C   UNK N   1      22.774  14.807   2.197  0.00  0.00    -0.006 C 
HETATM    7  C   UNK N   1      22.331  17.744   4.420  0.00  0.00     0.201 C 
HETATM    8  C   UNK N   1      23.793  17.936   4.011  0.00  0.00     0.050 C 
HETATM    9  C   UNK N   1      24.631  16.626   4.055  0.00  0.00     0.037 C 
HETATM   10  C   UNK N   1      23.838  15.402   4.531  0.00  0.00     0.147 C 
HETATM   11  C   UNK N   1      25.920  16.904   4.860  0.00  0.00     0.005 C 
HETATM   12  C   UNK N   1      26.679  15.741   5.612  0.00  0.00     0.003 C 
HETATM   13  C   UNK N   1      25.909  14.386   5.573  0.00  0.00     0.048 C 
HETATM   14  C   UNK N   1      24.830  14.217   4.481  0.00  0.00     0.160 C 
HETATM   15  C   UNK N   1      26.894  17.460   3.832  0.00  0.00     0.013 C 
HETATM   16  C   UNK N   1      28.262  17.124   4.312  0.00  0.00     0.027 C 
HETATM   17  C   UNK N   1      28.158  15.742   5.004  0.00  0.00     0.152 C 
HETATM   18  O   UNK N   1      19.622  15.849   0.931  0.00  0.00    -0.289 OA
HETATM   19  C   UNK N   1      21.601  14.241   4.254  0.00  0.00     0.028 C 
HETATM   20  F   UNK N   1      23.437  15.595   5.849  0.00  0.00    -0.238 F 
HETATM   21  C   UNK N   1      26.683  16.113   7.092  0.00  0.00     0.019 C 
HETATM   22  C   UNK N   1      28.634  18.251   5.273  0.00  0.00     0.014 C 
HETATM   23  F   UNK N   1      21.631  18.923   4.224  0.00  0.00    -0.245 F 
ENDROOT
BRANCH  17  24
HETATM   24  O   UNK N   1      29.303  15.703   5.804  0.00  0.00    -0.294 OA
BRANCH  24  25
HETATM   25  C   UNK N   1      30.567  15.245   5.629  0.00  0.00     0.318 C 
HETATM   26  O   UNK N   1      30.923  14.176   6.088  0.00  0.00    -0.257 OA
BRANCH  25  27
HETATM   27  C   UNK N   1      31.490  16.083   4.837  0.00  0.00     0.149 A 
HETATM   28  C   UNK N   1      32.209  17.149   5.330  0.00  0.00     0.045 A 
HETATM   29  C   UNK N   1      32.977  17.601   4.276  0.00  0.00     0.027 A 
HETATM   30  C   UNK N   1      32.676  16.781   3.202  0.00  0.00     0.143 A 
HETATM   31  O   UNK N   1      31.787  15.888   3.576  0.00  0.00    -0.317 OA
ENDBRANCH  25  27
ENDBRANCH  24  25
ENDBRANCH  17  24
BRANCH  17  32
HETATM   32  C   UNK N   1      28.307  14.543   4.082  0.00  0.00     0.224 C 
HETATM   33  O   UNK N   1      28.237  13.427   4.580  0.00  0.00    -0.282 OA
BRANCH  32  34
HETATM   34  S   UNK N   1      28.636  14.669   2.322  0.00  0.00    -0.058 SA
BRANCH  34  35
HETATM   35  C   UNK N   1      26.941  14.148   1.882  0.00  0.00     0.304 C 
HETATM   36  F   UNK N   1      26.179  15.247   1.513  0.00  0.00    -0.244 F 
ENDBRANCH  34  35
ENDBRANCH  32  34
ENDBRANCH  17  32
BRANCH  14  37
HETATM   37  O   UNK N   1      24.182  12.996   4.666  0.00  0.00    -0.392 OA
HETATM   38  H   UNK N   1      23.247  12.788   4.821  0.00  0.00     0.210 HD
ENDBRANCH  14  37
TORSDOF 7
ENDMDL
MODEL 9
REMARK VINA RESULT:      -6.7      2.437      7.946
REMARK  7 active torsions:
REMARK  status: ('A' for Active; 'I' for Inactive)
REMARK    1  A    between atoms: C_14  and  O_21 
REMARK    2  A    between atoms: C_17  and  O_23 
REMARK    3  A    between atoms: C_17  and  C_26 
REMARK    4  A    between atoms: C_31  and  O_23 
REMARK    5  A    between atoms: C_26  and  S_28 
REMARK    6  A    between atoms: S_28  and  C_29 
REMARK    7  A    between atoms: C_31  and  C_32 
ROOT
HETATM    1  C   UNK N   1      35.901  10.703  10.659  0.00  0.00     0.052 C 
HETATM    2  C   UNK N   1      36.611  11.018  11.929  0.00  0.00     0.172 C 
HETATM    3  C   UNK N   1      36.567  12.416  12.396  0.00  0.00     0.061 C 
HETATM    4  C   UNK N   1      36.310  13.380  11.492  0.00  0.00    -0.027 C 
HETATM    5  C   UNK N   1      36.302  13.057   9.992  0.00  0.00     0.039 C 
HETATM    6  C   UNK N   1      35.616  11.710   9.802  0.00  0.00    -0.006 C 
HETATM    7  C   UNK N   1      35.856  14.736  11.935  0.00  0.00     0.201 C 
HETATM    8  C   UNK N   1      34.445  14.917  11.371  0.00  0.00     0.050 C 
HETATM    9  C   UNK N   1      34.342  14.640   9.843  0.00  0.00     0.037 C 
HETATM   10  C   UNK N   1      35.681  14.271   9.192  0.00  0.00     0.147 C 
HETATM   11  C   UNK N   1      33.619  15.835   9.184  0.00  0.00     0.005 C 
HETATM   12  C   UNK N   1      33.861  16.198   7.666  0.00  0.00     0.003 C 
HETATM   13  C   UNK N   1      34.986  15.342   7.006  0.00  0.00     0.048 C 
HETATM   14  C   UNK N   1      35.362  14.014   7.701  0.00  0.00     0.160 C 
HETATM   15  C   UNK N   1      32.141  15.501   9.315  0.00  0.00     0.013 C 
HETATM   16  C   UNK N   1      31.445  16.177   8.186  0.00  0.00     0.027 C 
HETATM   17  C   UNK N   1      32.418  16.132   6.981  0.00  0.00     0.152 C 
HETATM   18  O   UNK N   1      37.032  10.132  12.653  0.00  0.00    -0.289 OA
HETATM   19  C   UNK N   1      37.751  12.852   9.550  0.00  0.00     0.028 C 
HETATM   20  F   UNK N   1      36.554  15.350   9.285  0.00  0.00    -0.238 F 
HETATM   21  C   UNK N   1      34.426  17.615   7.644  0.00  0.00     0.019 C 
HETATM   22  C   UNK N   1      31.170  17.595   8.683  0.00  0.00     0.014 C 
HETATM   23  F   UNK N   1      35.831  14.870  13.313  0.00  0.00    -0.245 F 
ENDROOT
BRANCH  17  24
HETATM   24  O   UNK N   1      31.931  17.141   6.146  0.00  0.00    -0.294 OA
BRANCH  24  25
HETATM   25  C   UNK N   1      30.993  17.194   5.169  0.00  0.00     0.318 C 
HETATM   26  O   UNK N   1      31.305  17.281   3.996  0.00  0.00    -0.257 OA
BRANCH  25  27
HETATM   27  C   UNK N   1      29.577  17.113   5.580  0.00  0.00     0.149 A 
HETATM   28  C   UNK N   1      28.820  15.961   5.583  0.00  0.00     0.045 A 
HETATM   29  C   UNK N   1      27.589  16.325   6.090  0.00  0.00     0.027 A 
HETATM   30  C   UNK N   1      27.672  17.680   6.365  0.00  0.00     0.143 A 
HETATM   31  O   UNK N   1      28.872  18.113   6.049  0.00  0.00    -0.317 OA
ENDBRANCH  25  27
ENDBRANCH  24  25
ENDBRANCH  17  24
BRANCH  17  32
HETATM   32  C   UNK N   1      32.337  14.875   6.132  0.00  0.00     0.224 C 
HETATM   33  O   UNK N   1      31.629  13.960   6.532  0.00  0.00    -0.282 OA
BRANCH  32  34
HETATM   34  S   UNK N   1      33.260  14.632   4.611  0.00  0.00    -0.058 SA
BRANCH  34  35
HETATM   35  C   UNK N   1      33.245  12.815   4.792  0.00  0.00     0.304 C 
HETATM   36  F   UNK N   1      34.539  12.318   4.785  0.00  0.00    -0.244 F 
ENDBRANCH  34  35
ENDBRANCH  32  34
ENDBRANCH  17  32
BRANCH  14  37
HETATM   37  O   UNK N   1      36.446  13.444   7.034  0.00  0.00    -0.392 OA
HETATM   38  H   UNK N   1      37.365  13.307   7.314  0.00  0.00     0.210 HD
ENDBRANCH  14  37
TORSDOF 7
ENDMDL
